@<TRIPOS>MOLECULE
*****
 47 52 0 0 0
SMALL
GASTEIGER

@<TRIPOS>ATOM
      1 N           0.7015    1.4203   18.2064 N.am    1  UNL1       -0.2803
      2 C           0.3562    2.7638   18.7772 C.2     1  UNL1        0.2507
      3 O           1.1477    3.3170   19.9250 O.2     1  UNL1       -0.2698
      4 H           0.1820    1.0572   17.4531 H       1  UNL1        0.1552
      5 C           4.1122   -0.9505   19.9377 C.ar    1  UNL1        0.0480
      6 C           4.3792    0.1004   18.9012 C.ar    1  UNL1        0.0158
      7 C           3.2424    0.8906   18.3241 C.ar    1  UNL1        0.0159
      8 C           1.8384    0.6300   18.7836 C.ar    1  UNL1        0.0506
      9 C           1.5714   -0.4208   19.8201 C.ar    1  UNL1        0.0159
     10 C           2.7083   -1.2111   20.3972 C.ar    1  UNL1        0.0158
     11 N           7.5229   -3.3211   21.6690 N.3     1  UNL1       -0.2660
     12 C           6.5974   -3.9558   20.6735 C.3     1  UNL1        0.0941
     13 C           5.4606   -3.1656   20.0965 C.3     1  UNL1        0.1081
     14 N           5.2491   -1.7407   20.5148 N.pl3   1  UNL1       -0.3046
     15 C           6.1745   -1.1060   21.5101 C.3     1  UNL1        0.1081
     16 C           7.3114   -1.8962   22.0873 C.3     1  UNL1        0.0941
     17 C           8.6598   -4.1113   22.2460 C.3     1  UNL1        0.0993
     18 C           7.8452   -7.3578   25.2538 C.ar    1  UNL1        0.1724
     19 C           8.7008   -7.6433   24.0553 C.ar    1  UNL1        0.0398
     20 C           8.9723   -6.5612   23.0527 C.ar    1  UNL1        0.0004
     21 C           8.3882   -5.1935   23.2487 C.ar    1  UNL1       -0.0029
     22 C           7.5327   -4.9080   24.4472 C.ar    1  UNL1        0.0371
     23 C           7.2612   -5.9901   25.4497 C.ar    1  UNL1        0.1721
     24 C           8.4641   -8.5936   27.4538 C.3     1  UNL1        0.2526
     25 O           7.5737   -8.4400   26.2564 O.3     1  UNL1       -0.4684
     26 O           6.4056   -5.7047   26.6483 O.3     1  UNL1       -0.4684
     27 C           7.0203   -5.1245   27.8875 C.3     1  UNL1        0.2526
     28 C          -0.7807    3.5541   18.2001 C.ar    1  UNL1        0.0671
     29 C          -0.7297    4.0074   16.7712 C.ar    1  UNL1        0.0058
     30 C          -1.8666    4.7977   16.1941 C.ar    1  UNL1        0.0002
     31 C          -3.0544    5.1347   17.0459 C.ar    1  UNL1        0.0013
     32 C          -3.1052    4.6813   18.4749 C.ar    1  UNL1        0.0148
     33 C          -1.9684    3.8910   19.0520 C.ar    1  UNL1        0.0549
     34 N          -2.0193    3.4378   20.4809 N.am    1  UNL1       -0.2802
     35 C          -1.5545    4.3526   21.5750 C.2     1  UNL1        0.2510
     36 O          -1.0388    5.7207   21.2401 O.2     1  UNL1       -0.2698
     37 H          -2.3578    2.5398   20.7007 H       1  UNL1        0.1552
     38 C          -1.6054    3.8992   23.0040 C.ar    1  UNL1        0.0728
     39 C          -2.6955    4.3922   23.9088 C.ar    1  UNL1        0.1033
     40 N          -2.7465    3.9389   25.3377 N.ar    1  UNL1       -0.2437
     41 C          -1.7074    2.9926   25.8619 C.ar    1  UNL1        0.0813
     42 C          -1.7583    2.5393   27.2908 C.ar    1  UNL1        0.0191
     43 C          -0.7192    1.5930   27.8149 C.ar    1  UNL1        0.0015
     44 C           0.3709    1.1000   26.9101 C.ar    1  UNL1        0.0001
     45 C           0.4218    1.5533   25.4812 C.ar    1  UNL1        0.0015
     46 C          -0.6173    2.4996   24.9571 C.ar    1  UNL1        0.0178
     47 C          -0.5663    2.9530   23.5281 C.ar    1  UNL1        0.0076
@<TRIPOS>BOND
     1    24    25    1
     2    25    18    1
     3    18    19   ar
     4    19    20   ar
     5    20    21   ar
     6    21    17    1
     7    17    11    1
     8    11    12    1
     9    12    13    1
    10    13    14    1
    11    14     5    1
    12     5     6   ar
    13     6     7   ar
    14     7     8   ar
    15     8     1    1
    16     1     2   am
    17     2     3    2
    18     2    28    1
    19    28    29   ar
    20    29    30   ar
    21    30    31   ar
    22    31    32   ar
    23    32    33   ar
    24    33    34    1
    25    34    35   am
    26    35    36    2
    27    35    38    1
    28    38    39   ar
    29    39    40   ar
    30    40    41   ar
    31    41    42   ar
    32    42    43   ar
    33    43    44   ar
    34    44    45   ar
    35    45    46   ar
    36    46    47   ar
    37     8     9   ar
    38     9    10   ar
    39    14    15    1
    40    15    16    1
    41    21    22   ar
    42    22    23   ar
    43    23    26    1
    44    26    27    1
    45    23    18   ar
    46    16    11    1
    47    10     5   ar
    48    33    28   ar
    49    47    38   ar
    50    46    41   ar
    51     1     4    1
    52    34    37    1
@<TRIPOS>MOLECULE
*****
 47 52 0 0 0
SMALL
GASTEIGER

@<TRIPOS>ATOM
      1 N           3.5404   -1.6319   25.7608 N.am    1  UNL1       -0.2803
      2 C           4.3040   -0.8954   24.7004 C.2     1  UNL1        0.2507
      3 O           5.4351    0.0120   25.0841 O.2     1  UNL1       -0.2698
      4 H           2.7980   -2.2274   25.5090 H       1  UNL1        0.1552
      5 C           4.6431   -1.1192   30.0934 C.ar    1  UNL1        0.0480
      6 C           3.3621   -0.5387   29.5717 C.ar    1  UNL1        0.0158
      7 C           2.9946   -0.7096   28.1276 C.ar    1  UNL1        0.0159
      8 C           3.9080   -1.4610   27.2050 C.ar    1  UNL1        0.0506
      9 C           5.1889   -2.0415   27.7267 C.ar    1  UNL1        0.0159
     10 C           5.5565   -1.8706   29.1709 C.ar    1  UNL1        0.0158
     11 N           5.7458   -0.6064   34.4260 N.3     1  UNL1       -0.2660
     12 C           4.7615   -1.6641   34.0227 C.3     1  UNL1        0.0941
     13 C           4.3939   -1.8350   32.5785 C.3     1  UNL1        0.1081
     14 N           5.0106   -0.9483   31.5376 N.pl3   1  UNL1       -0.3046
     15 C           5.9949    0.1093   31.9409 C.3     1  UNL1        0.1081
     16 C           6.3624    0.2803   33.3851 C.3     1  UNL1        0.0941
     17 C           6.1133   -0.4355   35.8702 C.3     1  UNL1        0.0993
     18 C           3.8980    2.5388   38.4190 C.ar    1  UNL1        0.1724
     19 C           5.3618    2.7251   38.1496 C.ar    1  UNL1        0.0398
     20 C           6.1002    1.7337   37.3000 C.ar    1  UNL1        0.0004
     21 C           5.3748    0.5560   36.7198 C.ar    1  UNL1       -0.0029
     22 C           3.9110    0.3696   36.9892 C.ar    1  UNL1        0.0371
     23 C           3.1726    1.3610   37.8387 C.ar    1  UNL1        0.1721
     24 C           3.9170    4.5814   40.0244 C.3     1  UNL1        0.2526
     25 O           3.1595    3.5302   39.2686 O.3     1  UNL1       -0.4684
     26 O           1.7088    1.1746   38.1081 O.3     1  UNL1       -0.4684
     27 C           1.2606    0.3454   39.2749 C.3     1  UNL1        0.2526
     28 C           3.9364   -1.0663   23.2562 C.ar    1  UNL1        0.0671
     29 C           3.2476    0.0450   22.5211 C.ar    1  UNL1        0.0058
     30 C           2.8800   -0.1258   21.0768 C.ar    1  UNL1        0.0002
     31 C           3.2013   -1.4080   20.3678 C.ar    1  UNL1        0.0013
     32 C           3.8902   -2.5193   21.1029 C.ar    1  UNL1        0.0148
     33 C           4.2577   -2.3485   22.5471 C.ar    1  UNL1        0.0549
     34 N           4.9465   -3.4598   23.2822 N.am    1  UNL1       -0.2802
     35 C           6.4434   -3.5552   23.2658 C.2     1  UNL1        0.2510
     36 O           7.2515   -2.5392   22.5143 O.2     1  UNL1       -0.2698
     37 H           4.4162   -4.1266   23.7755 H       1  UNL1        0.1552
     38 C           7.1322   -4.6666   24.0010 C.ar    1  UNL1        0.0728
     39 C           8.0370   -5.6072   23.2616 C.ar    1  UNL1        0.1033
     40 N           8.7257   -6.7185   23.9967 N.ar    1  UNL1       -0.2437
     41 C           8.5098   -6.8893   25.4712 C.ar    1  UNL1        0.0813
     42 C           9.1986   -8.0007   26.2063 C.ar    1  UNL1        0.0191
     43 C           8.9827   -8.1715   27.6808 C.ar    1  UNL1        0.0015
     44 C           8.0779   -7.2309   28.4202 C.ar    1  UNL1        0.0001
     45 C           7.3891   -6.1195   27.6851 C.ar    1  UNL1        0.0015
     46 C           7.6051   -5.9488   26.2106 C.ar    1  UNL1        0.0178
     47 C           6.9163   -4.8373   25.4755 C.ar    1  UNL1        0.0076
@<TRIPOS>BOND
     1    24    25    1
     2    25    18    1
     3    18    19   ar
     4    19    20   ar
     5    20    21   ar
     6    21    17    1
     7    17    11    1
     8    11    12    1
     9    12    13    1
    10    13    14    1
    11    14     5    1
    12     5     6   ar
    13     6     7   ar
    14     7     8   ar
    15     8     1    1
    16     1     2   am
    17     2     3    2
    18     2    28    1
    19    28    29   ar
    20    29    30   ar
    21    30    31   ar
    22    31    32   ar
    23    32    33   ar
    24    33    34    1
    25    34    35   am
    26    35    36    2
    27    35    38    1
    28    38    39   ar
    29    39    40   ar
    30    40    41   ar
    31    41    42   ar
    32    42    43   ar
    33    43    44   ar
    34    44    45   ar
    35    45    46   ar
    36    46    47   ar
    37     8     9   ar
    38     9    10   ar
    39    14    15    1
    40    15    16    1
    41    21    22   ar
    42    22    23   ar
    43    23    26    1
    44    26    27    1
    45    23    18   ar
    46    16    11    1
    47    10     5   ar
    48    33    28   ar
    49    47    38   ar
    50    46    41   ar
    51     1     4    1
    52    34    37    1
@<TRIPOS>MOLECULE
*****
 47 52 0 0 0
SMALL
GASTEIGER

@<TRIPOS>ATOM
      1 N           2.2775    1.3674   33.2219 N.am    1  UNL1       -0.2803
      2 C           3.7352    1.5437   33.5281 C.2     1  UNL1        0.2507
      3 O           4.6704    2.0392   32.4651 O.2     1  UNL1       -0.2698
      4 H           1.6637    1.0422   33.9196 H       1  UNL1        0.1552
      5 C           0.7096    2.3252   29.1139 C.ar    1  UNL1        0.0480
      6 C           1.4077    1.0214   29.3652 C.ar    1  UNL1        0.0158
      7 C           1.9303    0.7022   30.7345 C.ar    1  UNL1        0.0159
      8 C           1.7548    1.6867   31.8525 C.ar    1  UNL1        0.0506
      9 C           1.0568    2.9904   31.6013 C.ar    1  UNL1        0.0159
     10 C           0.5342    3.3096   30.2320 C.ar    1  UNL1        0.0158
     11 N          -0.8582    3.2828   25.0060 N.3     1  UNL1       -0.2660
     12 C          -0.6045    4.3876   25.9884 C.3     1  UNL1        0.0941
     13 C          -0.0819    4.0684   27.3576 C.3     1  UNL1        0.1081
     14 N           0.1870    2.6444   27.7446 N.pl3   1  UNL1       -0.3046
     15 C          -0.0667    1.5395   26.7624 C.3     1  UNL1        0.1081
     16 C          -0.5893    1.8587   25.3930 C.3     1  UNL1        0.0941
     17 C          -1.3808    3.6020   23.6367 C.3     1  UNL1        0.0993
     18 C          -5.8104    4.0113   22.9580 C.ar    1  UNL1        0.1724
     19 C          -5.2866    3.7119   24.3313 C.ar    1  UNL1        0.0398
     20 C          -3.8101    3.5755   24.5575 C.ar    1  UNL1        0.0004
     21 C          -2.8574    3.7384   23.4105 C.ar    1  UNL1       -0.0029
     22 C          -3.3812    4.0378   22.0372 C.ar    1  UNL1        0.0371
     23 C          -4.8577    4.1742   21.8110 C.ar    1  UNL1        0.1721
     24 C          -8.1617    4.7151   23.8102 C.3     1  UNL1        0.2526
     25 O          -7.2870    4.1477   22.7318 O.3     1  UNL1       -0.4684
     26 O          -5.3816    4.4736   20.4376 O.3     1  UNL1       -0.4684
     27 C          -5.0142    3.5868   19.2850 C.3     1  UNL1        0.2526
     28 C           4.2579    1.2244   34.8974 C.ar    1  UNL1        0.0671
     29 C           3.7023    1.9340   36.0964 C.ar    1  UNL1        0.0058
     30 C           4.2249    1.6148   37.4658 C.ar    1  UNL1        0.0002
     31 C           5.3032    0.5860   37.6360 C.ar    1  UNL1        0.0013
     32 C           5.8588   -0.1236   36.4368 C.ar    1  UNL1        0.0148
     33 C           5.3361    0.1957   35.0676 C.ar    1  UNL1        0.0549
     34 N           5.8917   -0.5139   33.8685 N.am    1  UNL1       -0.2802
     35 C           5.1795   -1.7088   33.3074 C.2     1  UNL1        0.2510
     36 O           3.9117   -2.1942   33.9453 O.2     1  UNL1       -0.2698
     37 H           6.7239   -0.1953   33.4498 H       1  UNL1        0.1552
     38 C           5.7352   -2.4184   32.1082 C.ar    1  UNL1        0.0728
     39 C           5.6324   -1.7896   30.7503 C.ar    1  UNL1        0.1033
     40 N           6.1880   -2.4991   29.5512 N.ar    1  UNL1       -0.2437
     41 C           6.8465   -3.8374   29.7100 C.ar    1  UNL1        0.0813
     42 C           7.4021   -4.5469   28.5109 C.ar    1  UNL1        0.0191
     43 C           8.0606   -5.8852   28.6698 C.ar    1  UNL1        0.0015
     44 C           8.1635   -6.5141   30.0277 C.ar    1  UNL1        0.0001
     45 C           7.6079   -5.8046   31.2268 C.ar    1  UNL1        0.0015
     46 C           6.9494   -4.4663   31.0680 C.ar    1  UNL1        0.0178
     47 C           6.3937   -3.7567   32.2671 C.ar    1  UNL1        0.0076
@<TRIPOS>BOND
     1    24    25    1
     2    25    18    1
     3    18    19   ar
     4    19    20   ar
     5    20    21   ar
     6    21    17    1
     7    17    11    1
     8    11    12    1
     9    12    13    1
    10    13    14    1
    11    14     5    1
    12     5     6   ar
    13     6     7   ar
    14     7     8   ar
    15     8     1    1
    16     1     2   am
    17     2     3    2
    18     2    28    1
    19    28    29   ar
    20    29    30   ar
    21    30    31   ar
    22    31    32   ar
    23    32    33   ar
    24    33    34    1
    25    34    35   am
    26    35    36    2
    27    35    38    1
    28    38    39   ar
    29    39    40   ar
    30    40    41   ar
    31    41    42   ar
    32    42    43   ar
    33    43    44   ar
    34    44    45   ar
    35    45    46   ar
    36    46    47   ar
    37     8     9   ar
    38     9    10   ar
    39    14    15    1
    40    15    16    1
    41    21    22   ar
    42    22    23   ar
    43    23    26    1
    44    26    27    1
    45    23    18   ar
    46    16    11    1
    47    10     5   ar
    48    33    28   ar
    49    47    38   ar
    50    46    41   ar
    51     1     4    1
    52    34    37    1
@<TRIPOS>MOLECULE
*****
 47 52 0 0 0
SMALL
GASTEIGER

@<TRIPOS>ATOM
      1 N           2.0227    1.3969   32.7589 N.am    1  UNL1       -0.2803
      2 C           3.4393    1.5990   33.2086 C.2     1  UNL1        0.2507
      3 O           4.4568    2.1532   32.2558 O.2     1  UNL1       -0.2698
      4 H           1.3549    1.0332   33.3842 H       1  UNL1        0.1552
      5 C           0.8251    2.4533   28.5517 C.ar    1  UNL1        0.0480
      6 C           0.7128    3.4765   29.6428 C.ar    1  UNL1        0.0158
      7 C           1.1120    3.1244   31.0452 C.ar    1  UNL1        0.0159
      8 C           1.6235    1.7490   31.3565 C.ar    1  UNL1        0.0506
      9 C           1.7357    0.7258   30.2654 C.ar    1  UNL1        0.0159
     10 C           1.3365    1.0780   28.8630 C.ar    1  UNL1        0.0158
     11 N          -0.3726    3.5097   24.3446 N.3     1  UNL1       -0.2660
     12 C           0.9845    3.8924   24.8567 C.3     1  UNL1        0.0941
     13 C           1.3837    3.5402   26.2590 C.3     1  UNL1        0.1081
     14 N           0.4259    2.8054   27.1494 N.pl3   1  UNL1       -0.3046
     15 C          -0.9311    2.4228   26.6374 C.3     1  UNL1        0.1081
     16 C          -1.3303    2.7750   25.2350 C.3     1  UNL1        0.0941
     17 C          -0.7718    3.8619   22.9423 C.3     1  UNL1        0.0993
     18 C           0.5793    1.2905   19.5054 C.ar    1  UNL1        0.1724
     19 C           0.5921    0.7431   20.9019 C.ar    1  UNL1        0.0398
     20 C           0.1417    1.6003   22.0475 C.ar    1  UNL1        0.0004
     21 C          -0.3214    3.0048   21.7966 C.ar    1  UNL1       -0.0029
     22 C          -0.3342    3.5521   20.4001 C.ar    1  UNL1        0.0371
     23 C           0.1162    2.6950   19.2545 C.ar    1  UNL1        0.1721
     24 C           2.4933    0.2040   18.1246 C.3     1  UNL1        0.2526
     25 O           1.0297    0.4333   18.3597 O.3     1  UNL1       -0.4684
     26 O           0.1034    3.2423   17.8579 O.3     1  UNL1       -0.4684
     27 C          -1.1643    3.8011   17.2830 C.3     1  UNL1        0.2526
     28 C           3.8386    1.2469   34.6109 C.ar    1  UNL1        0.0671
     29 C           3.1808    1.9314   35.7722 C.ar    1  UNL1        0.0058
     30 C           3.5800    1.5793   37.1746 C.ar    1  UNL1        0.0002
     31 C           4.6370    0.5427   37.4157 C.ar    1  UNL1        0.0013
     32 C           5.2948   -0.1418   36.2543 C.ar    1  UNL1        0.0148
     33 C           4.8956    0.2102   34.8519 C.ar    1  UNL1        0.0549
     34 N           5.5534   -0.4743   33.6906 N.am    1  UNL1       -0.2802
     35 C           5.0399   -1.8001   33.2125 C.2     1  UNL1        0.2510
     36 O           3.8686   -2.4413   33.8957 O.2     1  UNL1       -0.2698
     37 H           6.3222   -0.0534   33.2422 H       1  UNL1        0.1552
     38 C           5.6977   -2.4846   32.0512 C.ar    1  UNL1        0.0728
     39 C           5.6872   -1.8402   30.6967 C.ar    1  UNL1        0.1033
     40 N           6.3450   -2.5247   29.5353 N.ar    1  UNL1       -0.2437
     41 C           7.0134   -3.8536   29.7285 C.ar    1  UNL1        0.0813
     42 C           7.6713   -4.5381   28.5671 C.ar    1  UNL1        0.0191
     43 C           8.3396   -5.8669   28.7603 C.ar    1  UNL1        0.0015
     44 C           8.3502   -6.5113   30.1148 C.ar    1  UNL1        0.0001
     45 C           7.6923   -5.8269   31.2761 C.ar    1  UNL1        0.0015
     46 C           7.0240   -4.4980   31.0829 C.ar    1  UNL1        0.0178
     47 C           6.3661   -3.8135   32.2443 C.ar    1  UNL1        0.0076
@<TRIPOS>BOND
     1    24    25    1
     2    25    18    1
     3    18    19   ar
     4    19    20   ar
     5    20    21   ar
     6    21    17    1
     7    17    11    1
     8    11    12    1
     9    12    13    1
    10    13    14    1
    11    14     5    1
    12     5     6   ar
    13     6     7   ar
    14     7     8   ar
    15     8     1    1
    16     1     2   am
    17     2     3    2
    18     2    28    1
    19    28    29   ar
    20    29    30   ar
    21    30    31   ar
    22    31    32   ar
    23    32    33   ar
    24    33    34    1
    25    34    35   am
    26    35    36    2
    27    35    38    1
    28    38    39   ar
    29    39    40   ar
    30    40    41   ar
    31    41    42   ar
    32    42    43   ar
    33    43    44   ar
    34    44    45   ar
    35    45    46   ar
    36    46    47   ar
    37     8     9   ar
    38     9    10   ar
    39    14    15    1
    40    15    16    1
    41    21    22   ar
    42    22    23   ar
    43    23    26    1
    44    26    27    1
    45    23    18   ar
    46    16    11    1
    47    10     5   ar
    48    33    28   ar
    49    47    38   ar
    50    46    41   ar
    51     1     4    1
    52    34    37    1
@<TRIPOS>MOLECULE
*****
 47 52 0 0 0
SMALL
GASTEIGER

@<TRIPOS>ATOM
      1 N           5.3473   -4.2890   22.9576 N.am    1  UNL1       -0.2803
      2 C           6.7927   -4.1101   23.3165 C.2     1  UNL1        0.2507
      3 O           7.4532   -2.7767   23.1264 O.2     1  UNL1       -0.2698
      4 H           4.9138   -5.1640   23.0824 H       1  UNL1        0.1552
      5 C           2.9927   -0.8258   21.3106 C.ar    1  UNL1        0.0480
      6 C           3.2686   -0.9128   22.7825 C.ar    1  UNL1        0.0158
      7 C           4.0535   -2.0672   23.3315 C.ar    1  UNL1        0.0159
      8 C           4.5624   -3.1346   22.4086 C.ar    1  UNL1        0.0506
      9 C           4.2865   -3.0476   20.9368 C.ar    1  UNL1        0.0159
     10 C           3.5016   -1.8932   20.3878 C.ar    1  UNL1        0.0158
     11 N           0.6380    2.6373   19.6637 N.3     1  UNL1       -0.2660
     12 C           0.9061    1.4367   18.8053 C.3     1  UNL1        0.0941
     13 C           1.6909    0.2824   19.3543 C.3     1  UNL1        0.1081
     14 N           2.2078    0.3285   20.7616 N.pl3   1  UNL1       -0.3046
     15 C           1.9398    1.5290   21.6201 C.3     1  UNL1        0.1081
     16 C           1.1549    2.6835   21.0711 C.3     1  UNL1        0.0941
     17 C          -0.1468    3.7917   19.1148 C.3     1  UNL1        0.0993
     18 C          -4.6448    3.7065   19.2185 C.ar    1  UNL1        0.1724
     19 C          -3.9324    4.2304   18.0069 C.ar    1  UNL1        0.0398
     20 C          -2.4331    4.2588   17.9724 C.ar    1  UNL1        0.0004
     21 C          -1.6462    3.7633   19.1494 C.ar    1  UNL1       -0.0029
     22 C          -2.3587    3.2394   20.3609 C.ar    1  UNL1        0.0371
     23 C          -3.8580    3.2110   20.3955 C.ar    1  UNL1        0.1721
     24 C          -6.9001    4.7882   19.9211 C.3     1  UNL1        0.2526
     25 O          -6.1442    3.6781   19.2531 O.3     1  UNL1       -0.4684
     26 O          -4.5705    2.6871   21.6071 O.3     1  UNL1       -0.4684
     27 C          -4.6744    3.5340   22.8407 C.3     1  UNL1        0.2526
     28 C           7.5776   -5.2644   23.8655 C.ar    1  UNL1        0.0671
     29 C           8.4478   -6.0799   22.9558 C.ar    1  UNL1        0.0058
     30 C           9.2328   -7.2343   23.5048 C.ar    1  UNL1        0.0002
     31 C           9.1475   -7.5731   24.9636 C.ar    1  UNL1        0.0013
     32 C           8.2773   -6.7574   25.8733 C.ar    1  UNL1        0.0148
     33 C           7.4924   -5.6031   25.3243 C.ar    1  UNL1        0.0549
     34 N           6.6222   -4.7876   26.2340 N.am    1  UNL1       -0.2802
     35 C           7.1612   -3.5390   26.8668 C.2     1  UNL1        0.2510
     36 O           8.5703   -3.1059   26.5899 O.2     1  UNL1       -0.2698
     37 H           5.6973   -5.0718   26.4158 H       1  UNL1        0.1552
     38 C           6.2909   -2.7234   27.7766 C.ar    1  UNL1        0.0728
     39 C           6.6400   -2.5924   29.2296 C.ar    1  UNL1        0.1033
     40 N           5.7698   -1.7769   30.1393 N.ar    1  UNL1       -0.2437
     41 C           4.5505   -1.0924   29.5962 C.ar    1  UNL1        0.0813
     42 C           3.6804   -0.2769   30.5060 C.ar    1  UNL1        0.0191
     43 C           2.4612    0.4076   29.9628 C.ar    1  UNL1        0.0015
     44 C           2.1122    0.2765   28.5099 C.ar    1  UNL1        0.0001
     45 C           2.9823   -0.5390   27.6001 C.ar    1  UNL1        0.0015
     46 C           4.2015   -1.2234   28.1433 C.ar    1  UNL1        0.0178
     47 C           5.0718   -2.0390   27.2335 C.ar    1  UNL1        0.0076
@<TRIPOS>BOND
     1    24    25    1
     2    25    18    1
     3    18    19   ar
     4    19    20   ar
     5    20    21   ar
     6    21    17    1
     7    17    11    1
     8    11    12    1
     9    12    13    1
    10    13    14    1
    11    14     5    1
    12     5     6   ar
    13     6     7   ar
    14     7     8   ar
    15     8     1    1
    16     1     2   am
    17     2     3    2
    18     2    28    1
    19    28    29   ar
    20    29    30   ar
    21    30    31   ar
    22    31    32   ar
    23    32    33   ar
    24    33    34    1
    25    34    35   am
    26    35    36    2
    27    35    38    1
    28    38    39   ar
    29    39    40   ar
    30    40    41   ar
    31    41    42   ar
    32    42    43   ar
    33    43    44   ar
    34    44    45   ar
    35    45    46   ar
    36    46    47   ar
    37     8     9   ar
    38     9    10   ar
    39    14    15    1
    40    15    16    1
    41    21    22   ar
    42    22    23   ar
    43    23    26    1
    44    26    27    1
    45    23    18   ar
    46    16    11    1
    47    10     5   ar
    48    33    28   ar
    49    47    38   ar
    50    46    41   ar
    51     1     4    1
    52    34    37    1
@<TRIPOS>MOLECULE
*****
 47 52 0 0 0
SMALL
GASTEIGER

@<TRIPOS>ATOM
      1 N           1.6581    1.9435   33.4418 N.am    1  UNL1       -0.2803
      2 C           2.9804    2.2417   34.0840 C.2     1  UNL1        0.2507
      3 O           4.1702    2.5725   33.2324 O.2     1  UNL1       -0.2698
      4 H           0.8772    1.7264   34.0007 H       1  UNL1        0.1552
      5 C           1.2603    2.0411   28.9604 C.ar    1  UNL1        0.0480
      6 C           0.7854    3.2035   29.7811 C.ar    1  UNL1        0.0158
      7 C           0.9180    3.1710   31.2748 C.ar    1  UNL1        0.0159
      8 C           1.5255    1.9760   31.9480 C.ar    1  UNL1        0.0506
      9 C           2.0003    0.8136   31.1274 C.ar    1  UNL1        0.0159
     10 C           1.8677    0.8462   29.6336 C.ar    1  UNL1        0.0158
     11 N           0.8624    2.1389   24.4791 N.3     1  UNL1       -0.2660
     12 C           1.9600    2.9090   25.1516 C.3     1  UNL1        0.0941
     13 C           2.0927    2.8764   26.6454 C.3     1  UNL1        0.1081
     14 N           1.1277    2.0737   27.4667 N.pl3   1  UNL1       -0.3046
     15 C           0.0300    1.3037   26.7942 C.3     1  UNL1        0.1081
     16 C          -0.1026    1.3362   25.3004 C.3     1  UNL1        0.0941
     17 C           0.7298    2.1715   22.9854 C.3     1  UNL1        0.0993
     18 C           2.3512   -1.2173   20.5080 C.ar    1  UNL1        0.1724
     19 C           1.0763   -0.5372   20.1056 C.ar    1  UNL1        0.0398
     20 C           0.5358    0.5924   20.9314 C.ar    1  UNL1        0.0004
     21 C           1.2703    1.0418   22.1596 C.ar    1  UNL1       -0.0029
     22 C           2.5452    0.3618   22.5620 C.ar    1  UNL1        0.0371
     23 C           3.0857   -0.7678   21.7362 C.ar    1  UNL1        0.1721
     24 C           3.9252   -2.0782   18.6287 C.3     1  UNL1        0.2526
     25 O           2.8917   -2.3469   19.6822 O.3     1  UNL1       -0.4684
     26 O           4.3607   -1.4479   22.1386 O.3     1  UNL1       -0.4684
     27 C           4.3138   -2.7296   22.9166 C.3     1  UNL1        0.2526
     28 C           3.1130    2.2092   35.5778 C.ar    1  UNL1        0.0671
     29 C           2.3648    3.2004   36.4189 C.ar    1  UNL1        0.0058
     30 C           2.4974    3.1679   37.9127 C.ar    1  UNL1        0.0002
     31 C           3.3783    2.1441   38.5653 C.ar    1  UNL1        0.0013
     32 C           4.1266    1.1529   37.7241 C.ar    1  UNL1        0.0148
     33 C           3.9939    1.1854   36.2304 C.ar    1  UNL1        0.0549
     34 N           4.7422    0.1942   35.3893 N.am    1  UNL1       -0.2802
     35 C           6.1728    0.4528   35.0197 C.2     1  UNL1        0.2510
     36 O           6.8551    1.7026   35.4911 O.2     1  UNL1       -0.2698
     37 H           4.2944   -0.6261   35.0798 H       1  UNL1        0.1552
     38 C           6.9211   -0.5385   34.1785 C.ar    1  UNL1        0.0728
     39 C           8.4207   -0.5603   34.2008 C.ar    1  UNL1        0.1033
     40 N           9.1690   -1.5515   33.3597 N.ar    1  UNL1       -0.2437
     41 C           8.4176   -2.5210   32.4962 C.ar    1  UNL1        0.0813
     42 C           9.1659   -3.5123   31.6552 C.ar    1  UNL1        0.0191
     43 C           8.4145   -4.4818   30.7918 C.ar    1  UNL1        0.0015
     44 C           6.9148   -4.4600   30.7695 C.ar    1  UNL1        0.0001
     45 C           6.1665   -3.4688   31.6106 C.ar    1  UNL1        0.0015
     46 C           6.9179   -2.4993   32.4740 C.ar    1  UNL1        0.0178
     47 C           6.1697   -1.5080   33.3151 C.ar    1  UNL1        0.0076
@<TRIPOS>BOND
     1    24    25    1
     2    25    18    1
     3    18    19   ar
     4    19    20   ar
     5    20    21   ar
     6    21    17    1
     7    17    11    1
     8    11    12    1
     9    12    13    1
    10    13    14    1
    11    14     5    1
    12     5     6   ar
    13     6     7   ar
    14     7     8   ar
    15     8     1    1
    16     1     2   am
    17     2     3    2
    18     2    28    1
    19    28    29   ar
    20    29    30   ar
    21    30    31   ar
    22    31    32   ar
    23    32    33   ar
    24    33    34    1
    25    34    35   am
    26    35    36    2
    27    35    38    1
    28    38    39   ar
    29    39    40   ar
    30    40    41   ar
    31    41    42   ar
    32    42    43   ar
    33    43    44   ar
    34    44    45   ar
    35    45    46   ar
    36    46    47   ar
    37     8     9   ar
    38     9    10   ar
    39    14    15    1
    40    15    16    1
    41    21    22   ar
    42    22    23   ar
    43    23    26    1
    44    26    27    1
    45    23    18   ar
    46    16    11    1
    47    10     5   ar
    48    33    28   ar
    49    47    38   ar
    50    46    41   ar
    51     1     4    1
    52    34    37    1
@<TRIPOS>MOLECULE
*****
 47 52 0 0 0
SMALL
GASTEIGER

@<TRIPOS>ATOM
      1 N          -1.8563    3.0285   24.8949 N.am    1  UNL1       -0.2803
      2 C          -1.3265    3.5360   23.5865 C.2     1  UNL1        0.2507
      3 O           0.1537    3.6297   23.3624 O.2     1  UNL1       -0.2698
      4 H          -2.8277    2.9669   25.0420 H       1  UNL1        0.1552
      5 C           0.9952    1.7874   28.1476 C.ar    1  UNL1        0.0480
      6 C           0.2300    3.0718   28.2707 C.ar    1  UNL1        0.0158
      7 C          -0.7204    3.4854   27.1865 C.ar    1  UNL1        0.0159
      8 C          -0.9058    2.6148   25.9791 C.ar    1  UNL1        0.0506
      9 C          -0.1407    1.3305   25.8560 C.ar    1  UNL1        0.0159
     10 C           0.8098    0.9168   26.9402 C.ar    1  UNL1        0.0158
     11 N           3.8465    0.5464   31.4002 N.3     1  UNL1       -0.2660
     12 C           3.9721    1.9016   30.7695 C.3     1  UNL1        0.0941
     13 C           3.0217    2.3153   29.6853 C.3     1  UNL1        0.1081
     14 N           1.9456    1.3738   29.2318 N.pl3   1  UNL1       -0.3046
     15 C           1.8200    0.0186   29.8624 C.3     1  UNL1        0.1081
     16 C           2.7704   -0.3951   30.9467 C.3     1  UNL1        0.0941
     17 C           4.7969    0.1328   32.4844 C.3     1  UNL1        0.0993
     18 C           3.8007    0.9733   36.7915 C.ar    1  UNL1        0.1724
     19 C           4.7737   -0.1145   36.4453 C.ar    1  UNL1        0.0398
     20 C           5.1057   -0.3946   35.0096 C.ar    1  UNL1        0.0004
     21 C           4.4648    0.4130   33.9201 C.ar    1  UNL1       -0.0029
     22 C           3.4918    1.5008   34.2663 C.ar    1  UNL1        0.0371
     23 C           3.1597    1.7810   35.7020 C.ar    1  UNL1        0.1721
     24 C           2.1372    0.8428   38.7830 C.3     1  UNL1        0.2526
     25 O           3.4685    1.2536   38.2272 O.3     1  UNL1       -0.4684
     26 O           2.1867    2.8688   36.0482 O.3     1  UNL1       -0.4684
     27 C           2.6882    4.2298   36.4306 C.3     1  UNL1        0.2526
     28 C          -2.2769    3.9497   22.5023 C.ar    1  UNL1        0.0671
     29 C          -3.2765    5.0388   22.7566 C.ar    1  UNL1        0.0058
     30 C          -4.2269    5.4525   21.6723 C.ar    1  UNL1        0.0002
     31 C          -4.1778    4.7771   20.3339 C.ar    1  UNL1        0.0013
     32 C          -3.1782    3.6879   20.0797 C.ar    1  UNL1        0.0148
     33 C          -2.2278    3.2742   21.1639 C.ar    1  UNL1        0.0549
     34 N          -1.2282    2.1851   20.9097 N.am    1  UNL1       -0.2802
     35 C          -0.0022    2.4680   20.0930 C.2     1  UNL1        0.2510
     36 O           0.2242    3.8399   19.5305 O.2     1  UNL1       -0.2698
     37 H          -1.3768    1.2846   21.2788 H       1  UNL1        0.1552
     38 C           0.9973    1.3788   19.8388 C.ar    1  UNL1        0.0728
     39 C           1.4344    1.0743   18.4365 C.ar    1  UNL1        0.1033
     40 N           2.4340   -0.0148   18.1823 N.ar    1  UNL1       -0.2437
     41 C           2.9964   -0.7996   19.3303 C.ar    1  UNL1        0.0813
     42 C           3.9959   -1.8887   19.0760 C.ar    1  UNL1        0.0191
     43 C           4.5583   -2.6734   20.2240 C.ar    1  UNL1        0.0015
     44 C           4.1212   -2.3690   21.6262 C.ar    1  UNL1        0.0001
     45 C           3.1217   -1.2799   21.8805 C.ar    1  UNL1        0.0015
     46 C           2.5593   -0.4952   20.7325 C.ar    1  UNL1        0.0178
     47 C           1.5597    0.5941   20.9867 C.ar    1  UNL1        0.0076
@<TRIPOS>BOND
     1    24    25    1
     2    25    18    1
     3    18    19   ar
     4    19    20   ar
     5    20    21   ar
     6    21    17    1
     7    17    11    1
     8    11    12    1
     9    12    13    1
    10    13    14    1
    11    14     5    1
    12     5     6   ar
    13     6     7   ar
    14     7     8   ar
    15     8     1    1
    16     1     2   am
    17     2     3    2
    18     2    28    1
    19    28    29   ar
    20    29    30   ar
    21    30    31   ar
    22    31    32   ar
    23    32    33   ar
    24    33    34    1
    25    34    35   am
    26    35    36    2
    27    35    38    1
    28    38    39   ar
    29    39    40   ar
    30    40    41   ar
    31    41    42   ar
    32    42    43   ar
    33    43    44   ar
    34    44    45   ar
    35    45    46   ar
    36    46    47   ar
    37     8     9   ar
    38     9    10   ar
    39    14    15    1
    40    15    16    1
    41    21    22   ar
    42    22    23   ar
    43    23    26    1
    44    26    27    1
    45    23    18   ar
    46    16    11    1
    47    10     5   ar
    48    33    28   ar
    49    47    38   ar
    50    46    41   ar
    51     1     4    1
    52    34    37    1
@<TRIPOS>MOLECULE
*****
 47 52 0 0 0
SMALL
GASTEIGER

@<TRIPOS>ATOM
      1 N           2.8200    0.2661   32.2912 N.am    1  UNL1       -0.2803
      2 C           3.8866    1.1015   32.9349 C.2     1  UNL1        0.2507
      3 O           4.6024    2.1500   32.1359 O.2     1  UNL1       -0.2698
      4 H           2.3503   -0.4221   32.8156 H       1  UNL1        0.1552
      5 C           1.7673    0.9053   27.9630 C.ar    1  UNL1        0.0480
      6 C           1.1639    1.7830   29.0192 C.ar    1  UNL1        0.0158
      7 C           1.5148    1.5699   30.4619 C.ar    1  UNL1        0.0159
      8 C           2.4691    0.4791   30.8484 C.ar    1  UNL1        0.0506
      9 C           3.0726   -0.3985   29.7923 C.ar    1  UNL1        0.0159
     10 C           2.7217   -0.1855   28.3495 C.ar    1  UNL1        0.0158
     11 N           0.7146    1.5446   23.6348 N.3     1  UNL1       -0.2660
     12 C           2.0287    0.9220   24.0030 C.3     1  UNL1        0.0941
     13 C           2.3797    0.7089   25.4457 C.3     1  UNL1        0.1081
     14 N           1.4164    1.1183   26.5203 N.pl3   1  UNL1       -0.3046
     15 C           0.1023    1.7408   26.1521 C.3     1  UNL1        0.1081
     16 C          -0.2486    1.9540   24.7093 C.3     1  UNL1        0.0941
     17 C           0.3637    1.7576   22.1921 C.3     1  UNL1        0.0993
     18 C           2.8976   -0.0883   18.9638 C.ar    1  UNL1        0.1724
     19 C           1.9096   -0.9304   19.7153 C.ar    1  UNL1        0.0398
     20 C           1.0650   -0.3151   20.7914 C.ar    1  UNL1        0.0004
     21 C           1.2083    1.1423   21.1160 C.ar    1  UNL1       -0.0029
     22 C           2.1963    1.9844   20.3645 C.ar    1  UNL1        0.0371
     23 C           3.0409    1.3691   19.2884 C.ar    1  UNL1        0.1721
     24 C           4.4714   -1.9881   18.1491 C.3     1  UNL1        0.2526
     25 O           3.7422   -0.7036   17.8877 O.3     1  UNL1       -0.4684
     26 O           4.0289    2.2112   18.5368 O.3     1  UNL1       -0.4684
     27 C           5.4670    2.2395   18.9622 C.3     1  UNL1        0.2526
     28 C           4.2375    0.8885   34.3776 C.ar    1  UNL1        0.0671
     29 C           3.5635    1.7032   35.4416 C.ar    1  UNL1        0.0058
     30 C           3.9144    1.4902   36.8844 C.ar    1  UNL1        0.0002
     31 C           4.9393    0.4625   37.2631 C.ar    1  UNL1        0.0013
     32 C           5.6134   -0.3522   36.1991 C.ar    1  UNL1        0.0148
     33 C           5.2625   -0.1392   34.7564 C.ar    1  UNL1        0.0549
     34 N           5.9364   -0.9538   33.6925 N.am    1  UNL1       -0.2802
     35 C           5.2329   -2.1361   33.0947 C.2     1  UNL1        0.2510
     36 O           3.8554   -2.5037   33.5608 O.2     1  UNL1       -0.2698
     37 H           6.8406   -0.7126   33.3865 H       1  UNL1        0.1552
     38 C           5.9070   -2.9507   32.0307 C.ar    1  UNL1        0.0728
     39 C           6.4139   -4.3264   32.3478 C.ar    1  UNL1        0.1033
     40 N           7.0880   -5.1411   31.2839 N.ar    1  UNL1       -0.2437
     41 C           7.2551   -4.5801   29.9028 C.ar    1  UNL1        0.0813
     42 C           7.9292   -5.3948   28.8389 C.ar    1  UNL1        0.0191
     43 C           8.0963   -4.8337   27.4578 C.ar    1  UNL1        0.0015
     44 C           7.5894   -3.4581   27.1407 C.ar    1  UNL1        0.0001
     45 C           6.9154   -2.6434   28.2046 C.ar    1  UNL1        0.0015
     46 C           6.7482   -3.2044   29.5856 C.ar    1  UNL1        0.0178
     47 C           6.0742   -2.3897   30.6496 C.ar    1  UNL1        0.0076
@<TRIPOS>BOND
     1    24    25    1
     2    25    18    1
     3    18    19   ar
     4    19    20   ar
     5    20    21   ar
     6    21    17    1
     7    17    11    1
     8    11    12    1
     9    12    13    1
    10    13    14    1
    11    14     5    1
    12     5     6   ar
    13     6     7   ar
    14     7     8   ar
    15     8     1    1
    16     1     2   am
    17     2     3    2
    18     2    28    1
    19    28    29   ar
    20    29    30   ar
    21    30    31   ar
    22    31    32   ar
    23    32    33   ar
    24    33    34    1
    25    34    35   am
    26    35    36    2
    27    35    38    1
    28    38    39   ar
    29    39    40   ar
    30    40    41   ar
    31    41    42   ar
    32    42    43   ar
    33    43    44   ar
    34    44    45   ar
    35    45    46   ar
    36    46    47   ar
    37     8     9   ar
    38     9    10   ar
    39    14    15    1
    40    15    16    1
    41    21    22   ar
    42    22    23   ar
    43    23    26    1
    44    26    27    1
    45    23    18   ar
    46    16    11    1
    47    10     5   ar
    48    33    28   ar
    49    47    38   ar
    50    46    41   ar
    51     1     4    1
    52    34    37    1
@<TRIPOS>MOLECULE
*****
 47 52 0 0 0
SMALL
GASTEIGER

@<TRIPOS>ATOM
      1 N          -2.1432    3.2830   24.4121 N.am    1  UNL1       -0.2803
      2 C          -1.5264    3.7971   23.1451 C.2     1  UNL1        0.2507
      3 O          -0.0339    3.8382   23.0004 O.2     1  UNL1       -0.2698
      4 H          -3.1227    3.2560   24.5071 H       1  UNL1        0.1552
      5 C           0.4839    1.8641   27.7790 C.ar    1  UNL1        0.0480
      6 C          -0.3741    3.0814   27.9589 C.ar    1  UNL1        0.0158
      7 C          -1.2497    3.5543   26.8366 C.ar    1  UNL1        0.0159
      8 C          -1.2675    2.8100   25.5344 C.ar    1  UNL1        0.0506
      9 C          -0.4095    1.5929   25.3544 C.ar    1  UNL1        0.0159
     10 C           0.4662    1.1199   26.4767 C.ar    1  UNL1        0.0158
     11 N           3.1109    0.4453   31.1458 N.3     1  UNL1       -0.2660
     12 C           2.9383    1.9145   30.8971 C.3     1  UNL1        0.0941
     13 C           2.0627    2.3874   29.7748 C.3     1  UNL1        0.1081
     14 N           1.3596    1.3912   28.9012 N.pl3   1  UNL1       -0.3046
     15 C           1.5321   -0.0779   29.1499 C.3     1  UNL1        0.1081
     16 C           2.4078   -0.5509   30.2722 C.3     1  UNL1        0.0941
     17 C           3.9866   -0.0276   32.2681 C.3     1  UNL1        0.0993
     18 C           6.7984   -3.4817   31.6259 C.ar    1  UNL1        0.1724
     19 C           5.7878   -3.5332   32.7332 C.ar    1  UNL1        0.0398
     20 C           4.8506   -2.3818   32.9472 C.ar    1  UNL1        0.0004
     21 C           4.9239   -1.1790   32.0540 C.ar    1  UNL1       -0.0029
     22 C           5.9345   -1.1275   30.9468 C.ar    1  UNL1        0.0371
     23 C           6.8717   -2.2789   30.7327 C.ar    1  UNL1        0.1721
     24 C           7.3202   -5.7882   30.5499 C.3     1  UNL1        0.2526
     25 O           7.7358   -4.6331   31.4118 O.3     1  UNL1       -0.4684
     26 O           7.8824   -2.2275   29.6254 O.3     1  UNL1       -0.4684
     27 C           7.4997   -2.6571   28.2402 C.3     1  UNL1        0.2526
     28 C          -2.4020    4.2700   22.0228 C.ar    1  UNL1        0.0671
     29 C          -3.3186    5.4395   22.2284 C.ar    1  UNL1        0.0058
     30 C          -4.1943    5.9125   21.1061 C.ar    1  UNL1        0.0002
     31 C          -4.1533    5.2160   19.7782 C.ar    1  UNL1        0.0013
     32 C          -3.2367    4.0465   19.5727 C.ar    1  UNL1        0.0148
     33 C          -2.3611    3.5736   20.6949 C.ar    1  UNL1        0.0549
     34 N          -1.4446    2.4041   20.4893 N.am    1  UNL1       -0.2802
     35 C          -0.0912    2.6106   19.8765 C.2     1  UNL1        0.2510
     36 O           0.3457    3.9865   19.4692 O.2     1  UNL1       -0.2698
     37 H          -1.7313    1.5010   20.7566 H       1  UNL1        0.1552
     38 C           0.8254    1.4411   19.6709 C.ar    1  UNL1        0.0728
     39 C           0.5402    0.1358   20.3527 C.ar    1  UNL1        0.1033
     40 N           1.4567   -1.0337   20.1471 N.ar    1  UNL1       -0.2437
     41 C           2.6584   -0.8980   19.2597 C.ar    1  UNL1        0.0813
     42 C           3.5749   -2.0675   19.0542 C.ar    1  UNL1        0.0191
     43 C           4.7766   -1.9317   18.1668 C.ar    1  UNL1        0.0015
     44 C           5.0618   -0.6264   17.4850 C.ar    1  UNL1        0.0001
     45 C           4.1453    0.5431   17.6905 C.ar    1  UNL1        0.0015
     46 C           2.9436    0.4073   18.5779 C.ar    1  UNL1        0.0178
     47 C           2.0271    1.5769   18.7835 C.ar    1  UNL1        0.0076
@<TRIPOS>BOND
     1    24    25    1
     2    25    18    1
     3    18    19   ar
     4    19    20   ar
     5    20    21   ar
     6    21    17    1
     7    17    11    1
     8    11    12    1
     9    12    13    1
    10    13    14    1
    11    14     5    1
    12     5     6   ar
    13     6     7   ar
    14     7     8   ar
    15     8     1    1
    16     1     2   am
    17     2     3    2
    18     2    28    1
    19    28    29   ar
    20    29    30   ar
    21    30    31   ar
    22    31    32   ar
    23    32    33   ar
    24    33    34    1
    25    34    35   am
    26    35    36    2
    27    35    38    1
    28    38    39   ar
    29    39    40   ar
    30    40    41   ar
    31    41    42   ar
    32    42    43   ar
    33    43    44   ar
    34    44    45   ar
    35    45    46   ar
    36    46    47   ar
    37     8     9   ar
    38     9    10   ar
    39    14    15    1
    40    15    16    1
    41    21    22   ar
    42    22    23   ar
    43    23    26    1
    44    26    27    1
    45    23    18   ar
    46    16    11    1
    47    10     5   ar
    48    33    28   ar
    49    47    38   ar
    50    46    41   ar
    51     1     4    1
    52    34    37    1
