@<TRIPOS>MOLECULE
*****
 23 25 0 0 0
SMALL
GASTEIGER

@<TRIPOS>ATOM
      1 C          -8.6195  -17.0195   22.6108 C.ar    1  UNL1       -0.0159
      2 C          -7.9858  -18.3260   22.2348 C.ar    1  UNL1        0.0050
      3 S          -9.0765  -19.2664   21.8154 S.2     1  UNL1       -0.0915
      4 C         -10.3843  -18.5411   21.9323 C.ar    1  UNL1        0.0288
      5 C         -11.7959  -18.9658   21.6546 C.ar    1  UNL1        0.0065
      6 C         -12.9249  -18.0017   21.8685 C.ar    1  UNL1        0.0005
      7 C         -12.6424  -16.6130   22.3601 C.ar    1  UNL1        0.0000
      8 C         -11.2309  -16.1884   22.6378 C.ar    1  UNL1        0.0002
      9 C         -10.1018  -17.1524   22.4239 C.ar    1  UNL1        0.0025
     10 C          -7.8975  -15.7950   23.0897 C.3     1  UNL1        0.0459
     11 C          -7.5571  -14.6990   22.1236 C.3     1  UNL1        0.0094
     12 C          -5.0038  -15.6769   23.8722 C.3     1  UNL1        0.0518
     13 C          -6.0691  -15.6072   24.9259 C.ar    1  UNL1        0.0557
     14 N          -5.6876  -15.4784   26.3708 N.ar    1  UNL1       -0.2484
     15 C          -6.7529  -15.4087   27.4245 C.ar    1  UNL1        0.0984
     16 C          -8.1998  -15.4677   27.0333 C.ar    1  UNL1        0.0203
     17 C          -8.5813  -15.5965   25.5883 C.ar    1  UNL1       -0.0012
     18 C          -7.5160  -15.6662   24.5346 C.ar    1  UNL1       -0.0048
     19 C          -6.5189  -18.6375   22.2716 C.3     1  UNL1        0.0499
     20 C          -5.8195  -19.1025   21.0288 C.3     1  UNL1        0.0774
     21 N          -4.3512  -18.8495   20.8553 N.3     1  UNL1       -0.2700
     22 C          -3.7574  -18.7933   19.4789 C.3     1  UNL1        0.0897
     23 C          -3.4768  -18.6528   22.0580 C.3     1  UNL1        0.0897
@<TRIPOS>BOND
     1    12    13    1
     2    13    14   ar
     3    14    15   ar
     4    15    16   ar
     5    16    17   ar
     6    17    18   ar
     7    18    10    1
     8    10    11    1
     9    10     1    1
    10     1     2   ar
    11     2    19    1
    12    19    20    1
    13    20    21    1
    14    21    22    1
    15    21    23    1
    16     2     3   ar
    17     3     4   ar
    18     4     5   ar
    19     5     6   ar
    20     6     7   ar
    21     7     8   ar
    22     8     9   ar
    23    18    13   ar
    24     9     1   ar
    25     9     4   ar
@<TRIPOS>MOLECULE
*****
 23 25 0 0 0
SMALL
GASTEIGER

@<TRIPOS>ATOM
      1 C          -8.0357  -18.5340   22.5148 C.ar    1  UNL1       -0.0159
      2 C          -7.4489  -17.3569   23.2359 C.ar    1  UNL1        0.0050
      3 S          -5.9741  -17.3341   22.9628 S.2     1  UNL1       -0.0915
      4 C          -5.6495  -18.4971   22.0728 C.ar    1  UNL1        0.0288
      5 C          -4.3583  -18.9767   21.4788 C.ar    1  UNL1        0.0065
      6 C          -4.3413  -20.1979   20.6080 C.ar    1  UNL1        0.0005
      7 C          -5.6155  -20.9394   20.3311 C.ar    1  UNL1        0.0000
      8 C          -6.9066  -20.4598   20.9251 C.ar    1  UNL1        0.0002
      9 C          -6.9236  -19.2387   21.7960 C.ar    1  UNL1        0.0025
     10 C          -9.4808  -18.9358   22.5128 C.3     1  UNL1        0.0459
     11 C          -9.9027  -20.2215   23.1603 C.3     1  UNL1        0.0094
     12 C         -10.0569  -19.2109   19.5815 C.3     1  UNL1        0.0518
     13 C         -10.7922  -18.1897   20.3978 C.ar    1  UNL1        0.0557
     14 N         -11.8156  -17.3059   19.7484 N.ar    1  UNL1       -0.2484
     15 C         -12.5510  -16.2846   20.5646 C.ar    1  UNL1        0.0984
     16 C         -12.2629  -16.1471   22.0303 C.ar    1  UNL1        0.0203
     17 C         -11.2396  -17.0308   22.6796 C.ar    1  UNL1       -0.0012
     18 C         -10.5042  -18.0521   21.8634 C.ar    1  UNL1       -0.0048
     19 C          -8.2041  -16.3749   24.0817 C.3     1  UNL1        0.0499
     20 C          -7.4890  -15.2084   24.6962 C.3     1  UNL1        0.0774
     21 N          -6.8027  -15.3625   26.0210 N.3     1  UNL1       -0.2700
     22 C          -7.6113  -15.6067   27.2606 C.3     1  UNL1        0.0897
     23 C          -5.3079  -15.2726   26.1063 C.3     1  UNL1        0.0897
@<TRIPOS>BOND
     1    12    13    1
     2    13    14   ar
     3    14    15   ar
     4    15    16   ar
     5    16    17   ar
     6    17    18   ar
     7    18    10    1
     8    10    11    1
     9    10     1    1
    10     1     2   ar
    11     2    19    1
    12    19    20    1
    13    20    21    1
    14    21    22    1
    15    21    23    1
    16     2     3   ar
    17     3     4   ar
    18     4     5   ar
    19     5     6   ar
    20     6     7   ar
    21     7     8   ar
    22     8     9   ar
    23    18    13   ar
    24     9     1   ar
    25     9     4   ar
@<TRIPOS>MOLECULE
*****
 23 25 0 0 0
SMALL
GASTEIGER

@<TRIPOS>ATOM
      1 C          -6.6394  -17.8142   22.6425 C.ar    1  UNL1       -0.0159
      2 C          -7.2773  -19.0787   22.1483 C.ar    1  UNL1        0.0050
      3 S          -6.1835  -20.0236   21.7474 S.2     1  UNL1       -0.0915
      4 C          -4.8696  -19.3431   21.9938 C.ar    1  UNL1        0.0288
      5 C          -3.4531  -19.7905   21.7859 C.ar    1  UNL1        0.0065
      6 C          -2.3183  -18.8724   22.1312 C.ar    1  UNL1        0.0005
      7 C          -2.6001  -17.5069   22.6844 C.ar    1  UNL1        0.0000
      8 C          -4.0166  -17.0595   22.8923 C.ar    1  UNL1        0.0002
      9 C          -5.1514  -17.9776   22.5470 C.ar    1  UNL1        0.0025
     10 C          -7.3625  -16.5995   23.1441 C.3     1  UNL1        0.0459
     11 C          -8.1621  -15.7572   22.1947 C.3     1  UNL1        0.0094
     12 C          -9.5454  -17.4361   25.0244 C.3     1  UNL1        0.0518
     13 C          -8.3776  -16.6453   25.5352 C.ar    1  UNL1        0.0557
     14 N          -8.3012  -16.2728   26.9862 N.ar    1  UNL1       -0.2484
     15 C          -7.1334  -15.4821   27.4971 C.ar    1  UNL1        0.0984
     16 C          -6.0420  -15.0638   26.5570 C.ar    1  UNL1        0.0203
     17 C          -6.1184  -15.4363   25.1060 C.ar    1  UNL1       -0.0012
     18 C          -7.2862  -16.2271   24.5951 C.ar    1  UNL1       -0.0048
     19 C          -8.7503  -19.3505   22.0690 C.3     1  UNL1        0.0499
     20 C          -9.5189  -18.9655   20.8398 C.3     1  UNL1        0.0774
     21 N         -10.8232  -18.2359   20.9686 N.3     1  UNL1       -0.2700
     22 C         -11.7171  -18.4995   22.1441 C.3     1  UNL1        0.0897
     23 C         -11.2337  -17.2429   19.9220 C.3     1  UNL1        0.0897
@<TRIPOS>BOND
     1    12    13    1
     2    13    14   ar
     3    14    15   ar
     4    15    16   ar
     5    16    17   ar
     6    17    18   ar
     7    18    10    1
     8    10    11    1
     9    10     1    1
    10     1     2   ar
    11     2    19    1
    12    19    20    1
    13    20    21    1
    14    21    22    1
    15    21    23    1
    16     2     3   ar
    17     3     4   ar
    18     4     5   ar
    19     5     6   ar
    20     6     7   ar
    21     7     8   ar
    22     8     9   ar
    23    18    13   ar
    24     9     1   ar
    25     9     4   ar
@<TRIPOS>MOLECULE
*****
 23 25 0 0 0
SMALL
GASTEIGER

@<TRIPOS>ATOM
      1 C          -8.0091  -17.9938   22.9666 C.ar    1  UNL1       -0.0159
      2 C          -6.7350  -18.2324   22.2118 C.ar    1  UNL1        0.0050
      3 S          -5.6652  -17.3797   22.8271 S.2     1  UNL1       -0.0915
      4 C          -6.2782  -16.6141   23.9621 C.ar    1  UNL1        0.0288
      5 C          -5.7045  -15.6204   24.9282 C.ar    1  UNL1        0.0065
      6 C          -6.5794  -15.0062   25.9804 C.ar    1  UNL1        0.0005
      7 C          -8.0280  -15.3858   26.0666 C.ar    1  UNL1        0.0000
      8 C          -8.6018  -16.3795   25.1005 C.ar    1  UNL1        0.0002
      9 C          -7.7269  -16.9936   24.0483 C.ar    1  UNL1        0.0025
     10 C          -9.3331  -18.6416   22.6884 C.3     1  UNL1        0.0459
     11 C          -9.5718  -20.0654   23.0960 C.3     1  UNL1        0.0094
     12 C          -9.8689  -19.0716   19.7681 C.3     1  UNL1        0.0518
     13 C         -10.6863  -18.0808   20.5427 C.ar    1  UNL1        0.0557
     14 N         -11.7717  -17.3049   19.8571 N.ar    1  UNL1       -0.2484
     15 C         -12.5892  -16.3141   20.6316 C.ar    1  UNL1        0.0984
     16 C         -12.3214  -16.0990   22.0918 C.ar    1  UNL1        0.0203
     17 C         -11.2360  -16.8749   22.7774 C.ar    1  UNL1       -0.0012
     18 C         -10.4184  -17.8658   22.0028 C.ar    1  UNL1       -0.0048
     19 C          -6.5611  -19.1607   21.0465 C.3     1  UNL1        0.0499
     20 C          -5.3804  -20.0842   20.9930 C.3     1  UNL1        0.0774
     21 N          -4.0195  -19.5438   20.6675 N.3     1  UNL1       -0.2700
     22 C          -2.8778  -19.7666   21.6145 C.3     1  UNL1        0.0897
     23 C          -3.8004  -18.7805   19.3950 C.3     1  UNL1        0.0897
@<TRIPOS>BOND
     1    12    13    1
     2    13    14   ar
     3    14    15   ar
     4    15    16   ar
     5    16    17   ar
     6    17    18   ar
     7    18    10    1
     8    10    11    1
     9    10     1    1
    10     1     2   ar
    11     2    19    1
    12    19    20    1
    13    20    21    1
    14    21    22    1
    15    21    23    1
    16     2     3   ar
    17     3     4   ar
    18     4     5   ar
    19     5     6   ar
    20     6     7   ar
    21     7     8   ar
    22     8     9   ar
    23    18    13   ar
    24     9     1   ar
    25     9     4   ar
@<TRIPOS>MOLECULE
*****
 23 25 0 0 0
SMALL
GASTEIGER

@<TRIPOS>ATOM
      1 C          -7.8540  -17.6272   22.8708 C.ar    1  UNL1       -0.0159
      2 C          -9.0494  -18.5136   23.0590 C.ar    1  UNL1        0.0050
      3 S          -8.7122  -19.8688   22.5117 S.2     1  UNL1       -0.0915
      4 C          -7.3084  -19.8201   21.9852 C.ar    1  UNL1        0.0288
      5 C          -6.4447  -20.8582   21.3324 C.ar    1  UNL1        0.0065
      6 C          -5.0506  -20.5109   20.9016 C.ar    1  UNL1        0.0005
      7 C          -4.5202  -19.1254   21.1235 C.ar    1  UNL1        0.0000
      8 C          -5.3839  -18.0873   21.7763 C.ar    1  UNL1        0.0002
      9 C          -6.7781  -18.4346   22.2072 C.ar    1  UNL1        0.0025
     10 C          -7.7524  -16.1863   23.2753 C.3     1  UNL1        0.0459
     11 C          -7.9744  -15.1048   22.2597 C.3     1  UNL1        0.0094
     12 C          -4.9323  -15.5143   24.0471 C.3     1  UNL1        0.0518
     13 C          -6.0188  -15.4909   25.0810 C.ar    1  UNL1        0.0557
     14 N          -5.6952  -15.1314   26.5009 N.ar    1  UNL1       -0.2484
     15 C          -6.7816  -15.1079   27.5349 C.ar    1  UNL1        0.0984
     16 C          -8.1917  -15.4439   27.1490 C.ar    1  UNL1        0.0203
     17 C          -8.5152  -15.8034   25.7291 C.ar    1  UNL1       -0.0012
     18 C          -7.4288  -15.8269   24.6951 C.ar    1  UNL1       -0.0048
     19 C         -10.3530  -18.1148   23.6847 C.3     1  UNL1        0.0499
     20 C         -11.2040  -17.0621   23.0385 C.3     1  UNL1        0.0774
     21 N         -11.4905  -17.1279   21.5676 N.3     1  UNL1       -0.2700
     22 C         -12.0463  -18.3852   20.9672 C.3     1  UNL1        0.0897
     23 C         -11.2212  -15.9364   20.6970 C.3     1  UNL1        0.0897
@<TRIPOS>BOND
     1    12    13    1
     2    13    14   ar
     3    14    15   ar
     4    15    16   ar
     5    16    17   ar
     6    17    18   ar
     7    18    10    1
     8    10    11    1
     9    10     1    1
    10     1     2   ar
    11     2    19    1
    12    19    20    1
    13    20    21    1
    14    21    22    1
    15    21    23    1
    16     2     3   ar
    17     3     4   ar
    18     4     5   ar
    19     5     6   ar
    20     6     7   ar
    21     7     8   ar
    22     8     9   ar
    23    18    13   ar
    24     9     1   ar
    25     9     4   ar
@<TRIPOS>MOLECULE
*****
 23 25 0 0 0
SMALL
GASTEIGER

@<TRIPOS>ATOM
      1 C          -7.6258  -18.5409   21.7280 C.ar    1  UNL1       -0.0159
      2 C          -7.2429  -17.4536   22.6878 C.ar    1  UNL1        0.0050
      3 S          -5.7528  -17.4879   22.8564 S.2     1  UNL1       -0.0915
      4 C          -5.2148  -18.5963   22.0008 C.ar    1  UNL1        0.0288
      5 C          -3.8204  -19.0971   21.7667 C.ar    1  UNL1        0.0065
      6 C          -3.5836  -20.2486   20.8352 C.ar    1  UNL1        0.0005
      7 C          -4.7412  -20.8995   20.1378 C.ar    1  UNL1        0.0000
      8 C          -6.1356  -20.3987   20.3719 C.ar    1  UNL1        0.0002
      9 C          -6.3724  -19.2471   21.3034 C.ar    1  UNL1        0.0025
     10 C          -9.0178  -18.8651   21.2727 C.3     1  UNL1        0.0459
     11 C          -9.2561  -19.3437   19.8711 C.3     1  UNL1        0.0094
     12 C         -11.1284  -16.8005   20.7404 C.3     1  UNL1        0.0518
     13 C         -11.2268  -17.6785   21.9526 C.ar    1  UNL1        0.0557
     14 N         -12.3804  -17.5242   22.8988 N.ar    1  UNL1       -0.2484
     15 C         -12.4789  -18.4021   24.1110 C.ar    1  UNL1        0.0984
     16 C         -11.4236  -19.4344   24.3772 C.ar    1  UNL1        0.0203
     17 C         -10.2699  -19.5887   23.4310 C.ar    1  UNL1       -0.0012
     18 C         -10.1715  -18.7108   22.2187 C.ar    1  UNL1       -0.0048
     19 C          -8.1847  -16.4996   23.3608 C.3     1  UNL1        0.0499
     20 C          -8.4806  -16.6448   24.8241 C.3     1  UNL1        0.0774
     21 N          -7.7298  -15.8194   25.8266 N.3     1  UNL1       -0.2700
     22 C          -6.4548  -15.1353   25.4307 C.3     1  UNL1        0.0897
     23 C          -8.2538  -15.6781   27.2249 C.3     1  UNL1        0.0897
@<TRIPOS>BOND
     1    12    13    1
     2    13    14   ar
     3    14    15   ar
     4    15    16   ar
     5    16    17   ar
     6    17    18   ar
     7    18    10    1
     8    10    11    1
     9    10     1    1
    10     1     2   ar
    11     2    19    1
    12    19    20    1
    13    20    21    1
    14    21    22    1
    15    21    23    1
    16     2     3   ar
    17     3     4   ar
    18     4     5   ar
    19     5     6   ar
    20     6     7   ar
    21     7     8   ar
    22     8     9   ar
    23    18    13   ar
    24     9     1   ar
    25     9     4   ar
@<TRIPOS>MOLECULE
*****
 23 25 0 0 0
SMALL
GASTEIGER

@<TRIPOS>ATOM
      1 C         -13.2857   -4.8362   19.4210 C.ar    1  UNL1       -0.0159
      2 C         -14.3120   -5.9050   19.1879 C.ar    1  UNL1        0.0050
      3 S         -13.6008   -7.1315   18.6982 S.2     1  UNL1       -0.0915
      4 C         -12.1350   -6.8207   18.6286 C.ar    1  UNL1        0.0288
      5 C         -10.9524   -7.6462   18.2162 C.ar    1  UNL1        0.0065
      6 C          -9.5752   -7.0531   18.2505 C.ar    1  UNL1        0.0005
      7 C          -9.3804   -5.6344   18.6972 C.ar    1  UNL1        0.0000
      8 C         -10.5629   -4.8090   19.1096 C.ar    1  UNL1        0.0002
      9 C         -11.9402   -5.4021   19.0753 C.ar    1  UNL1        0.0025
     10 C         -13.5572   -3.4455   19.9133 C.3     1  UNL1        0.0459
     11 C         -14.0141   -3.2255   21.3251 C.3     1  UNL1        0.0094
     12 C         -15.8562   -2.4600   18.2570 C.3     1  UNL1        0.0518
     13 C         -14.5213   -1.7821   18.1659 C.ar    1  UNL1        0.0557
     14 N         -14.3358   -0.6114   17.2466 N.ar    1  UNL1       -0.2484
     15 C         -13.0009    0.0665   17.1554 C.ar    1  UNL1        0.0984
     16 C         -11.8513   -0.4262   17.9835 C.ar    1  UNL1        0.0203
     17 C         -12.0368   -1.5969   18.9028 C.ar    1  UNL1       -0.0012
     18 C         -13.3718   -2.2749   18.9940 C.ar    1  UNL1       -0.0048
     19 C         -15.7899   -5.7708   19.4062 C.3     1  UNL1        0.0499
     20 C         -16.7299   -6.7800   18.8162 C.3     1  UNL1        0.0774
     21 N         -17.3623   -7.8189   19.6941 N.3     1  UNL1       -0.2700
     22 C         -16.5689   -9.0140   20.1328 C.3     1  UNL1        0.0897
     23 C         -18.7881   -7.6629   20.1331 C.3     1  UNL1        0.0897
@<TRIPOS>BOND
     1    12    13    1
     2    13    14   ar
     3    14    15   ar
     4    15    16   ar
     5    16    17   ar
     6    17    18   ar
     7    18    10    1
     8    10    11    1
     9    10     1    1
    10     1     2   ar
    11     2    19    1
    12    19    20    1
    13    20    21    1
    14    21    22    1
    15    21    23    1
    16     2     3   ar
    17     3     4   ar
    18     4     5   ar
    19     5     6   ar
    20     6     7   ar
    21     7     8   ar
    22     8     9   ar
    23    18    13   ar
    24     9     1   ar
    25     9     4   ar
@<TRIPOS>MOLECULE
*****
 23 25 0 0 0
SMALL
GASTEIGER

@<TRIPOS>ATOM
      1 C          -7.9584  -19.2591   21.6226 C.ar    1  UNL1       -0.0159
      2 C          -8.5673  -19.5112   20.2751 C.ar    1  UNL1        0.0050
      3 S          -7.4565  -19.8156   19.3142 S.2     1  UNL1       -0.0915
      4 C          -6.1611  -19.7517   20.0678 C.ar    1  UNL1        0.0288
      5 C          -4.7391  -19.9622   19.6393 C.ar    1  UNL1        0.0065
      6 C          -3.6274  -19.8288   20.6374 C.ar    1  UNL1        0.0005
      7 C          -3.9377  -19.4849   22.0641 C.ar    1  UNL1        0.0000
      8 C          -5.3596  -19.2744   22.4927 C.ar    1  UNL1        0.0002
      9 C          -6.4713  -19.4078   21.4945 C.ar    1  UNL1        0.0025
     10 C          -8.7055  -18.9183   22.8779 C.3     1  UNL1        0.0459
     11 C          -9.6596  -19.9097   23.4755 C.3     1  UNL1        0.0094
     12 C          -9.8507  -18.3958   25.6011 C.3     1  UNL1        0.0518
     13 C          -9.0712  -17.3249   24.8972 C.ar    1  UNL1        0.0557
     14 N          -8.8643  -15.9928   25.5548 N.ar    1  UNL1       -0.2484
     15 C          -8.0848  -14.9218   24.8509 C.ar    1  UNL1        0.0984
     16 C          -7.5122  -15.1830   23.4893 C.ar    1  UNL1        0.0203
     17 C          -7.7192  -16.5152   22.8317 C.ar    1  UNL1       -0.0012
     18 C          -8.4987  -17.5862   23.5356 C.ar    1  UNL1       -0.0048
     19 C         -10.0301  -19.4667   19.9463 C.3     1  UNL1        0.0499
     20 C         -10.7039  -18.1492   19.7009 C.3     1  UNL1        0.0774
     21 N         -11.3030  -17.3883   20.8464 N.3     1  UNL1       -0.2700
     22 C         -12.3195  -18.0448   21.7329 C.3     1  UNL1        0.0897
     23 C         -10.8855  -15.9711   21.1055 C.3     1  UNL1        0.0897
@<TRIPOS>BOND
     1    12    13    1
     2    13    14   ar
     3    14    15   ar
     4    15    16   ar
     5    16    17   ar
     6    17    18   ar
     7    18    10    1
     8    10    11    1
     9    10     1    1
    10     1     2   ar
    11     2    19    1
    12    19    20    1
    13    20    21    1
    14    21    22    1
    15    21    23    1
    16     2     3   ar
    17     3     4   ar
    18     4     5   ar
    19     5     6   ar
    20     6     7   ar
    21     7     8   ar
    22     8     9   ar
    23    18    13   ar
    24     9     1   ar
    25     9     4   ar
@<TRIPOS>MOLECULE
*****
 23 25 0 0 0
SMALL
GASTEIGER

@<TRIPOS>ATOM
      1 C          -7.1287  -18.7509   21.6986 C.ar    1  UNL1       -0.0159
      2 C          -7.8311  -19.3960   20.5408 C.ar    1  UNL1        0.0050
      3 S          -6.8031  -20.1108   19.7150 S.2     1  UNL1       -0.0915
      4 C          -5.4653  -19.9076   20.3624 C.ar    1  UNL1        0.0288
      5 C          -4.0899  -20.3793   19.9939 C.ar    1  UNL1        0.0065
      6 C          -2.9158  -20.0104   20.8514 C.ar    1  UNL1        0.0005
      7 C          -3.1171  -19.1699   22.0774 C.ar    1  UNL1        0.0000
      8 C          -4.4925  -18.6982   22.4459 C.ar    1  UNL1        0.0002
      9 C          -5.6666  -19.0671   21.5884 C.ar    1  UNL1        0.0025
     10 C          -7.7750  -17.9332   22.7774 C.3     1  UNL1        0.0459
     11 C          -7.1496  -16.6423   23.2165 C.3     1  UNL1        0.0094
     12 C         -10.0755  -16.0387   23.1223 C.3     1  UNL1        0.0518
     13 C         -10.1969  -17.4589   23.5895 C.ar    1  UNL1        0.0557
     14 N         -11.4685  -17.9319   24.2291 N.ar    1  UNL1       -0.2484
     15 C         -11.5900  -19.3521   24.6964 C.ar    1  UNL1        0.0984
     16 C         -10.4397  -20.2994   24.5239 C.ar    1  UNL1        0.0203
     17 C          -9.1681  -19.8263   23.8843 C.ar    1  UNL1       -0.0012
     18 C          -9.0466  -18.4061   23.4170 C.ar    1  UNL1       -0.0048
     19 C          -9.3031  -19.3366   20.2585 C.3     1  UNL1        0.0499
     20 C          -9.8930  -18.1224   19.6045 C.3     1  UNL1        0.0774
     21 N         -11.2074  -17.5782   20.0802 N.3     1  UNL1       -0.2700
     22 C         -12.1216  -18.4375   20.9023 C.3     1  UNL1        0.0897
     23 C         -11.6075  -16.1747   19.7338 C.3     1  UNL1        0.0897
@<TRIPOS>BOND
     1    12    13    1
     2    13    14   ar
     3    14    15   ar
     4    15    16   ar
     5    16    17   ar
     6    17    18   ar
     7    18    10    1
     8    10    11    1
     9    10     1    1
    10     1     2   ar
    11     2    19    1
    12    19    20    1
    13    20    21    1
    14    21    22    1
    15    21    23    1
    16     2     3   ar
    17     3     4   ar
    18     4     5   ar
    19     5     6   ar
    20     6     7   ar
    21     7     8   ar
    22     8     9   ar
    23    18    13   ar
    24     9     1   ar
    25     9     4   ar
