@<TRIPOS>MOLECULE
*****
 27 29 0 0 0
SMALL
GASTEIGER

@<TRIPOS>ATOM
      1 C           1.3522    0.0566   19.7775 C.ar    1  UNL1        0.0191
      2 C           1.5280    0.8683   18.5284 C.ar    1  UNL1        0.0063
      3 C           0.7753    2.1545   18.3577 C.ar    1  UNL1        0.0581
      4 C          -0.1532    2.6290   19.4360 C.ar    1  UNL1        0.2297
      5 N          -0.3290    1.8173   20.6850 N.ar    1  UNL1       -0.2098
      6 C           0.4237    0.5311   20.8558 C.ar    1  UNL1        0.1020
      7 C           3.3851   -1.4545   19.1998 C.2     1  UNL1       -0.0069
      8 C           2.1048   -1.2296   19.9483 C.2     1  UNL1       -0.0014
      9 C           4.1377   -2.7408   19.3707 C.3     1  UNL1        0.0939
     10 C           3.4581   -4.0495   19.0963 C.3     1  UNL1        0.0262
     11 C           8.0937   -2.4428   19.2641 C.3     1  UNL1        0.0946
     12 C           6.6615   -2.4653   18.8188 C.2     1  UNL1        0.2232
     13 O           6.3208   -2.2349   17.3762 O.2     1  UNL1       -0.2751
     14 N           5.5699   -2.7183   19.8160 N.am    1  UNL1       -0.3022
     15 H           5.7934   -2.8695   20.7628 H       1  UNL1        0.1497
     16 O          -0.9059    3.9152   19.2652 O.3     1  UNL1       -0.4352
     17 C          -2.3714    3.9741   19.5804 C.ar    1  UNL1        0.1582
     18 C          -2.8278    4.1063   21.0032 C.ar    1  UNL1        0.0464
     19 C          -4.2931    4.1652   21.3183 C.ar    1  UNL1        0.0513
     20 S          -5.0365    4.2928   22.6149 S.2     1  UNL1       -0.0707
     21 C          -6.5049    4.2984   22.3085 C.ar    1  UNL1        0.0886
     22 C          -7.6145    4.4088   23.3119 C.3     1  UNL1        0.0594
     23 N          -6.6690    4.1744   20.8227 N.ar    1  UNL1       -0.2427
     24 C          -5.3020    4.0921   20.2107 C.ar    1  UNL1        0.0885
     25 C          -4.8455    3.9599   18.7880 C.ar    1  UNL1        0.0341
     26 C          -3.3802    3.9010   18.4729 C.ar    1  UNL1        0.0937
     27 CL         -2.9238    3.7688   17.0500 Cl      1  UNL1       -0.0790
@<TRIPOS>BOND
     1    11    12    1
     2    12    13    2
     3    12    14   am
     4    14     9    1
     5     9    10    1
     6     9     7    1
     7     7     8    2
     8     8     1    1
     9     1     2   ar
    10     2     3   ar
    11     3     4   ar
    12     4    16    1
    13    16    17    1
    14    17    18   ar
    15    18    19   ar
    16    19    20   ar
    17    20    21   ar
    18    21    22    1
    19    21    23   ar
    20    23    24   ar
    21    24    25   ar
    22    25    26   ar
    23    26    27    1
    24     4     5   ar
    25     5     6   ar
    26     6     1   ar
    27    26    17   ar
    28    24    19   ar
    29    14    15    1
@<TRIPOS>MOLECULE
*****
 27 29 0 0 0
SMALL
GASTEIGER

@<TRIPOS>ATOM
      1 C          -4.2248  -19.6716   20.5199 C.ar    1  UNL1        0.0191
      2 C          -5.1581  -20.7802   20.1324 C.ar    1  UNL1        0.0063
      3 C          -6.3908  -21.0417   20.9460 C.ar    1  UNL1        0.0581
      4 C          -6.6903  -20.1946   22.1472 C.ar    1  UNL1        0.2297
      5 N          -5.7570  -19.0861   22.5347 N.ar    1  UNL1       -0.2098
      6 C          -4.5243  -18.8246   21.7211 C.ar    1  UNL1        0.1020
      7 C          -2.8362  -18.1078   18.9784 C.2     1  UNL1       -0.0069
      8 C          -2.9921  -19.4101   19.7062 C.2     1  UNL1       -0.0014
      9 C          -1.6034  -17.8463   18.1648 C.3     1  UNL1        0.0939
     10 C          -1.7267  -17.4300   16.7291 C.3     1  UNL1        0.0262
     11 C           1.4221  -17.4689   20.7053 C.3     1  UNL1        0.0946
     12 C           0.0661  -17.3141   20.0831 C.2     1  UNL1        0.2232
     13 O          -0.9767  -16.4721   20.7570 O.2     1  UNL1       -0.2751
     14 N          -0.2473  -18.0011   18.7870 N.am    1  UNL1       -0.3022
     15 H           0.4370  -18.5537   18.3448 H       1  UNL1        0.1497
     16 O          -7.9230  -20.4561   22.9609 O.3     1  UNL1       -0.4352
     17 C          -9.1536  -19.6257   22.7460 C.ar    1  UNL1        0.1582
     18 C          -9.2968  -18.8060   21.4979 C.ar    1  UNL1        0.0464
     19 C         -10.5273  -17.9757   21.2831 C.ar    1  UNL1        0.0513
     20 S         -10.9456  -17.0730   20.1605 S.2     1  UNL1       -0.0707
     21 C         -12.2915  -16.5044   20.5000 C.ar    1  UNL1        0.0886
     22 C         -13.0847  -15.5517   19.6554 C.3     1  UNL1        0.0594
     23 N         -12.7050  -17.0556   21.8323 N.ar    1  UNL1       -0.2427
     24 C         -11.6147  -17.9650   22.3163 C.ar    1  UNL1        0.0885
     25 C         -11.4715  -18.7846   23.5644 C.ar    1  UNL1        0.0341
     26 C         -10.2409  -19.6150   23.7792 C.ar    1  UNL1        0.0937
     27 CL        -10.0978  -20.4346   25.0273 Cl      1  UNL1       -0.0790
@<TRIPOS>BOND
     1    11    12    1
     2    12    13    2
     3    12    14   am
     4    14     9    1
     5     9    10    1
     6     9     7    1
     7     7     8    2
     8     8     1    1
     9     1     2   ar
    10     2     3   ar
    11     3     4   ar
    12     4    16    1
    13    16    17    1
    14    17    18   ar
    15    18    19   ar
    16    19    20   ar
    17    20    21   ar
    18    21    22    1
    19    21    23   ar
    20    23    24   ar
    21    24    25   ar
    22    25    26   ar
    23    26    27    1
    24     4     5   ar
    25     5     6   ar
    26     6     1   ar
    27    26    17   ar
    28    24    19   ar
    29    14    15    1
@<TRIPOS>MOLECULE
*****
 27 29 0 0 0
SMALL
GASTEIGER

@<TRIPOS>ATOM
      1 C           1.9413   -0.5857   19.7769 C.ar    1  UNL1        0.0191
      2 C           2.3911    0.5517   18.9086 C.ar    1  UNL1        0.0063
      3 C           1.5657    1.8013   18.8222 C.ar    1  UNL1        0.0581
      4 C           0.2906    1.9134   19.6042 C.ar    1  UNL1        0.2297
      5 N          -0.1592    0.7760   20.4725 N.ar    1  UNL1       -0.2098
      6 C           0.6662   -0.4735   20.5589 C.ar    1  UNL1        0.1020
      7 C           4.1251   -1.8823   19.2289 C.2     1  UNL1       -0.0069
      8 C           2.7667   -1.8353   19.8633 C.2     1  UNL1       -0.0014
      9 C           4.9503   -3.1319   19.3154 C.3     1  UNL1        0.0939
     10 C           4.3291   -4.4633   19.0130 C.3     1  UNL1        0.0262
     11 C           8.8550   -2.4519   19.1137 C.3     1  UNL1        0.0946
     12 C           7.4086   -2.5337   18.7248 C.2     1  UNL1        0.2232
     13 O           6.9741   -2.0991   17.3564 O.2     1  UNL1       -0.2751
     14 N           6.3967   -3.0501   19.7043 N.am    1  UNL1       -0.3022
     15 H           6.6818   -3.3353   20.6024 H       1  UNL1        0.1497
     16 O          -0.5348    3.1629   19.5178 O.3     1  UNL1       -0.4352
     17 C          -1.5477    3.4677   20.5814 C.ar    1  UNL1        0.1582
     18 C          -3.0120    3.4093   20.2614 C.ar    1  UNL1        0.0464
     19 C          -4.0249    3.7142   21.3249 C.ar    1  UNL1        0.0513
     20 S          -5.5246    3.7372   21.3057 S.2     1  UNL1       -0.0707
     21 C          -6.0000    4.1147   22.6773 C.ar    1  UNL1        0.0886
     22 C          -7.4302    4.2570   23.1067 C.3     1  UNL1        0.0594
     23 N          -4.7941    4.3249   23.5444 N.ar    1  UNL1       -0.2427
     24 C          -3.5734    4.0773   22.7085 C.ar    1  UNL1        0.0885
     25 C          -2.1091    4.1357   23.0285 C.ar    1  UNL1        0.0341
     26 C          -1.0963    3.8309   21.9649 C.ar    1  UNL1        0.0937
     27 CL          0.3681    3.8893   22.2850 Cl      1  UNL1       -0.0790
@<TRIPOS>BOND
     1    11    12    1
     2    12    13    2
     3    12    14   am
     4    14     9    1
     5     9    10    1
     6     9     7    1
     7     7     8    2
     8     8     1    1
     9     1     2   ar
    10     2     3   ar
    11     3     4   ar
    12     4    16    1
    13    16    17    1
    14    17    18   ar
    15    18    19   ar
    16    19    20   ar
    17    20    21   ar
    18    21    22    1
    19    21    23   ar
    20    23    24   ar
    21    24    25   ar
    22    25    26   ar
    23    26    27    1
    24     4     5   ar
    25     5     6   ar
    26     6     1   ar
    27    26    17   ar
    28    24    19   ar
    29    14    15    1
@<TRIPOS>MOLECULE
*****
 27 29 0 0 0
SMALL
GASTEIGER

@<TRIPOS>ATOM
      1 C           2.5683   -0.2519   20.1375 C.ar    1  UNL1        0.0191
      2 C           1.0955   -0.5082   20.2597 C.ar    1  UNL1        0.0063
      3 C           0.1234    0.6269   20.1309 C.ar    1  UNL1        0.0581
      4 C           0.6242    2.0184   19.8798 C.ar    1  UNL1        0.2297
      5 N           2.0971    2.2747   19.7576 N.ar    1  UNL1       -0.2098
      6 C           3.0692    1.1395   19.8865 C.ar    1  UNL1        0.1020
      7 C           3.8385   -2.2574   19.0817 C.2     1  UNL1       -0.0069
      8 C           3.5405   -1.3870   20.2664 C.2     1  UNL1       -0.0014
      9 C           4.8106   -3.3924   19.2106 C.3     1  UNL1        0.0939
     10 C           4.3740   -4.7930   18.8983 C.3     1  UNL1        0.0262
     11 C           8.6021   -2.2214   19.1487 C.3     1  UNL1        0.0946
     12 C           7.1933   -2.4870   18.7074 C.2     1  UNL1        0.2232
     13 O           6.7583   -2.1126   17.3214 O.2     1  UNL1       -0.2751
     14 N           6.2194   -3.1269   19.6519 N.am    1  UNL1       -0.3022
     15 H           6.5049   -3.3726   20.5615 H       1  UNL1        0.1497
     16 O          -0.3478    3.1535   19.7509 O.3     1  UNL1       -0.4352
     17 C          -1.4069    3.3560   20.7938 C.ar    1  UNL1        0.1582
     18 C          -1.0418    3.3300   22.2485 C.ar    1  UNL1        0.0464
     19 C          -2.1008    3.5326   23.2912 C.ar    1  UNL1        0.0513
     20 S          -2.0418    3.5589   24.7898 S.2     1  UNL1       -0.0707
     21 C          -3.4294    3.8037   25.3041 C.ar    1  UNL1        0.0886
     22 C          -3.8301    3.9056   26.7460 C.3     1  UNL1        0.0594
     23 N          -4.3461    3.9287   24.1234 N.ar    1  UNL1       -0.2427
     24 C          -3.5250    3.7611   22.8793 C.ar    1  UNL1        0.0885
     25 C          -3.8900    3.7871   21.4247 C.ar    1  UNL1        0.0341
     26 C          -2.8310    3.5846   20.3819 C.ar    1  UNL1        0.0937
     27 CL         -3.1961    3.6106   18.9272 Cl      1  UNL1       -0.0790
@<TRIPOS>BOND
     1    11    12    1
     2    12    13    2
     3    12    14   am
     4    14     9    1
     5     9    10    1
     6     9     7    1
     7     7     8    2
     8     8     1    1
     9     1     2   ar
    10     2     3   ar
    11     3     4   ar
    12     4    16    1
    13    16    17    1
    14    17    18   ar
    15    18    19   ar
    16    19    20   ar
    17    20    21   ar
    18    21    22    1
    19    21    23   ar
    20    23    24   ar
    21    24    25   ar
    22    25    26   ar
    23    26    27    1
    24     4     5   ar
    25     5     6   ar
    26     6     1   ar
    27    26    17   ar
    28    24    19   ar
    29    14    15    1
@<TRIPOS>MOLECULE
*****
 27 29 0 0 0
SMALL
GASTEIGER

@<TRIPOS>ATOM
      1 C           5.3586   -3.2738   23.5852 C.ar    1  UNL1        0.0191
      2 C           6.5128   -4.2129   23.7750 C.ar    1  UNL1        0.0063
      3 C           7.4103   -4.0666   24.9680 C.ar    1  UNL1        0.0581
      4 C           7.1536   -2.9813   25.9711 C.ar    1  UNL1        0.2297
      5 N           5.9995   -2.0423   25.7813 N.ar    1  UNL1       -0.2098
      6 C           5.1020   -2.1885   24.5883 C.ar    1  UNL1        0.1020
      7 C           5.0469   -3.4460   21.0117 C.2     1  UNL1       -0.0069
      8 C           4.4611   -3.4200   22.3923 C.2     1  UNL1       -0.0014
      9 C           4.1493   -3.5922   19.8188 C.3     1  UNL1        0.0939
     10 C           3.6710   -4.9514   19.4021 C.3     1  UNL1        0.0262
     11 C           4.1795   -0.6464   17.1595 C.3     1  UNL1        0.0946
     12 C           4.5988   -1.8595   17.9357 C.2     1  UNL1        0.2232
     13 O           5.8871   -2.5532   17.6051 O.2     1  UNL1       -0.2751
     14 N           3.7299   -2.3790   19.0426 N.am    1  UNL1       -0.3022
     15 H           2.8844   -1.9238   19.2596 H       1  UNL1        0.1497
     16 O           8.0511   -2.8351   27.1641 O.3     1  UNL1       -0.4352
     17 C           7.5099   -3.0704   28.5432 C.ar    1  UNL1        0.1582
     18 C           6.7688   -1.9773   29.2546 C.ar    1  UNL1        0.0464
     19 C           6.2276   -2.2125   30.6336 C.ar    1  UNL1        0.0513
     20 S           5.4617   -1.3310   31.5751 S.2     1  UNL1       -0.0707
     21 C           5.1883   -2.1146   32.8246 C.ar    1  UNL1        0.0886
     22 C           4.4480   -1.6193   34.0316 C.3     1  UNL1        0.0594
     23 N           5.7851   -3.4803   32.6554 N.ar    1  UNL1       -0.2427
     24 C           6.4274   -3.5408   31.3012 C.ar    1  UNL1        0.0885
     25 C           7.1685   -4.6339   30.5898 C.ar    1  UNL1        0.0341
     26 C           7.7097   -4.3986   29.2108 C.ar    1  UNL1        0.0937
     27 CL          8.4508   -5.4917   28.4994 Cl      1  UNL1       -0.0790
@<TRIPOS>BOND
     1    11    12    1
     2    12    13    2
     3    12    14   am
     4    14     9    1
     5     9    10    1
     6     9     7    1
     7     7     8    2
     8     8     1    1
     9     1     2   ar
    10     2     3   ar
    11     3     4   ar
    12     4    16    1
    13    16    17    1
    14    17    18   ar
    15    18    19   ar
    16    19    20   ar
    17    20    21   ar
    18    21    22    1
    19    21    23   ar
    20    23    24   ar
    21    24    25   ar
    22    25    26   ar
    23    26    27    1
    24     4     5   ar
    25     5     6   ar
    26     6     1   ar
    27    26    17   ar
    28    24    19   ar
    29    14    15    1
@<TRIPOS>MOLECULE
*****
 27 29 0 0 0
SMALL
GASTEIGER

@<TRIPOS>ATOM
      1 C         -13.9208   -0.8549   18.6259 C.ar    1  UNL1        0.0191
      2 C         -15.2258   -1.0265   19.3452 C.ar    1  UNL1        0.0063
      3 C         -16.0324    0.1773   19.7331 C.ar    1  UNL1        0.0581
      4 C         -15.5339    1.5526   19.4016 C.ar    1  UNL1        0.2297
      5 N         -14.2289    1.7242   18.6823 N.ar    1  UNL1       -0.2098
      6 C         -13.4223    0.5205   18.2944 C.ar    1  UNL1        0.1020
      7 C         -13.2246   -3.3242   19.0354 C.2     1  UNL1       -0.0069
      8 C         -13.1141   -2.0586   18.2380 C.2     1  UNL1       -0.0014
      9 C         -12.4179   -4.5279   18.6474 C.3     1  UNL1        0.0939
     10 C         -12.6002   -5.8220   19.3837 C.3     1  UNL1        0.0262
     11 C          -8.9729   -4.2533   16.6964 C.3     1  UNL1        0.0946
     12 C          -9.9618   -4.3438   17.8206 C.2     1  UNL1        0.2232
     13 O          -9.4835   -4.3406   19.2424 O.2     1  UNL1       -0.2751
     14 N         -11.4290   -4.4374   17.5232 N.am    1  UNL1       -0.3022
     15 H         -11.7430   -4.4395   16.5901 H       1  UNL1        0.1497
     16 O         -16.3405    2.7564   19.7895 O.3     1  UNL1       -0.4352
     17 C         -16.2067    3.3371   21.1662 C.ar    1  UNL1        0.1582
     18 C         -15.1532    4.3675   21.4464 C.ar    1  UNL1        0.0464
     19 C         -15.0195    4.9481   22.8229 C.ar    1  UNL1        0.0513
     20 S         -14.0834    5.9717   23.3939 S.2     1  UNL1       -0.0707
     21 C         -14.4245    6.1545   24.8431 C.ar    1  UNL1        0.0886
     22 C         -13.7391    7.0847   25.7997 C.3     1  UNL1        0.0594
     23 N         -15.5715    5.2440   25.1678 N.ar    1  UNL1       -0.2427
     24 C         -15.9391    4.4983   23.9193 C.ar    1  UNL1        0.0885
     25 C         -16.9926    3.4679   23.6390 C.ar    1  UNL1        0.0341
     26 C         -17.1263    2.8873   22.2624 C.ar    1  UNL1        0.0937
     27 CL        -18.1798    1.8569   21.9822 Cl      1  UNL1       -0.0790
@<TRIPOS>BOND
     1    11    12    1
     2    12    13    2
     3    12    14   am
     4    14     9    1
     5     9    10    1
     6     9     7    1
     7     7     8    2
     8     8     1    1
     9     1     2   ar
    10     2     3   ar
    11     3     4   ar
    12     4    16    1
    13    16    17    1
    14    17    18   ar
    15    18    19   ar
    16    19    20   ar
    17    20    21   ar
    18    21    22    1
    19    21    23   ar
    20    23    24   ar
    21    24    25   ar
    22    25    26   ar
    23    26    27    1
    24     4     5   ar
    25     5     6   ar
    26     6     1   ar
    27    26    17   ar
    28    24    19   ar
    29    14    15    1
@<TRIPOS>MOLECULE
*****
 27 29 0 0 0
SMALL
GASTEIGER

@<TRIPOS>ATOM
      1 C         -14.4553   -0.3993   18.7284 C.ar    1  UNL1        0.0191
      2 C         -15.1392   -1.3088   19.7056 C.ar    1  UNL1        0.0063
      3 C         -14.5032   -2.6122   20.0888 C.ar    1  UNL1        0.0581
      4 C         -13.1834   -3.0060   19.4948 C.ar    1  UNL1        0.2297
      5 N         -12.4995   -2.0964   18.5175 N.ar    1  UNL1       -0.2098
      6 C         -13.1355   -0.7931   18.1343 C.ar    1  UNL1        0.1020
      7 C         -15.1004    2.0481   19.3153 C.2     1  UNL1       -0.0069
      8 C         -15.0912    0.9041   18.3451 C.2     1  UNL1       -0.0014
      9 C         -15.7364    3.3514   18.9319 C.3     1  UNL1        0.0939
     10 C         -15.5426    3.9028   17.5505 C.3     1  UNL1        0.0262
     11 C         -16.7285    5.6533   22.0088 C.3     1  UNL1        0.0946
     12 C         -15.8988    4.9014   21.0107 C.2     1  UNL1        0.2232
     13 O         -14.4017    4.9475   21.0932 O.2     1  UNL1       -0.2751
     14 N         -16.5661    4.1033   19.9300 N.am    1  UNL1       -0.3022
     15 H         -17.5486    4.0730   19.8758 H       1  UNL1        0.1497
     16 O         -12.5474   -4.3093   19.8780 O.3     1  UNL1       -0.4352
     17 C         -13.0664   -5.5945   19.3042 C.ar    1  UNL1        0.1582
     18 C         -14.4313   -6.0879   19.6832 C.ar    1  UNL1        0.0464
     19 C         -14.9503   -7.3729   19.1094 C.ar    1  UNL1        0.0513
     20 S         -16.2461   -8.1048   19.2968 S.2     1  UNL1       -0.0707
     21 C         -16.2010   -9.3488   18.4599 C.ar    1  UNL1        0.0886
     22 C         -17.2886  -10.3757   18.3474 C.3     1  UNL1        0.0594
     23 N         -14.8773   -9.3858   17.7553 N.ar    1  UNL1       -0.2427
     24 C         -14.1043   -8.1646   18.1567 C.ar    1  UNL1        0.0885
     25 C         -12.7394   -7.6712   17.7777 C.ar    1  UNL1        0.0341
     26 C         -12.2205   -6.3861   18.3515 C.ar    1  UNL1        0.0937
     27 CL        -10.8555   -5.8927   17.9725 Cl      1  UNL1       -0.0790
@<TRIPOS>BOND
     1    11    12    1
     2    12    13    2
     3    12    14   am
     4    14     9    1
     5     9    10    1
     6     9     7    1
     7     7     8    2
     8     8     1    1
     9     1     2   ar
    10     2     3   ar
    11     3     4   ar
    12     4    16    1
    13    16    17    1
    14    17    18   ar
    15    18    19   ar
    16    19    20   ar
    17    20    21   ar
    18    21    22    1
    19    21    23   ar
    20    23    24   ar
    21    24    25   ar
    22    25    26   ar
    23    26    27    1
    24     4     5   ar
    25     5     6   ar
    26     6     1   ar
    27    26    17   ar
    28    24    19   ar
    29    14    15    1
@<TRIPOS>MOLECULE
*****
 27 29 0 0 0
SMALL
GASTEIGER

@<TRIPOS>ATOM
      1 C           7.7898   -5.0445   24.1488 C.ar    1  UNL1        0.0191
      2 C           8.6829   -5.5087   23.0366 C.ar    1  UNL1        0.0063
      3 C           8.4974   -4.9672   21.6501 C.ar    1  UNL1        0.0581
      4 C           7.4188   -3.9615   21.3757 C.ar    1  UNL1        0.2297
      5 N           6.5257   -3.4974   22.4879 N.ar    1  UNL1       -0.2098
      6 C           6.7112   -4.0388   23.8744 C.ar    1  UNL1        0.1020
      7 C           8.0312   -7.0679   25.7605 C.2     1  UNL1       -0.0069
      8 C           7.9752   -5.5860   25.5353 C.2     1  UNL1       -0.0014
      9 C           8.2166   -7.6092   27.1471 C.3     1  UNL1        0.0939
     10 C           9.2631   -8.6507   27.4119 C.3     1  UNL1        0.0262
     11 C           7.0133   -5.5525   30.3207 C.3     1  UNL1        0.0946
     12 C           7.8743   -6.0526   29.1989 C.2     1  UNL1        0.2232
     13 O           9.2542   -5.4964   29.0072 O.2     1  UNL1       -0.2751
     14 N           7.3556   -7.1090   28.2689 N.am    1  UNL1       -0.3022
     15 H           6.4500   -7.4741   28.3947 H       1  UNL1        0.1497
     16 O           7.2333   -3.4201   19.9892 O.3     1  UNL1       -0.4352
     17 C           6.0103   -2.6186   19.6544 C.ar    1  UNL1        0.1582
     18 C           6.0344   -1.1242   19.7834 C.ar    1  UNL1        0.0464
     19 C           4.8114   -0.3228   19.4487 C.ar    1  UNL1        0.0513
     20 S           4.5385    1.1518   19.4790 S.2     1  UNL1       -0.0707
     21 C           3.1228    1.3704   19.0340 C.ar    1  UNL1        0.0886
     22 C           2.4306    2.6958   18.9152 C.3     1  UNL1        0.0594
     23 N           2.5208    0.0309   18.7286 N.ar    1  UNL1       -0.2427
     24 C           3.5645   -1.0156   18.9849 C.ar    1  UNL1        0.0885
     25 C           3.5404   -2.5099   18.8560 C.ar    1  UNL1        0.0341
     26 C           4.7633   -3.3113   19.1907 C.ar    1  UNL1        0.0937
     27 CL          4.7392   -4.8056   19.0617 Cl      1  UNL1       -0.0790
@<TRIPOS>BOND
     1    11    12    1
     2    12    13    2
     3    12    14   am
     4    14     9    1
     5     9    10    1
     6     9     7    1
     7     7     8    2
     8     8     1    1
     9     1     2   ar
    10     2     3   ar
    11     3     4   ar
    12     4    16    1
    13    16    17    1
    14    17    18   ar
    15    18    19   ar
    16    19    20   ar
    17    20    21   ar
    18    21    22    1
    19    21    23   ar
    20    23    24   ar
    21    24    25   ar
    22    25    26   ar
    23    26    27    1
    24     4     5   ar
    25     5     6   ar
    26     6     1   ar
    27    26    17   ar
    28    24    19   ar
    29    14    15    1
@<TRIPOS>MOLECULE
*****
 27 29 0 0 0
SMALL
GASTEIGER

@<TRIPOS>ATOM
      1 C           6.7710   -3.8694   23.6218 C.ar    1  UNL1        0.0191
      2 C           5.3788   -3.3313   23.7703 C.ar    1  UNL1        0.0063
      3 C           4.4827   -3.2285   22.5718 C.ar    1  UNL1        0.0581
      4 C           4.9788   -3.6639   21.2248 C.ar    1  UNL1        0.2297
      5 N           6.3711   -4.2020   21.0764 N.ar    1  UNL1       -0.2098
      6 C           7.2672   -4.3047   22.2749 C.ar    1  UNL1        0.1020
      7 C           7.1378   -4.5331   26.1068 C.2     1  UNL1       -0.0069
      8 C           7.6672   -3.9722   24.8203 C.2     1  UNL1       -0.0014
      9 C           8.0340   -4.6358   27.3052 C.3     1  UNL1        0.0939
     10 C           9.5202   -4.5139   27.1429 C.3     1  UNL1        0.0262
     11 C           6.6162   -3.9212   30.9424 C.3     1  UNL1        0.0946
     12 C           7.2061   -3.6966   29.5817 C.2     1  UNL1        0.2232
     13 O           7.5581   -2.3079   29.1367 O.2     1  UNL1       -0.2751
     14 N           7.4441   -4.8605   28.6659 N.am    1  UNL1       -0.3022
     15 H           7.2131   -5.7719   28.9579 H       1  UNL1        0.1497
     16 O           4.0827   -3.5611   20.0263 O.3     1  UNL1       -0.4352
     17 C           3.6495   -2.2146   19.5269 C.ar    1  UNL1        0.1582
     18 C           2.3893   -1.5907   20.0495 C.ar    1  UNL1        0.0464
     19 C           1.9561   -0.2443   19.5502 C.ar    1  UNL1        0.0513
     20 S           0.7708    0.6143   19.8787 S.2     1  UNL1       -0.0707
     21 C           0.8651    1.8675   19.0599 C.ar    1  UNL1        0.0886
     22 C          -0.1125    3.0051   19.0733 C.3     1  UNL1        0.0594
     23 N           2.1087    1.7836   18.2254 N.ar    1  UNL1       -0.2427
     24 C           2.7830    0.4784   18.5284 C.ar    1  UNL1        0.0885
     25 C           4.0431   -0.1455   18.0059 C.ar    1  UNL1        0.0341
     26 C           4.4763   -1.4919   18.5052 C.ar    1  UNL1        0.0937
     27 CL          5.7365   -2.1157   17.9827 Cl      1  UNL1       -0.0790
@<TRIPOS>BOND
     1    11    12    1
     2    12    13    2
     3    12    14   am
     4    14     9    1
     5     9    10    1
     6     9     7    1
     7     7     8    2
     8     8     1    1
     9     1     2   ar
    10     2     3   ar
    11     3     4   ar
    12     4    16    1
    13    16    17    1
    14    17    18   ar
    15    18    19   ar
    16    19    20   ar
    17    20    21   ar
    18    21    22    1
    19    21    23   ar
    20    23    24   ar
    21    24    25   ar
    22    25    26   ar
    23    26    27    1
    24     4     5   ar
    25     5     6   ar
    26     6     1   ar
    27    26    17   ar
    28    24    19   ar
    29    14    15    1
