@<TRIPOS>MOLECULE
*****
 32 35 0 0 0
SMALL
GASTEIGER

@<TRIPOS>ATOM
      1 C         -10.4156  -18.5008   22.9341 C.3     1  UNL1        0.1569
      2 N          -9.1203  -18.6443   22.1912 N.am    1  UNL1       -0.2939
      3 C          -8.2067  -19.7952   22.4921 C.2     1  UNL1        0.2522
      4 O          -8.5882  -20.8027   23.5358 O.2     1  UNL1       -0.2696
      5 H          -8.8699  -17.9830   21.5062 H       1  UNL1        0.1502
      6 C          -6.9114  -19.9387   21.7492 C.ar    1  UNL1        0.0828
      7 C          -6.5545  -21.0487   20.8056 C.ar    1  UNL1        0.0115
      8 C          -5.1682  -20.7934   20.2928 C.ar    1  UNL1        0.0071
      9 C          -4.6683  -19.5256   20.9195 C.ar    1  UNL1        0.0296
     10 S          -5.7457  -18.9973   21.8198 S.2     1  UNL1       -0.0824
     11 C          -3.3266  -18.8964   20.6870 C.ar    1  UNL1        0.0061
     12 C          -2.4904  -18.4605   21.8535 C.ar    1  UNL1        0.0014
     13 C          -1.1487  -17.8314   21.6209 C.ar    1  UNL1        0.0114
     14 C          -0.6433  -17.6382   20.2219 C.ar    1  UNL1        0.0577
     15 CL          0.6984  -17.0091   19.9893 Cl      1  UNL1       -0.0822
     16 C          -1.4795  -18.0742   19.0554 C.ar    1  UNL1        0.0114
     17 C          -2.8211  -18.7033   19.2880 C.ar    1  UNL1        0.0014
     18 C         -10.4154  -18.4103   24.4314 C.2     1  UNL1        0.1926
     19 O         -11.3588  -19.2563   25.2339 O.2     1  UNL1       -0.2895
     20 C          -6.6409  -14.6643   27.2100 C.3     1  UNL1        0.0310
     21 C          -7.5846  -15.6008   26.5153 C.ar    1  UNL1       -0.0218
     22 C          -8.2468  -16.7053   27.2844 C.ar    1  UNL1       -0.0042
     23 C          -9.1904  -17.6418   26.5897 C.ar    1  UNL1        0.0026
     24 C          -9.4718  -17.4738   25.1260 C.ar    1  UNL1        0.0364
     25 C          -8.8096  -16.3693   24.3570 C.ar    1  UNL1        0.0026
     26 C          -7.8660  -15.4328   25.0516 C.ar    1  UNL1       -0.0042
     27 C         -11.7109  -18.4478   22.1797 C.3     1  UNL1        0.1350
     28 N         -11.9088  -17.4256   21.0999 N.ar    1  UNL1       -0.3057
     29 C         -11.0487  -17.2502   19.8835 C.ar    1  UNL1        0.0981
     30 C         -11.6097  -16.1155   19.0788 C.ar    1  UNL1        0.1193
     31 N         -12.8166  -15.5896   19.7979 N.ar    1  UNL1       -0.2223
     32 C         -13.0013  -16.3993   21.0470 C.ar    1  UNL1        0.1787
@<TRIPOS>BOND
     1    20    21    1
     2    21    22   ar
     3    22    23   ar
     4    23    24   ar
     5    24    18    1
     6    18    19    2
     7    18     1    1
     8     1    27    1
     9    27    28    1
    10    28    29   ar
    11    29    30   ar
    12    30    31   ar
    13    31    32   ar
    14     1     2    1
    15     2     3   am
    16     3     4    2
    17     3     6    1
    18     6     7   ar
    19     7     8   ar
    20     8     9   ar
    21     9    11    1
    22    11    12   ar
    23    12    13   ar
    24    13    14   ar
    25    14    15    1
    26    14    16   ar
    27    16    17   ar
    28     9    10   ar
    29    24    25   ar
    30    25    26   ar
    31    26    21   ar
    32    32    28   ar
    33    10     6   ar
    34    17    11   ar
    35     2     5    1
@<TRIPOS>MOLECULE
*****
 32 35 0 0 0
SMALL
GASTEIGER

@<TRIPOS>ATOM
      1 C          -9.5702  -18.0684   24.5170 C.3     1  UNL1        0.1569
      2 N          -8.3804  -18.2412   23.6201 N.am    1  UNL1       -0.2939
      3 C          -8.1277  -19.5619   22.9555 C.2     1  UNL1        0.2522
      4 O          -9.0648  -20.7099   23.1877 O.2     1  UNL1       -0.2696
      5 H          -7.7653  -17.4877   23.4676 H       1  UNL1        0.1502
      6 C          -6.9378  -19.7347   22.0585 C.ar    1  UNL1        0.0828
      7 C          -6.7977  -20.7529   20.9660 C.ar    1  UNL1        0.0115
      8 C          -5.4525  -20.5671   20.3289 C.ar    1  UNL1        0.0071
      9 C          -4.7612  -19.4340   21.0277 C.ar    1  UNL1        0.0296
     10 S          -5.6792  -18.9196   22.0968 S.2     1  UNL1       -0.0824
     11 C          -3.3923  -18.9078   20.7129 C.ar    1  UNL1        0.0061
     12 C          -3.0186  -18.5904   19.2953 C.ar    1  UNL1        0.0014
     13 C          -1.6496  -18.0642   18.9804 C.ar    1  UNL1        0.0114
     14 C          -0.6544  -17.8554   20.0832 C.ar    1  UNL1        0.0577
     15 CL          0.7145  -17.3292   19.7683 Cl      1  UNL1       -0.0822
     16 C          -1.0281  -18.1728   21.5008 C.ar    1  UNL1        0.0114
     17 C          -2.3970  -18.6990   21.8156 C.ar    1  UNL1        0.0014
     18 C         -10.9551  -18.2432   23.9679 C.2     1  UNL1        0.1926
     19 O         -11.9558  -19.0793   24.7092 O.2     1  UNL1       -0.2895
     20 C         -12.4917  -15.5983   18.8062 C.3     1  UNL1        0.0310
     21 C         -12.1075  -16.2595   20.0966 C.ar    1  UNL1       -0.0218
     22 C         -11.4315  -17.5984   20.0811 C.ar    1  UNL1       -0.0042
     23 C         -11.0473  -18.2597   21.3716 C.ar    1  UNL1        0.0026
     24 C         -11.3392  -17.5820   22.6775 C.ar    1  UNL1        0.0364
     25 C         -12.0153  -16.2431   22.6930 C.ar    1  UNL1        0.0026
     26 C         -12.3994  -15.5819   21.4026 C.ar    1  UNL1       -0.0042
     27 C          -9.3752  -17.7208   25.9631 C.3     1  UNL1        0.1350
     28 N          -8.3762  -16.6724   26.3543 N.ar    1  UNL1       -0.3057
     29 C          -8.0257  -16.2678   27.7555 C.ar    1  UNL1        0.0981
     30 C          -6.9852  -15.1899   27.6802 C.ar    1  UNL1        0.1193
     31 N          -6.6928  -14.9284   26.2324 N.ar    1  UNL1       -0.2223
     32 C          -7.5525  -15.8446   25.4130 C.ar    1  UNL1        0.1787
@<TRIPOS>BOND
     1    20    21    1
     2    21    22   ar
     3    22    23   ar
     4    23    24   ar
     5    24    18    1
     6    18    19    2
     7    18     1    1
     8     1    27    1
     9    27    28    1
    10    28    29   ar
    11    29    30   ar
    12    30    31   ar
    13    31    32   ar
    14     1     2    1
    15     2     3   am
    16     3     4    2
    17     3     6    1
    18     6     7   ar
    19     7     8   ar
    20     8     9   ar
    21     9    11    1
    22    11    12   ar
    23    12    13   ar
    24    13    14   ar
    25    14    15    1
    26    14    16   ar
    27    16    17   ar
    28     9    10   ar
    29    24    25   ar
    30    25    26   ar
    31    26    21   ar
    32    32    28   ar
    33    10     6   ar
    34    17    11   ar
    35     2     5    1
@<TRIPOS>MOLECULE
*****
 32 35 0 0 0
SMALL
GASTEIGER

@<TRIPOS>ATOM
      1 C          -0.6165    1.7065   26.9232 C.3     1  UNL1        0.1569
      2 N           0.1186    0.9711   25.8421 N.am    1  UNL1       -0.2939
      3 C           1.6135    1.0600   25.7575 C.2     1  UNL1        0.2522
      4 O           2.3735    1.8843   26.7540 O.2     1  UNL1       -0.2696
      5 H          -0.3801    0.4301   25.1880 H       1  UNL1        0.1502
      6 C           2.3487    0.3246   24.6763 C.ar    1  UNL1        0.0828
      7 C           3.3783   -0.7467   24.8818 C.ar    1  UNL1        0.0115
      8 C           3.8492   -1.2020   23.5323 C.ar    1  UNL1        0.0071
      9 C           3.1105   -0.4121   22.4928 C.ar    1  UNL1        0.0296
     10 S           2.1831    0.5314   23.1999 S.2     1  UNL1       -0.0824
     11 C           3.2710   -0.5428   21.0072 C.ar    1  UNL1        0.0061
     12 C           3.5297   -1.8881   20.3962 C.ar    1  UNL1        0.0014
     13 C           3.6902   -2.0187   18.9106 C.ar    1  UNL1        0.0114
     14 C           3.5920   -0.8041   18.0359 C.ar    1  UNL1        0.0577
     15 CL          3.7525   -0.9348   16.5503 Cl      1  UNL1       -0.0822
     16 C           3.3332    0.5412   18.6468 C.ar    1  UNL1        0.0114
     17 C           3.1727    0.6719   20.1325 C.ar    1  UNL1        0.0014
     18 C          -1.0535    3.1243   26.7023 C.2     1  UNL1        0.1926
     19 O          -0.2359    4.2554   27.2519 O.2     1  UNL1       -0.2895
     20 C          -6.0719    4.2712   23.6201 C.3     1  UNL1        0.0310
     21 C          -4.8173    3.9844   24.3906 C.ar    1  UNL1       -0.0218
     22 C          -3.5496    3.6500   23.6620 C.ar    1  UNL1       -0.0042
     23 C          -2.2950    3.3633   24.4326 C.ar    1  UNL1        0.0026
     24 C          -2.3081    3.4110   25.9317 C.ar    1  UNL1        0.0364
     25 C          -3.5759    3.7455   26.6603 C.ar    1  UNL1        0.0026
     26 C          -4.8305    4.0322   25.8898 C.ar    1  UNL1       -0.0042
     27 C          -0.9146    1.0241   28.2253 C.3     1  UNL1        0.1350
     28 N           0.1492    0.9186   29.2776 N.ar    1  UNL1       -0.3057
     29 C           0.4263    1.9247   30.3551 C.ar    1  UNL1        0.0981
     30 C           1.5710    1.4165   31.1805 C.ar    1  UNL1        0.1193
     31 N           2.0013    0.0962   30.6132 N.ar    1  UNL1       -0.2223
     32 C           1.1225   -0.2114   29.4371 C.ar    1  UNL1        0.1787
@<TRIPOS>BOND
     1    20    21    1
     2    21    22   ar
     3    22    23   ar
     4    23    24   ar
     5    24    18    1
     6    18    19    2
     7    18     1    1
     8     1    27    1
     9    27    28    1
    10    28    29   ar
    11    29    30   ar
    12    30    31   ar
    13    31    32   ar
    14     1     2    1
    15     2     3   am
    16     3     4    2
    17     3     6    1
    18     6     7   ar
    19     7     8   ar
    20     8     9   ar
    21     9    11    1
    22    11    12   ar
    23    12    13   ar
    24    13    14   ar
    25    14    15    1
    26    14    16   ar
    27    16    17   ar
    28     9    10   ar
    29    24    25   ar
    30    25    26   ar
    31    26    21   ar
    32    32    28   ar
    33    10     6   ar
    34    17    11   ar
    35     2     5    1
@<TRIPOS>MOLECULE
*****
 32 35 0 0 0
SMALL
GASTEIGER

@<TRIPOS>ATOM
      1 C           6.3664   -3.0847   21.5082 C.3     1  UNL1        0.1569
      2 N           6.7910   -3.8882   22.7016 N.am    1  UNL1       -0.2939
      3 C           7.6400   -5.1112   22.5188 C.2     1  UNL1        0.2522
      4 O           8.0645   -5.5307   21.1427 O.2     1  UNL1       -0.2696
      5 H           6.5124   -3.6129   23.6049 H       1  UNL1        0.1502
      6 C           8.0646   -5.9147   23.7122 C.ar    1  UNL1        0.0828
      7 C           8.7551   -7.2459   23.6785 C.ar    1  UNL1        0.0115
      8 C           8.9905   -7.6820   25.0943 C.ar    1  UNL1        0.0071
      9 C           8.4455   -6.6203   26.0031 C.ar    1  UNL1        0.0296
     10 S           7.8732   -5.5280   25.1488 S.2     1  UNL1       -0.0824
     11 C           8.4686   -6.6463   27.5026 C.ar    1  UNL1        0.0061
     12 C           7.4514   -5.8667   28.2820 C.ar    1  UNL1        0.0014
     13 C           7.4745   -5.8927   29.7816 C.ar    1  UNL1        0.0114
     14 C           8.5149   -6.6982   30.5018 C.ar    1  UNL1        0.0577
     15 CL          8.5381   -6.7242   32.0014 Cl      1  UNL1       -0.0822
     16 C           9.5322   -7.4778   29.7224 C.ar    1  UNL1        0.0114
     17 C           9.5090   -7.4518   28.2228 C.ar    1  UNL1        0.0014
     18 C           5.0248   -3.3241   20.8817 C.2     1  UNL1        0.1926
     19 O           4.7627   -4.5980   20.1344 O.2     1  UNL1       -0.2895
     20 C           0.7066    0.8136   21.3645 C.3     1  UNL1        0.0310
     21 C           1.7862   -0.2209   21.2438 C.ar    1  UNL1       -0.0218
     22 C           2.0011   -0.9320   19.9407 C.ar    1  UNL1       -0.0042
     23 C           3.0806   -1.9665   19.8200 C.ar    1  UNL1        0.0026
     24 C           3.9452   -2.2897   21.0024 C.ar    1  UNL1        0.0364
     25 C           3.7303   -1.5785   22.3054 C.ar    1  UNL1        0.0026
     26 C           2.6507   -0.5441   22.4261 C.ar    1  UNL1       -0.0042
     27 C           7.2835   -2.0417   20.9415 C.3     1  UNL1        0.1350
     28 N           6.9769   -1.4151   19.6136 N.ar    1  UNL1       -0.3057
     29 C           6.4623   -0.0234   19.3932 C.ar    1  UNL1        0.0981
     30 C           6.2985    0.1818   17.9164 C.ar    1  UNL1        0.1193
     31 N           6.7118   -1.0832   17.2241 N.ar    1  UNL1       -0.2223
     32 C           7.1311   -2.0700   18.2730 C.ar    1  UNL1        0.1787
@<TRIPOS>BOND
     1    20    21    1
     2    21    22   ar
     3    22    23   ar
     4    23    24   ar
     5    24    18    1
     6    18    19    2
     7    18     1    1
     8     1    27    1
     9    27    28    1
    10    28    29   ar
    11    29    30   ar
    12    30    31   ar
    13    31    32   ar
    14     1     2    1
    15     2     3   am
    16     3     4    2
    17     3     6    1
    18     6     7   ar
    19     7     8   ar
    20     8     9   ar
    21     9    11    1
    22    11    12   ar
    23    12    13   ar
    24    13    14   ar
    25    14    15    1
    26    14    16   ar
    27    16    17   ar
    28     9    10   ar
    29    24    25   ar
    30    25    26   ar
    31    26    21   ar
    32    32    28   ar
    33    10     6   ar
    34    17    11   ar
    35     2     5    1
@<TRIPOS>MOLECULE
*****
 32 35 0 0 0
SMALL
GASTEIGER

@<TRIPOS>ATOM
      1 C           3.2113   -0.6705   29.2292 C.3     1  UNL1        0.1569
      2 N           3.0441   -0.8976   27.7559 N.am    1  UNL1       -0.2939
      3 C           3.3639    0.2015   26.7866 C.2     1  UNL1        0.2522
      4 O           3.8510    1.5277   27.2905 O.2     1  UNL1       -0.2696
      5 H           2.7244   -1.7680   27.4252 H       1  UNL1        0.1502
      6 C           3.1967   -0.0255   25.3133 C.ar    1  UNL1        0.0828
      7 C           2.4632    0.8713   24.3606 C.ar    1  UNL1        0.0115
      8 C           2.5468    0.2617   22.9926 C.ar    1  UNL1        0.0071
      9 C           3.3321   -1.0118   23.0998 C.ar    1  UNL1        0.0296
     10 S           3.7338   -1.1894   24.5341 S.2     1  UNL1       -0.0824
     11 C           3.6584   -1.9441   21.9709 C.ar    1  UNL1        0.0061
     12 C           4.4555   -3.1877   22.2318 C.ar    1  UNL1        0.0014
     13 C           4.7818   -4.1200   21.1030 C.ar    1  UNL1        0.0114
     14 C           4.3111   -3.8086   19.7132 C.ar    1  UNL1        0.0577
     15 CL          4.6374   -4.7409   18.5843 Cl      1  UNL1       -0.0822
     16 C           3.5140   -2.5650   19.4523 C.ar    1  UNL1        0.0114
     17 C           3.1877   -1.6327   20.5811 C.ar    1  UNL1        0.0014
     18 C           4.5137   -1.0008   29.8959 C.2     1  UNL1        0.1926
     19 O           5.6745   -1.4823   29.0770 O.2     1  UNL1       -0.2895
     20 C           5.0803   -0.3959   35.8384 C.3     1  UNL1        0.0310
     21 C           4.9386   -0.5471   34.3528 C.ar    1  UNL1       -0.0218
     22 C           4.4557   -1.8437   33.7736 C.ar    1  UNL1       -0.0042
     23 C           4.3141   -1.9949   32.2879 C.ar    1  UNL1        0.0026
     24 C           4.6553   -0.8495   31.3816 C.ar    1  UNL1        0.0364
     25 C           5.1382    0.4471   31.9608 C.ar    1  UNL1        0.0026
     26 C           5.2798    0.5983   33.4464 C.ar    1  UNL1       -0.0042
     27 C           2.0760   -0.1131   30.0357 C.3     1  UNL1        0.1350
     28 N           0.8963    0.5032   29.3441 N.ar    1  UNL1       -0.3057
     29 C          -0.3564   -0.2114   28.9317 C.ar    1  UNL1        0.0981
     30 C          -1.2648    0.7861   28.2762 C.ar    1  UNL1        0.1193
     31 N          -0.5734    2.1173   28.2834 N.ar    1  UNL1       -0.2223
     32 C           0.7621    1.9425   28.9434 C.ar    1  UNL1        0.1787
@<TRIPOS>BOND
     1    20    21    1
     2    21    22   ar
     3    22    23   ar
     4    23    24   ar
     5    24    18    1
     6    18    19    2
     7    18     1    1
     8     1    27    1
     9    27    28    1
    10    28    29   ar
    11    29    30   ar
    12    30    31   ar
    13    31    32   ar
    14     1     2    1
    15     2     3   am
    16     3     4    2
    17     3     6    1
    18     6     7   ar
    19     7     8   ar
    20     8     9   ar
    21     9    11    1
    22    11    12   ar
    23    12    13   ar
    24    13    14   ar
    25    14    15    1
    26    14    16   ar
    27    16    17   ar
    28     9    10   ar
    29    24    25   ar
    30    25    26   ar
    31    26    21   ar
    32    32    28   ar
    33    10     6   ar
    34    17    11   ar
    35     2     5    1
@<TRIPOS>MOLECULE
*****
 32 35 0 0 0
SMALL
GASTEIGER

@<TRIPOS>ATOM
      1 C           3.2842   -1.6483   19.4084 C.3     1  UNL1        0.1569
      2 N           2.6440   -1.1655   20.6762 N.am    1  UNL1       -0.2939
      3 C           3.4635   -0.4379   21.7003 C.2     1  UNL1        0.2522
      4 O           4.9232   -0.1930   21.4568 O.2     1  UNL1       -0.2696
      5 H           1.6860   -1.3263   20.8360 H       1  UNL1        0.1502
      6 C           2.8233    0.0449   22.9681 C.ar    1  UNL1        0.0828
      7 C           3.3448   -0.1727   24.3575 C.ar    1  UNL1        0.0115
      8 C           2.3930    0.4780   25.3171 C.ar    1  UNL1        0.0071
      9 C           1.2832    1.0976   24.5206 C.ar    1  UNL1        0.0296
     10 S           1.5491    0.8300   23.0688 S.2     1  UNL1       -0.0824
     11 C           0.1129    1.8524   25.0781 C.ar    1  UNL1        0.0061
     12 C          -0.6608    2.7912   24.2006 C.ar    1  UNL1        0.0014
     13 C          -1.8311    3.5460   24.7580 C.ar    1  UNL1        0.0114
     14 C          -2.2276    3.3620   26.1929 C.ar    1  UNL1        0.0577
     15 CL         -3.3979    4.1168   26.7504 Cl      1  UNL1       -0.0822
     16 C          -1.4539    2.4232   27.0704 C.ar    1  UNL1        0.0114
     17 C          -0.2836    1.6684   26.5130 C.ar    1  UNL1        0.0014
     18 C           3.3667   -0.7407   18.2170 C.2     1  UNL1        0.1926
     19 O           4.0485   -1.2069   16.9649 O.2     1  UNL1       -0.2895
     20 C           0.9692    4.7541   18.4598 C.3     1  UNL1        0.0310
     21 C           1.5686    3.3804   18.3991 C.ar    1  UNL1       -0.0218
     22 C           0.6776    2.1758   18.3288 C.ar    1  UNL1       -0.0042
     23 C           1.2770    0.8021   18.2681 C.ar    1  UNL1        0.0026
     24 C           2.7673    0.6330   18.2777 C.ar    1  UNL1        0.0364
     25 C           3.6583    1.8376   18.3480 C.ar    1  UNL1        0.0026
     26 C           3.0590    3.2113   18.4087 C.ar    1  UNL1       -0.0042
     27 C           3.8419   -3.0387   19.3321 C.3     1  UNL1        0.1350
     28 N           4.9283   -3.4638   20.2750 N.ar    1  UNL1       -0.3057
     29 C           6.4004   -3.4518   19.9869 C.ar    1  UNL1        0.0981
     30 C           7.1153   -3.9561   21.2054 C.ar    1  UNL1        0.1193
     31 N           6.0850   -4.2797   22.2465 N.ar    1  UNL1       -0.2223
     32 C           4.7334   -3.9754   21.6715 C.ar    1  UNL1        0.1787
@<TRIPOS>BOND
     1    20    21    1
     2    21    22   ar
     3    22    23   ar
     4    23    24   ar
     5    24    18    1
     6    18    19    2
     7    18     1    1
     8     1    27    1
     9    27    28    1
    10    28    29   ar
    11    29    30   ar
    12    30    31   ar
    13    31    32   ar
    14     1     2    1
    15     2     3   am
    16     3     4    2
    17     3     6    1
    18     6     7   ar
    19     7     8   ar
    20     8     9   ar
    21     9    11    1
    22    11    12   ar
    23    12    13   ar
    24    13    14   ar
    25    14    15    1
    26    14    16   ar
    27    16    17   ar
    28     9    10   ar
    29    24    25   ar
    30    25    26   ar
    31    26    21   ar
    32    32    28   ar
    33    10     6   ar
    34    17    11   ar
    35     2     5    1
@<TRIPOS>MOLECULE
*****
 32 35 0 0 0
SMALL
GASTEIGER

@<TRIPOS>ATOM
      1 C           5.8163   -0.6174   17.4907 C.3     1  UNL1        0.1569
      2 N           6.5821   -1.7055   18.1833 N.am    1  UNL1       -0.2939
      3 C           6.8128   -1.6348   19.6638 C.2     1  UNL1        0.2522
      4 O           6.2777   -0.4760   20.4517 O.2     1  UNL1       -0.2696
      5 H           6.9333   -2.4661   17.6662 H       1  UNL1        0.1502
      6 C           7.5786   -2.7229   20.3564 C.ar    1  UNL1        0.0828
      7 C           8.9138   -3.2643   19.9391 C.ar    1  UNL1        0.0115
      8 C           9.3040   -4.3366   20.9127 C.ar    1  UNL1        0.0071
      9 C           8.2099   -4.4580   21.9317 C.ar    1  UNL1        0.0296
     10 S           7.1435   -3.4606   21.5878 S.2     1  UNL1       -0.0824
     11 C           8.1863   -5.4096   23.0909 C.ar    1  UNL1        0.0061
     12 C           7.4694   -5.0351   24.3542 C.ar    1  UNL1        0.0014
     13 C           7.4459   -5.9867   25.5134 C.ar    1  UNL1        0.0114
     14 C           8.1391   -7.3129   25.4094 C.ar    1  UNL1        0.0577
     15 CL          8.1155   -8.2645   26.5686 Cl      1  UNL1       -0.0822
     16 C           8.8560   -7.6874   24.1461 C.ar    1  UNL1        0.0114
     17 C           8.8795   -6.7358   22.9869 C.ar    1  UNL1        0.0014
     18 C           4.3318   -0.7403   17.3148 C.2     1  UNL1        0.1926
     19 O           3.7708   -1.2819   16.0334 O.2     1  UNL1       -0.2895
     20 C           0.6377    0.9346   21.7362 C.3     1  UNL1        0.0310
     21 C           1.5613    0.5158   20.6308 C.ar    1  UNL1       -0.0218
     22 C           1.9723    1.5057   19.5815 C.ar    1  UNL1       -0.0042
     23 C           2.8958    1.0870   18.4761 C.ar    1  UNL1        0.0026
     24 C           3.4083   -0.3216   18.4201 C.ar    1  UNL1        0.0364
     25 C           2.9972   -1.3115   19.4694 C.ar    1  UNL1        0.0026
     26 C           2.0737   -0.8928   20.5748 C.ar    1  UNL1       -0.0042
     27 C           6.5352    0.5936   16.9742 C.3     1  UNL1        0.1350
     28 N           7.1444    1.5709   17.9352 N.ar    1  UNL1       -0.3057
     29 C           6.4043    2.6107   18.7232 C.ar    1  UNL1        0.0981
     30 C           7.4033    3.3624   19.5520 C.ar    1  UNL1        0.1193
     31 N           8.7609    2.7872   19.2762 N.ar    1  UNL1       -0.2223
     32 C           8.6009    1.6799   18.2770 C.ar    1  UNL1        0.1787
@<TRIPOS>BOND
     1    20    21    1
     2    21    22   ar
     3    22    23   ar
     4    23    24   ar
     5    24    18    1
     6    18    19    2
     7    18     1    1
     8     1    27    1
     9    27    28    1
    10    28    29   ar
    11    29    30   ar
    12    30    31   ar
    13    31    32   ar
    14     1     2    1
    15     2     3   am
    16     3     4    2
    17     3     6    1
    18     6     7   ar
    19     7     8   ar
    20     8     9   ar
    21     9    11    1
    22    11    12   ar
    23    12    13   ar
    24    13    14   ar
    25    14    15    1
    26    14    16   ar
    27    16    17   ar
    28     9    10   ar
    29    24    25   ar
    30    25    26   ar
    31    26    21   ar
    32    32    28   ar
    33    10     6   ar
    34    17    11   ar
    35     2     5    1
@<TRIPOS>MOLECULE
*****
 32 35 0 0 0
SMALL
GASTEIGER

@<TRIPOS>ATOM
      1 C           2.7512    0.0674   30.9508 C.3     1  UNL1        0.1569
      2 N           3.1659   -0.6758   29.7155 N.am    1  UNL1       -0.2939
      3 C           4.2068   -0.0953   28.8049 C.2     1  UNL1        0.2522
      4 O           4.8332    1.2284   29.1294 O.2     1  UNL1       -0.2696
      5 H           2.7547   -1.5447   29.5025 H       1  UNL1        0.1502
      6 C           4.6215   -0.8385   27.5696 C.ar    1  UNL1        0.0828
      7 C           5.7917   -1.7694   27.4518 C.ar    1  UNL1        0.0115
      8 C           5.8321   -2.2875   26.0447 C.ar    1  UNL1        0.0071
      9 C           4.6867   -1.6768   25.2928 C.ar    1  UNL1        0.0296
     10 S           3.9385   -0.7813   26.2353 S.2     1  UNL1       -0.0824
     11 C           4.3489   -1.9191   23.8516 C.ar    1  UNL1        0.0061
     12 C           4.8472   -3.1545   23.1620 C.ar    1  UNL1        0.0014
     13 C           4.5094   -3.3968   21.7207 C.ar    1  UNL1        0.0114
     14 C           3.6733   -2.4037   20.9692 C.ar    1  UNL1        0.0577
     15 CL          3.3354   -2.6460   19.5279 Cl      1  UNL1       -0.0822
     16 C           3.1750   -1.1684   21.6588 C.ar    1  UNL1        0.0114
     17 C           3.5128   -0.9261   23.1000 C.ar    1  UNL1        0.0014
     18 C           1.6032    1.0312   30.8963 C.2     1  UNL1        0.1926
     19 O           1.1066    1.6780   32.1552 O.2     1  UNL1       -0.2895
     20 C          -1.0022    2.2998   25.6424 C.3     1  UNL1        0.0310
     21 C          -0.3508    1.9826   26.9559 C.ar    1  UNL1       -0.0218
     22 C          -0.8581    0.8430   27.7888 C.ar    1  UNL1       -0.0042
     23 C          -0.2068    0.5259   29.1023 C.ar    1  UNL1        0.0026
     24 C           0.9519    1.3484   29.5828 C.ar    1  UNL1        0.0364
     25 C           1.4592    2.4880   28.7499 C.ar    1  UNL1        0.0026
     26 C           0.8078    2.8051   27.4364 C.ar    1  UNL1       -0.0042
     27 C           3.4846   -0.1534   32.2405 C.3     1  UNL1        0.1350
     28 N           4.6703   -1.0712   32.2814 N.ar    1  UNL1       -0.3057
     29 C           4.6506   -2.5203   32.6686 C.ar    1  UNL1        0.0981
     30 C           6.0520   -3.0458   32.5688 C.ar    1  UNL1        0.1193
     31 N           6.9378   -1.9215   32.1201 N.ar    1  UNL1       -0.2223
     32 C           6.0838   -0.7012   31.9424 C.ar    1  UNL1        0.1787
@<TRIPOS>BOND
     1    20    21    1
     2    21    22   ar
     3    22    23   ar
     4    23    24   ar
     5    24    18    1
     6    18    19    2
     7    18     1    1
     8     1    27    1
     9    27    28    1
    10    28    29   ar
    11    29    30   ar
    12    30    31   ar
    13    31    32   ar
    14     1     2    1
    15     2     3   am
    16     3     4    2
    17     3     6    1
    18     6     7   ar
    19     7     8   ar
    20     8     9   ar
    21     9    11    1
    22    11    12   ar
    23    12    13   ar
    24    13    14   ar
    25    14    15    1
    26    14    16   ar
    27    16    17   ar
    28     9    10   ar
    29    24    25   ar
    30    25    26   ar
    31    26    21   ar
    32    32    28   ar
    33    10     6   ar
    34    17    11   ar
    35     2     5    1
@<TRIPOS>MOLECULE
*****
 32 35 0 0 0
SMALL
GASTEIGER

@<TRIPOS>ATOM
      1 C          -9.3283  -17.0746   22.3050 C.3     1  UNL1        0.1569
      2 N          -7.9944  -17.3878   21.6946 N.am    1  UNL1       -0.2939
      3 C          -7.3727  -18.7370   21.9021 C.2     1  UNL1        0.2522
      4 O          -8.0850  -19.7731   22.7202 O.2     1  UNL1       -0.2696
      5 H          -7.5269  -16.7078   21.1577 H       1  UNL1        0.1502
      6 C          -6.0388  -19.0501   21.2917 C.ar    1  UNL1        0.0828
      7 C          -5.7071  -20.2612   20.4712 C.ar    1  UNL1        0.0115
      8 C          -4.2657  -20.1667   20.0670 C.ar    1  UNL1        0.0071
      9 C          -3.7065  -18.8972   20.6378 C.ar    1  UNL1        0.0296
     10 S          -4.8024  -18.2071   21.3947 S.2     1  UNL1       -0.0824
     11 C          -2.2986  -18.4043   20.4794 C.ar    1  UNL1        0.0061
     12 C          -1.2144  -19.3530   20.0617 C.ar    1  UNL1        0.0014
     13 C           0.1934  -18.8601   19.9033 C.ar    1  UNL1        0.0114
     14 C           0.5170  -17.4186   20.1627 C.ar    1  UNL1        0.0577
     15 CL          1.9248  -16.9257   20.0044 Cl      1  UNL1       -0.0822
     16 C          -0.5672  -16.4699   20.5804 C.ar    1  UNL1        0.0114
     17 C          -1.9750  -16.9628   20.7388 C.ar    1  UNL1        0.0014
     18 C         -10.5261  -17.9084   21.9583 C.2     1  UNL1        0.1926
     19 O         -10.6234  -18.5569   20.6093 O.2     1  UNL1       -0.2895
     20 C         -14.9278  -18.6494   25.9678 C.3     1  UNL1        0.0310
     21 C         -13.8274  -18.4641   24.9654 C.ar    1  UNL1       -0.0218
     22 C         -12.4453  -18.9621   25.2683 C.ar    1  UNL1       -0.0042
     23 C         -11.3449  -18.7769   24.2660 C.ar    1  UNL1        0.0026
     24 C         -11.6265  -18.0936   22.9607 C.ar    1  UNL1        0.0364
     25 C         -13.0086  -17.5957   22.6578 C.ar    1  UNL1        0.0026
     26 C         -14.1090  -17.7809   23.6601 C.ar    1  UNL1       -0.0042
     27 C          -9.4645  -15.9277   23.2621 C.3     1  UNL1        0.1350
     28 N          -8.3744  -15.6441   24.2527 N.ar    1  UNL1       -0.3057
     29 C          -8.4384  -15.8954   25.7301 C.ar    1  UNL1        0.0981
     30 C          -7.1325  -15.4660   26.3303 C.ar    1  UNL1        0.1193
     31 N          -6.2615  -14.9493   25.2238 N.ar    1  UNL1       -0.2223
     32 C          -7.0290  -15.0594   23.9398 C.ar    1  UNL1        0.1787
@<TRIPOS>BOND
     1    20    21    1
     2    21    22   ar
     3    22    23   ar
     4    23    24   ar
     5    24    18    1
     6    18    19    2
     7    18     1    1
     8     1    27    1
     9    27    28    1
    10    28    29   ar
    11    29    30   ar
    12    30    31   ar
    13    31    32   ar
    14     1     2    1
    15     2     3   am
    16     3     4    2
    17     3     6    1
    18     6     7   ar
    19     7     8   ar
    20     8     9   ar
    21     9    11    1
    22    11    12   ar
    23    12    13   ar
    24    13    14   ar
    25    14    15    1
    26    14    16   ar
    27    16    17   ar
    28     9    10   ar
    29    24    25   ar
    30    25    26   ar
    31    26    21   ar
    32    32    28   ar
    33    10     6   ar
    34    17    11   ar
    35     2     5    1
