@<TRIPOS>MOLECULE
*****
 29 31 0 0 0
SMALL
GASTEIGER

@<TRIPOS>ATOM
      1 C          -7.3641  -18.9020   21.6094 C.3     1  UNL1        0.0564
      2 C         -12.0054  -16.6198   21.1088 C.3     1  UNL1        0.0310
      3 C         -11.1441  -17.6964   21.6998 C.ar    1  UNL1       -0.0221
      4 C         -11.7422  -18.7083   22.6316 C.ar    1  UNL1       -0.0043
      5 C         -10.8810  -19.7848   23.2226 C.ar    1  UNL1       -0.0006
      6 C          -9.4216  -19.8494   22.8819 C.ar    1  UNL1       -0.0037
      7 C          -8.8235  -18.8374   21.9502 C.ar    1  UNL1       -0.0155
      8 C          -9.6848  -17.7609   21.3591 C.ar    1  UNL1       -0.0079
      9 C          -7.6732  -19.8126   20.4583 C.ar    1  UNL1       -0.0152
     10 C          -6.8610  -21.0559   20.2465 C.ar    1  UNL1       -0.0037
     11 C          -7.1701  -21.9665   19.0953 C.ar    1  UNL1       -0.0003
     12 C          -8.2913  -21.6340   18.1560 C.ar    1  UNL1       -0.0000
     13 C          -9.1035  -20.3909   18.3679 C.ar    1  UNL1       -0.0003
     14 C          -8.7944  -19.4801   19.5190 C.ar    1  UNL1       -0.0037
     15 C          -5.9048  -18.9665   21.2687 C.ar    1  UNL1       -0.0152
     16 C          -5.4497  -18.6969   19.8650 C.ar    1  UNL1       -0.0037
     17 C          -3.9904  -18.7614   19.5242 C.ar    1  UNL1       -0.0003
     18 C          -2.9861  -19.0956   20.5871 C.ar    1  UNL1       -0.0000
     19 C          -3.4411  -19.3653   21.9907 C.ar    1  UNL1       -0.0003
     20 C          -4.9005  -19.3007   22.3315 C.ar    1  UNL1       -0.0037
     21 C          -7.0550  -17.9913   22.7606 C.3     1  UNL1        0.0140
     22 C          -7.3865  -16.5311   22.6717 C.3     1  UNL1        0.0222
     23 CA         -6.7599  -15.5602   23.6282 C.3     1  UNL1        0.0879
     24 N          -7.5318  -14.3609   24.0927 N.3     1  UNL1       -0.3179
     25 H1         -8.4563  -14.3639   23.6618 H       1  UNL1        0.1191
     26 H2         -7.0344  -13.5117   23.8246 H       1  UNL1        0.1191
     27 C          -5.3614  -15.7887   24.1202 C.2     1  UNL1        0.0644
     28 O          -4.2337  -15.9210   23.1399 O.co2   1  UNL1       -0.5478
     29 OXT        -5.0906  -15.8850   25.5924 O.co2   1  UNL1       -0.5478
@<TRIPOS>UNITY_ATOM_ATTR
28 1
charge -1
@<TRIPOS>BOND
     1     2     3    1
     2     3     4   ar
     3     4     5   ar
     4     5     6   ar
     5     6     7   ar
     6     7     1    1
     7     1    21    1
     8    21    22    1
     9    22    23    1
    10    23    24    1
    11    23    27    1
    12    27    28   ar
    13    27    29   ar
    14     1     9    1
    15     9    10   ar
    16    10    11   ar
    17    11    12   ar
    18    12    13   ar
    19    13    14   ar
    20     1    15    1
    21    15    16   ar
    22    16    17   ar
    23    17    18   ar
    24    18    19   ar
    25    19    20   ar
    26     7     8   ar
    27     8     3   ar
    28    14     9   ar
    29    20    15   ar
    30    24    25    1
    31    24    26    1
@<TRIPOS>MOLECULE
*****
 29 31 0 0 0
SMALL
GASTEIGER

@<TRIPOS>ATOM
      1 C          -8.6094  -17.7135   22.1493 C.3     1  UNL1        0.0564
      2 C          -8.7809  -16.8912   27.2771 C.3     1  UNL1        0.0310
      3 C          -8.3502  -16.4610   25.9062 C.ar    1  UNL1       -0.0221
      4 C          -7.5745  -15.1896   25.7282 C.ar    1  UNL1       -0.0043
      5 C          -7.1437  -14.7594   24.3573 C.ar    1  UNL1       -0.0006
      6 C          -7.4887  -15.6007   23.1643 C.ar    1  UNL1       -0.0037
      7 C          -8.2644  -16.8721   23.3423 C.ar    1  UNL1       -0.0155
      8 C          -8.6951  -17.3023   24.7132 C.ar    1  UNL1       -0.0079
      9 C         -10.0650  -17.6071   22.4952 C.ar    1  UNL1       -0.0152
     10 C         -10.7603  -18.7504   23.1730 C.ar    1  UNL1       -0.0037
     11 C         -12.2160  -18.6441   23.5190 C.ar    1  UNL1       -0.0003
     12 C         -12.9764  -17.3944   23.1872 C.ar    1  UNL1       -0.0000
     13 C         -12.2811  -16.2511   22.5094 C.ar    1  UNL1       -0.0003
     14 C         -10.8254  -16.3574   22.1634 C.ar    1  UNL1       -0.0037
     15 C          -8.9544  -18.5548   20.9563 C.ar    1  UNL1       -0.0152
     16 C         -10.3422  -18.5174   20.3882 C.ar    1  UNL1       -0.0037
     17 C         -10.6872  -19.3587   19.1953 C.ar    1  UNL1       -0.0003
     18 C          -9.6444  -20.2374   18.5704 C.ar    1  UNL1       -0.0000
     19 C          -8.2567  -20.2748   19.1384 C.ar    1  UNL1       -0.0003
     20 C          -7.9116  -19.4335   20.3314 C.ar    1  UNL1       -0.0037
     21 C          -7.1537  -17.8198   21.8033 C.3     1  UNL1        0.0140
     22 C          -6.3048  -18.8751   22.4480 C.3     1  UNL1        0.0222
     23 CA         -4.8113  -18.8182   22.3195 C.3     1  UNL1        0.0879
     24 N          -3.9767  -18.3467   23.4732 N.3     1  UNL1       -0.3179
     25 H1         -4.5841  -18.1074   24.2569 H       1  UNL1        0.1191
     26 H2         -3.4432  -17.5238   23.1929 H       1  UNL1        0.1191
     27 C          -4.1525  -19.2329   21.0373 C.2     1  UNL1        0.0644
     28 O          -4.5252  -18.5584   19.7503 O.co2   1  UNL1       -0.5478
     29 OXT        -3.1211  -20.3219   21.0420 O.co2   1  UNL1       -0.5478
@<TRIPOS>UNITY_ATOM_ATTR
28 1
charge -1
@<TRIPOS>BOND
     1     2     3    1
     2     3     4   ar
     3     4     5   ar
     4     5     6   ar
     5     6     7   ar
     6     7     1    1
     7     1    21    1
     8    21    22    1
     9    22    23    1
    10    23    24    1
    11    23    27    1
    12    27    28   ar
    13    27    29   ar
    14     1     9    1
    15     9    10   ar
    16    10    11   ar
    17    11    12   ar
    18    12    13   ar
    19    13    14   ar
    20     1    15    1
    21    15    16   ar
    22    16    17   ar
    23    17    18   ar
    24    18    19   ar
    25    19    20   ar
    26     7     8   ar
    27     8     3   ar
    28    14     9   ar
    29    20    15   ar
    30    24    25    1
    31    24    26    1
@<TRIPOS>MOLECULE
*****
 29 31 0 0 0
SMALL
GASTEIGER

@<TRIPOS>ATOM
      1 C          -8.8492  -18.2686   22.7426 C.3     1  UNL1        0.0564
      2 C          -3.8131  -17.0331   23.0761 C.3     1  UNL1        0.0310
      3 C          -4.8874  -18.0444   22.8056 C.ar    1  UNL1       -0.0221
      4 C          -4.5179  -19.4491   22.4314 C.ar    1  UNL1       -0.0043
      5 C          -5.5922  -20.4604   22.1608 C.ar    1  UNL1       -0.0006
      6 C          -7.0360  -20.0669   22.2646 C.ar    1  UNL1       -0.0037
      7 C          -7.4054  -18.6622   22.6388 C.ar    1  UNL1       -0.0155
      8 C          -6.3311  -17.6509   22.9093 C.ar    1  UNL1       -0.0079
      9 C          -9.1073  -18.8586   21.3879 C.ar    1  UNL1       -0.0152
     10 C         -10.3884  -19.5919   21.1209 C.ar    1  UNL1       -0.0037
     11 C         -10.6465  -20.1819   19.7662 C.ar    1  UNL1       -0.0003
     12 C          -9.6236  -20.0387   18.6785 C.ar    1  UNL1       -0.0000
     13 C          -8.3425  -19.3055   18.9454 C.ar    1  UNL1       -0.0003
     14 C          -8.0844  -18.7155   20.3002 C.ar    1  UNL1       -0.0037
     15 C         -10.2929  -17.8751   22.8463 C.ar    1  UNL1       -0.0152
     16 C         -11.2058  -18.6118   23.7812 C.ar    1  UNL1       -0.0037
     17 C         -12.6495  -18.2183   23.8849 C.ar    1  UNL1       -0.0003
     18 C         -13.1804  -17.0881   23.0537 C.ar    1  UNL1       -0.0000
     19 C         -12.2676  -16.3514   22.1189 C.ar    1  UNL1       -0.0003
     20 C         -10.8238  -16.7449   22.0151 C.ar    1  UNL1       -0.0037
     21 C          -8.5910  -17.6786   24.0973 C.3     1  UNL1        0.0140
     22 C          -8.9943  -16.2634   24.3882 C.3     1  UNL1        0.0222
     23 CA         -7.9949  -15.3009   24.9581 C.3     1  UNL1        0.0879
     24 N          -7.5327  -14.1294   24.1433 N.3     1  UNL1       -0.3179
     25 H1         -7.9967  -14.1429   23.2350 H       1  UNL1        0.1191
     26 H2         -6.5230  -14.1851   24.0101 H       1  UNL1        0.1191
     27 C          -7.4578  -15.5098   26.3430 C.2     1  UNL1        0.0644
     28 O          -8.3954  -15.5478   27.5133 O.co2   1  UNL1       -0.5478
     29 OXT        -5.9831  -15.6808   26.5576 O.co2   1  UNL1       -0.5478
@<TRIPOS>UNITY_ATOM_ATTR
28 1
charge -1
@<TRIPOS>BOND
     1     2     3    1
     2     3     4   ar
     3     4     5   ar
     4     5     6   ar
     5     6     7   ar
     6     7     1    1
     7     1    21    1
     8    21    22    1
     9    22    23    1
    10    23    24    1
    11    23    27    1
    12    27    28   ar
    13    27    29   ar
    14     1     9    1
    15     9    10   ar
    16    10    11   ar
    17    11    12   ar
    18    12    13   ar
    19    13    14   ar
    20     1    15    1
    21    15    16   ar
    22    16    17   ar
    23    17    18   ar
    24    18    19   ar
    25    19    20   ar
    26     7     8   ar
    27     8     3   ar
    28    14     9   ar
    29    20    15   ar
    30    24    25    1
    31    24    26    1
@<TRIPOS>MOLECULE
*****
 29 31 0 0 0
SMALL
GASTEIGER

@<TRIPOS>ATOM
      1 C          -8.8978  -18.2579   22.6781 C.3     1  UNL1        0.0564
      2 C         -13.5804  -18.6185   24.9016 C.3     1  UNL1        0.0310
      3 C         -12.6734  -18.0073   23.8751 C.ar    1  UNL1       -0.0221
      4 C         -13.2006  -16.9653   22.9338 C.ar    1  UNL1       -0.0043
      5 C         -12.2936  -16.3541   21.9072 C.ar    1  UNL1       -0.0006
      6 C         -10.8594  -16.7849   21.8220 C.ar    1  UNL1       -0.0037
      7 C         -10.3321  -17.8270   22.7633 C.ar    1  UNL1       -0.0155
      8 C         -11.2391  -18.4382   23.7898 C.ar    1  UNL1       -0.0079
      9 C          -9.1568  -18.8523   21.3255 C.ar    1  UNL1       -0.0152
     10 C         -10.4531  -19.5554   21.0508 C.ar    1  UNL1       -0.0037
     11 C         -10.7121  -20.1497   19.6982 C.ar    1  UNL1       -0.0003
     12 C          -9.6748  -20.0410   18.6201 C.ar    1  UNL1       -0.0000
     13 C          -8.3786  -19.3380   18.8947 C.ar    1  UNL1       -0.0003
     14 C          -8.1196  -18.7436   20.2474 C.ar    1  UNL1       -0.0037
     15 C          -7.4636  -18.6889   22.5928 C.ar    1  UNL1       -0.0152
     16 C          -7.1269  -20.1254   22.3226 C.ar    1  UNL1       -0.0037
     17 C          -5.6927  -20.5563   22.2374 C.ar    1  UNL1       -0.0003
     18 C          -4.5952  -19.5508   22.4223 C.ar    1  UNL1       -0.0000
     19 C          -4.9318  -18.1143   22.6925 C.ar    1  UNL1       -0.0003
     20 C          -6.3661  -17.6833   22.7778 C.ar    1  UNL1       -0.0037
     21 C          -8.6389  -17.6636   24.0307 C.3     1  UNL1        0.0140
     22 C          -9.0042  -16.2348   24.3045 C.3     1  UNL1        0.0222
     23 CA         -8.0005  -15.3101   24.9272 C.3     1  UNL1        0.0879
     24 N          -7.5196  -14.1067   24.1719 N.3     1  UNL1       -0.3179
     25 H1         -7.9756  -14.0730   23.2601 H       1  UNL1        0.1191
     26 H2         -6.5093  -14.1665   24.0447 H       1  UNL1        0.1191
     27 C          -7.4777  -15.5889   26.3052 C.2     1  UNL1        0.0644
     28 O          -8.4287  -15.9356   27.4123 O.co2   1  UNL1       -0.5478
     29 OXT        -6.0040  -15.5211   26.5763 O.co2   1  UNL1       -0.5478
@<TRIPOS>UNITY_ATOM_ATTR
28 1
charge -1
@<TRIPOS>BOND
     1     2     3    1
     2     3     4   ar
     3     4     5   ar
     4     5     6   ar
     5     6     7   ar
     6     7     1    1
     7     1    21    1
     8    21    22    1
     9    22    23    1
    10    23    24    1
    11    23    27    1
    12    27    28   ar
    13    27    29   ar
    14     1     9    1
    15     9    10   ar
    16    10    11   ar
    17    11    12   ar
    18    12    13   ar
    19    13    14   ar
    20     1    15    1
    21    15    16   ar
    22    16    17   ar
    23    17    18   ar
    24    18    19   ar
    25    19    20   ar
    26     7     8   ar
    27     8     3   ar
    28    14     9   ar
    29    20    15   ar
    30    24    25    1
    31    24    26    1
@<TRIPOS>MOLECULE
*****
 29 31 0 0 0
SMALL
GASTEIGER

@<TRIPOS>ATOM
      1 C          -8.5691  -16.9639   23.2329 C.3     1  UNL1        0.0564
      2 C          -3.9000  -19.1419   22.5576 C.3     1  UNL1        0.0310
      3 C          -4.7381  -17.9549   22.9298 C.ar    1  UNL1       -0.0221
      4 C          -4.0799  -16.6699   23.3366 C.ar    1  UNL1       -0.0043
      5 C          -4.9181  -15.4829   23.7088 C.ar    1  UNL1       -0.0006
      6 C          -6.4144  -15.5809   23.6743 C.ar    1  UNL1       -0.0037
      7 C          -7.0726  -16.8659   23.2675 C.ar    1  UNL1       -0.0155
      8 C          -6.2345  -18.0529   22.8953 C.ar    1  UNL1       -0.0079
      9 C          -8.6224  -16.6676   24.7024 C.ar    1  UNL1       -0.0152
     10 C          -8.5063  -15.2528   25.1869 C.ar    1  UNL1       -0.0037
     11 C          -8.5596  -14.9565   26.6564 C.ar    1  UNL1       -0.0003
     12 C          -8.7290  -16.0750   27.6414 C.ar    1  UNL1       -0.0000
     13 C          -8.8451  -17.4898   27.1569 C.ar    1  UNL1       -0.0003
     14 C          -8.7918  -17.7862   25.6874 C.ar    1  UNL1       -0.0037
     15 C         -10.0654  -17.0620   23.1984 C.ar    1  UNL1       -0.0152
     16 C         -10.7592  -18.1943   23.8960 C.ar    1  UNL1       -0.0037
     17 C         -12.2556  -18.2923   23.8615 C.ar    1  UNL1       -0.0003
     18 C         -13.0583  -17.2581   23.1294 C.ar    1  UNL1       -0.0000
     19 C         -12.3646  -16.1258   22.4318 C.ar    1  UNL1       -0.0003
     20 C         -10.8681  -16.0277   22.4663 C.ar    1  UNL1       -0.0037
     21 C          -8.5158  -17.2602   21.7635 C.3     1  UNL1        0.0140
     22 C          -8.4276  -18.6799   21.2873 C.3     1  UNL1        0.0222
     23 CA         -9.2718  -19.1383   20.1352 C.3     1  UNL1        0.0879
     24 N          -8.6208  -19.6817   18.8979 N.3     1  UNL1       -0.3179
     25 H1         -7.6074  -19.6666   19.0124 H       1  UNL1        0.1191
     26 H2         -8.8810  -19.1070   18.0964 H       1  UNL1        0.1191
     27 C         -10.7670  -19.0533   20.2204 C.2     1  UNL1        0.0644
     28 O         -11.5326  -20.0749   21.0081 O.co2   1  UNL1       -0.5478
     29 OXT       -11.4965  -17.9468   19.5181 O.co2   1  UNL1       -0.5478
@<TRIPOS>UNITY_ATOM_ATTR
28 1
charge -1
@<TRIPOS>BOND
     1     2     3    1
     2     3     4   ar
     3     4     5   ar
     4     5     6   ar
     5     6     7   ar
     6     7     1    1
     7     1    21    1
     8    21    22    1
     9    22    23    1
    10    23    24    1
    11    23    27    1
    12    27    28   ar
    13    27    29   ar
    14     1     9    1
    15     9    10   ar
    16    10    11   ar
    17    11    12   ar
    18    12    13   ar
    19    13    14   ar
    20     1    15    1
    21    15    16   ar
    22    16    17   ar
    23    17    18   ar
    24    18    19   ar
    25    19    20   ar
    26     7     8   ar
    27     8     3   ar
    28    14     9   ar
    29    20    15   ar
    30    24    25    1
    31    24    26    1
@<TRIPOS>MOLECULE
*****
 29 31 0 0 0
SMALL
GASTEIGER

@<TRIPOS>ATOM
      1 C          -9.4469  -18.6151   23.1824 C.3     1  UNL1        0.0564
      2 C          -4.4825  -17.0999   22.9391 C.3     1  UNL1        0.0310
      3 C          -5.5261  -18.1635   22.7665 C.ar    1  UNL1       -0.0221
      4 C          -5.1309  -19.5332   22.2998 C.ar    1  UNL1       -0.0043
      5 C          -6.1744  -20.5968   22.1273 C.ar    1  UNL1       -0.0006
      6 C          -7.6131  -20.2908   22.4214 C.ar    1  UNL1       -0.0037
      7 C          -8.0082  -18.9211   22.8882 C.ar    1  UNL1       -0.0155
      8 C          -6.9647  -17.8575   23.0607 C.ar    1  UNL1       -0.0079
      9 C          -9.0248  -17.4728   24.0581 C.ar    1  UNL1       -0.0152
     10 C          -8.6628  -16.1522   23.4457 C.ar    1  UNL1       -0.0037
     11 C          -8.2406  -15.0099   24.3215 C.ar    1  UNL1       -0.0003
     12 C          -8.1805  -15.1882   25.8096 C.ar    1  UNL1       -0.0000
     13 C          -8.5424  -16.5087   26.4220 C.ar    1  UNL1       -0.0003
     14 C          -8.9646  -17.6511   25.5463 C.ar    1  UNL1       -0.0037
     15 C         -10.8856  -18.3090   23.4766 C.ar    1  UNL1       -0.0152
     16 C         -11.5735  -17.1823   22.7643 C.ar    1  UNL1       -0.0037
     17 C         -13.0122  -16.8762   23.0585 C.ar    1  UNL1       -0.0003
     18 C         -13.7629  -17.6967   24.0650 C.ar    1  UNL1       -0.0000
     19 C         -13.0750  -18.8234   24.7774 C.ar    1  UNL1       -0.0003
     20 C         -11.6363  -19.1295   24.4832 C.ar    1  UNL1       -0.0037
     21 C          -9.8691  -19.7573   22.3066 C.3     1  UNL1        0.0140
     22 C         -10.6868  -19.4968   21.0764 C.3     1  UNL1        0.0222
     23 CA        -10.0582  -18.8404   19.8831 C.3     1  UNL1        0.0879
     24 N         -10.5437  -17.4977   19.4232 N.3     1  UNL1       -0.3179
     25 H1        -11.2988  -17.1823   20.0322 H       1  UNL1        0.1191
     26 H2        -10.8870  -17.5700   18.4655 H       1  UNL1        0.1191
     27 C          -8.9442  -19.5266   19.1497 C.2     1  UNL1        0.0644
     28 O          -9.2421  -20.6926   18.2542 O.co2   1  UNL1       -0.5478
     29 OXT        -7.5322  -19.0470   19.3118 O.co2   1  UNL1       -0.5478
@<TRIPOS>UNITY_ATOM_ATTR
28 1
charge -1
@<TRIPOS>BOND
     1     2     3    1
     2     3     4   ar
     3     4     5   ar
     4     5     6   ar
     5     6     7   ar
     6     7     1    1
     7     1    21    1
     8    21    22    1
     9    22    23    1
    10    23    24    1
    11    23    27    1
    12    27    28   ar
    13    27    29   ar
    14     1     9    1
    15     9    10   ar
    16    10    11   ar
    17    11    12   ar
    18    12    13   ar
    19    13    14   ar
    20     1    15    1
    21    15    16   ar
    22    16    17   ar
    23    17    18   ar
    24    18    19   ar
    25    19    20   ar
    26     7     8   ar
    27     8     3   ar
    28    14     9   ar
    29    20    15   ar
    30    24    25    1
    31    24    26    1
@<TRIPOS>MOLECULE
*****
 29 31 0 0 0
SMALL
GASTEIGER

@<TRIPOS>ATOM
      1 C          -8.8469  -17.5296   23.3387 C.3     1  UNL1        0.0564
      2 C          -6.6775  -20.6816   19.8231 C.3     1  UNL1        0.0310
      3 C          -7.8066  -19.7896   20.2466 C.ar    1  UNL1       -0.0221
      4 C          -8.9802  -19.5815   19.3359 C.ar    1  UNL1       -0.0043
      5 C         -10.1093  -18.6895   19.7594 C.ar    1  UNL1       -0.0006
      6 C         -10.0649  -18.0055   21.0936 C.ar    1  UNL1       -0.0037
      7 C          -8.8913  -18.2136   22.0044 C.ar    1  UNL1       -0.0155
      8 C          -7.7622  -19.1056   21.5809 C.ar    1  UNL1       -0.0079
      9 C         -10.3443  -17.5753   23.4119 C.ar    1  UNL1       -0.0152
     10 C         -11.0282  -18.7412   24.0625 C.ar    1  UNL1       -0.0037
     11 C         -12.5257  -18.7869   24.1358 C.ar    1  UNL1       -0.0003
     12 C         -13.3394  -17.6668   23.5585 C.ar    1  UNL1       -0.0000
     13 C         -12.6556  -16.5009   22.9079 C.ar    1  UNL1       -0.0003
     14 C         -11.1580  -16.4552   22.8346 C.ar    1  UNL1       -0.0037
     15 C          -8.8025  -16.8457   24.6729 C.ar    1  UNL1       -0.0152
     16 C          -8.6675  -17.6569   25.9274 C.ar    1  UNL1       -0.0037
     17 C          -8.6231  -16.9730   27.2617 C.ar    1  UNL1       -0.0003
     18 C          -8.7136  -15.4779   27.3415 C.ar    1  UNL1       -0.0000
     19 C          -8.8486  -14.6666   26.0870 C.ar    1  UNL1       -0.0003
     20 C          -8.8930  -15.3506   24.7527 C.ar    1  UNL1       -0.0037
     21 C          -7.3494  -17.4839   23.2654 C.3     1  UNL1        0.0140
     22 C          -6.6429  -16.1640   23.1726 C.3     1  UNL1        0.0222
     23 CA         -5.3354  -15.9617   23.8795 C.3     1  UNL1        0.0879
     24 N          -5.2617  -15.0617   25.0771 N.3     1  UNL1       -0.3179
     25 H1         -6.1856  -14.6742   25.2686 H       1  UNL1        0.1191
     26 H2         -4.6062  -14.3024   24.8919 H       1  UNL1        0.1191
     27 C          -4.1017  -16.6596   23.3887 C.2     1  UNL1        0.0644
     28 O          -3.2265  -16.0028   22.3626 O.co2   1  UNL1       -0.5478
     29 OXT        -3.7432  -18.0143   23.9238 O.co2   1  UNL1       -0.5478
@<TRIPOS>UNITY_ATOM_ATTR
28 1
charge -1
@<TRIPOS>BOND
     1     2     3    1
     2     3     4   ar
     3     4     5   ar
     4     5     6   ar
     5     6     7   ar
     6     7     1    1
     7     1    21    1
     8    21    22    1
     9    22    23    1
    10    23    24    1
    11    23    27    1
    12    27    28   ar
    13    27    29   ar
    14     1     9    1
    15     9    10   ar
    16    10    11   ar
    17    11    12   ar
    18    12    13   ar
    19    13    14   ar
    20     1    15    1
    21    15    16   ar
    22    16    17   ar
    23    17    18   ar
    24    18    19   ar
    25    19    20   ar
    26     7     8   ar
    27     8     3   ar
    28    14     9   ar
    29    20    15   ar
    30    24    25    1
    31    24    26    1
@<TRIPOS>MOLECULE
*****
 29 31 0 0 0
SMALL
GASTEIGER

@<TRIPOS>ATOM
      1 C          -8.9939  -17.6310   22.2443 C.3     1  UNL1        0.0564
      2 C          -8.0034  -21.2178   18.6174 C.3     1  UNL1        0.0310
      3 C          -8.9154  -20.1819   19.2050 C.ar    1  UNL1       -0.0221
      4 C         -10.2440  -19.9035   18.5669 C.ar    1  UNL1       -0.0043
      5 C         -11.1559  -18.8676   19.1545 C.ar    1  UNL1       -0.0006
      6 C         -10.7392  -18.1101   20.3803 C.ar    1  UNL1       -0.0037
      7 C          -9.4106  -18.3885   21.0184 C.ar    1  UNL1       -0.0155
      8 C          -8.4987  -19.4244   20.4308 C.ar    1  UNL1       -0.0079
      9 C         -10.4293  -17.5245   22.6663 C.ar    1  UNL1       -0.0152
     10 C         -11.1950  -16.2606   22.4086 C.ar    1  UNL1       -0.0037
     11 C         -12.6304  -16.1540   22.8307 C.ar    1  UNL1       -0.0003
     12 C         -13.3002  -17.3113   23.5105 C.ar    1  UNL1       -0.0000
     13 C         -12.5346  -18.5751   23.7682 C.ar    1  UNL1       -0.0003
     14 C         -11.0991  -18.6817   23.3461 C.ar    1  UNL1       -0.0037
     15 C          -8.5772  -16.8736   23.4700 C.ar    1  UNL1       -0.0152
     16 C          -7.7183  -15.6506   23.3402 C.ar    1  UNL1       -0.0037
     17 C          -7.3017  -14.8932   24.5660 C.ar    1  UNL1       -0.0003
     18 C          -7.7439  -15.3586   25.9217 C.ar    1  UNL1       -0.0000
     19 C          -8.6027  -16.5814   26.0516 C.ar    1  UNL1       -0.0003
     20 C          -9.0194  -17.3390   24.8257 C.ar    1  UNL1       -0.0037
     21 C          -7.5585  -17.7376   21.8222 C.3     1  UNL1        0.0140
     22 C          -6.6660  -18.7658   22.4517 C.3     1  UNL1        0.0222
     23 CA         -5.2036  -18.7942   22.1189 C.3     1  UNL1        0.0879
     24 N          -4.1965  -18.3174   23.1231 N.3     1  UNL1       -0.3179
     25 H1         -4.6780  -18.0118   23.9688 H       1  UNL1        0.1191
     26 H2         -3.6689  -17.5372   22.7314 H       1  UNL1        0.1191
     27 C          -4.7483  -19.2995   20.7820 C.2     1  UNL1        0.0644
     28 O          -5.0628  -20.7057   20.3649 O.co2   1  UNL1       -0.5478
     29 OXT        -3.9787  -18.3987   19.8621 O.co2   1  UNL1       -0.5478
@<TRIPOS>UNITY_ATOM_ATTR
28 1
charge -1
@<TRIPOS>BOND
     1     2     3    1
     2     3     4   ar
     3     4     5   ar
     4     5     6   ar
     5     6     7   ar
     6     7     1    1
     7     1    21    1
     8    21    22    1
     9    22    23    1
    10    23    24    1
    11    23    27    1
    12    27    28   ar
    13    27    29   ar
    14     1     9    1
    15     9    10   ar
    16    10    11   ar
    17    11    12   ar
    18    12    13   ar
    19    13    14   ar
    20     1    15    1
    21    15    16   ar
    22    16    17   ar
    23    17    18   ar
    24    18    19   ar
    25    19    20   ar
    26     7     8   ar
    27     8     3   ar
    28    14     9   ar
    29    20    15   ar
    30    24    25    1
    31    24    26    1
@<TRIPOS>MOLECULE
*****
 29 31 0 0 0
SMALL
GASTEIGER

@<TRIPOS>ATOM
      1 C          -7.4028  -18.8011   21.6448 C.3     1  UNL1        0.0564
      2 C          -3.2391  -18.2469   18.5859 C.3     1  UNL1        0.0310
      3 C          -3.8371  -18.6097   19.9128 C.ar    1  UNL1       -0.0221
      4 C          -2.9514  -19.0581   21.0372 C.ar    1  UNL1       -0.0043
      5 C          -3.5494  -19.4209   22.3642 C.ar    1  UNL1       -0.0006
      6 C          -5.0332  -19.3352   22.5667 C.ar    1  UNL1       -0.0037
      7 C          -5.9189  -18.8868   21.4423 C.ar    1  UNL1       -0.0155
      8 C          -5.3209  -18.5240   20.1154 C.ar    1  UNL1       -0.0079
      9 C          -7.6128  -19.7610   20.5115 C.ar    1  UNL1       -0.0152
     10 C          -8.7013  -19.5122   19.5098 C.ar    1  UNL1       -0.0037
     11 C          -8.9114  -20.4721   18.3765 C.ar    1  UNL1       -0.0003
     12 C          -8.0329  -21.6808   18.2447 C.ar    1  UNL1       -0.0000
     13 C          -6.9444  -21.9296   19.2463 C.ar    1  UNL1       -0.0003
     14 C          -6.7344  -20.9697   20.3798 C.ar    1  UNL1       -0.0037
     15 C          -8.8866  -18.7155   21.8472 C.ar    1  UNL1       -0.0152
     16 C          -9.5937  -19.7573   22.6626 C.ar    1  UNL1       -0.0037
     17 C         -11.0774  -19.6716   22.8651 C.ar    1  UNL1       -0.0003
     18 C         -11.8542  -18.5443   22.2521 C.ar    1  UNL1       -0.0000
     19 C         -11.1472  -17.5025   21.4368 C.ar    1  UNL1       -0.0003
     20 C          -9.6633  -17.5881   21.2343 C.ar    1  UNL1       -0.0037
     21 C          -7.1928  -17.8412   22.7781 C.3     1  UNL1        0.0140
     22 C          -7.2930  -16.3640   22.5381 C.3     1  UNL1        0.0222
     23 CA         -6.8519  -15.4001   23.5995 C.3     1  UNL1        0.0879
     24 N          -7.8318  -14.4243   24.1806 N.3     1  UNL1       -0.3179
     25 H1         -8.7431  -14.5555   23.7418 H       1  UNL1        0.1191
     26 H2         -7.5060  -13.4729   24.0100 H       1  UNL1        0.1191
     27 C          -5.4309  -15.4120   24.0797 C.2     1  UNL1        0.0644
     28 O          -5.0944  -14.8765   25.4399 O.co2   1  UNL1       -0.5478
     29 OXT        -4.3464  -15.9594   23.1998 O.co2   1  UNL1       -0.5478
@<TRIPOS>UNITY_ATOM_ATTR
28 1
charge -1
@<TRIPOS>BOND
     1     2     3    1
     2     3     4   ar
     3     4     5   ar
     4     5     6   ar
     5     6     7   ar
     6     7     1    1
     7     1    21    1
     8    21    22    1
     9    22    23    1
    10    23    24    1
    11    23    27    1
    12    27    28   ar
    13    27    29   ar
    14     1     9    1
    15     9    10   ar
    16    10    11   ar
    17    11    12   ar
    18    12    13   ar
    19    13    14   ar
    20     1    15    1
    21    15    16   ar
    22    16    17   ar
    23    17    18   ar
    24    18    19   ar
    25    19    20   ar
    26     7     8   ar
    27     8     3   ar
    28    14     9   ar
    29    20    15   ar
    30    24    25    1
    31    24    26    1
