@<TRIPOS>MOLECULE
*****
 35 37 0 0 0
SMALL
GASTEIGER

@<TRIPOS>ATOM
      1 C          -9.2631  -20.1481   23.0532 C.3     1  UNL1        0.0310
      2 C          -8.2501  -19.0418   23.0567 C.ar    1  UNL1       -0.0163
      3 C          -8.5365  -17.7650   23.7899 C.ar    1  UNL1        0.0544
      4 C          -7.5235  -16.6587   23.7935 C.ar    1  UNL1        0.3417
      5 O          -7.8100  -15.3818   24.5267 O.2     1  UNL1       -0.2448
      6 O          -6.2241  -16.8293   23.0639 O.2     1  UNL1       -0.4212
      7 C          -5.9376  -18.1062   22.3306 C.ar    1  UNL1        0.1515
      8 C          -4.6382  -18.2768   21.6010 C.ar    1  UNL1        0.0775
      9 C          -4.3518  -19.5536   20.8679 C.ar    1  UNL1        0.1803
     10 C          -5.3648  -20.6599   20.8643 C.ar    1  UNL1        0.1747
     11 F          -5.0783  -21.9368   20.1311 F       1  UNL1       -0.2009
     12 C          -6.6642  -20.4893   21.5939 C.ar    1  UNL1        0.0355
     13 C          -6.9506  -19.2124   22.3271 C.ar    1  UNL1        0.0331
     14 C          -9.8360  -17.5943   24.5196 C.3     1  UNL1        0.0612
     15 C         -11.1336  -17.6958   23.7741 C.ar    1  UNL1        0.0111
     16 C         -12.3885  -18.0784   24.5015 C.ar    1  UNL1       -0.0016
     17 C         -13.6862  -18.1799   23.7560 C.ar    1  UNL1        0.0011
     18 C         -13.7290  -17.8988   22.2832 C.ar    1  UNL1        0.0181
     19 C         -12.4742  -17.5163   21.5558 C.ar    1  UNL1        0.0928
     20 C         -11.1765  -17.4148   22.3014 C.ar    1  UNL1        0.1509
     21 F          -9.9216  -17.0323   21.5740 F       1  UNL1       -0.2031
     22 N         -12.5170  -17.2353   20.0830 N.pl3   1  UNL1       -0.2034
     23 H         -13.0985  -17.7710   19.4964 H       1  UNL1        0.1749
     24 S         -11.6738  -16.1381   19.5041 S.O2    1  UNL1        0.1068
     25 N         -10.8307  -15.0408   18.9251 N.3     1  UNL1       -0.1906
     26 O         -10.5421  -17.1051   19.3197 O.2     1  UNL1       -0.1383
     27 O         -12.8055  -15.1711   19.6885 O.2     1  UNL1       -0.1383
     28 H          -9.9140  -15.4120   18.6756 H       1  UNL1        0.1456
     29 H         -10.7202  -14.2971   19.6145 H       1  UNL1        0.1456
     30 O          -3.0523  -19.7242   20.1382 O.3     1  UNL1       -0.4077
     31 C          -1.8403  -18.9562   20.5753 C.2     1  UNL1        0.4096
     32 O          -1.2962  -19.1388   21.9613 O.2     1  UNL1       -0.2258
     33 N          -1.1723  -18.0056   19.6266 N.am    1  UNL1       -0.2422
     34 C           0.0397  -17.2376   20.0637 C.3     1  UNL1        0.1184
     35 C          -1.7164  -17.8230   18.2407 C.3     1  UNL1        0.1184
@<TRIPOS>BOND
     1     1     2    1
     2     2     3   ar
     3     3    14    1
     4    14    15    1
     5    15    16   ar
     6    16    17   ar
     7    17    18   ar
     8    18    19   ar
     9    19    22    1
    10    22    24    1
    11    24    25    1
    12    24    26    2
    13    24    27    2
    14    19    20   ar
    15    20    21    1
    16     3     4   ar
    17     4     5    2
    18     4     6   ar
    19     6     7   ar
    20     7     8   ar
    21     8     9   ar
    22     9    30    1
    23    30    31    1
    24    31    32    2
    25    31    33   am
    26    33    34    1
    27    33    35    1
    28     9    10   ar
    29    10    11    1
    30    10    12   ar
    31    12    13   ar
    32    13     2   ar
    33    20    15   ar
    34    13     7   ar
    35    22    23    1
    36    25    28    1
    37    25    29    1
@<TRIPOS>MOLECULE
*****
 35 37 0 0 0
SMALL
GASTEIGER

@<TRIPOS>ATOM
      1 C           3.1601   -1.7976   21.4895 C.3     1  UNL1        0.0310
      2 C           2.8865   -1.0362   20.2264 C.ar    1  UNL1       -0.0163
      3 C           3.5409   -1.4532   18.9427 C.ar    1  UNL1        0.0544
      4 C           3.2673   -0.6918   17.6796 C.ar    1  UNL1        0.3417
      5 O           3.9217   -1.1089   16.3958 O.2     1  UNL1       -0.2448
      6 O           2.3394    0.4865   17.7001 O.2     1  UNL1       -0.4212
      7 C           1.6850    0.9035   18.9839 C.ar    1  UNL1        0.1515
      8 C           0.7571    2.0818   19.0044 C.ar    1  UNL1        0.0775
      9 C           0.1027    2.4988   20.2881 C.ar    1  UNL1        0.1803
     10 C           0.3762    1.7375   21.5512 C.ar    1  UNL1        0.1747
     11 F          -0.2782    2.1545   22.8350 F       1  UNL1       -0.2009
     12 C           1.3042    0.5591   21.5307 C.ar    1  UNL1        0.0355
     13 C           1.9585    0.1422   20.2470 C.ar    1  UNL1        0.0331
     14 C           4.4688   -2.6316   18.9221 C.3     1  UNL1        0.0612
     15 C           5.9050   -2.4623   19.3206 C.ar    1  UNL1        0.0111
     16 C           6.7884   -1.5191   18.5591 C.ar    1  UNL1       -0.0016
     17 C           8.2246   -1.3498   18.9576 C.ar    1  UNL1        0.0011
     18 C           8.7773   -2.1238   20.1176 C.ar    1  UNL1        0.0181
     19 C           7.8938   -3.0670   20.8791 C.ar    1  UNL1        0.0928
     20 C           6.4576   -3.2363   20.4805 C.ar    1  UNL1        0.1509
     21 F           5.5742   -4.1795   21.2420 F       1  UNL1       -0.2031
     22 N           8.4465   -3.8410   22.0390 N.pl3   1  UNL1       -0.2034
     23 H           8.6936   -3.3738   22.8696 H       1  UNL1        0.1749
     24 S           8.6226   -5.3269   21.9335 S.O2    1  UNL1        0.1068
     25 N           8.7987   -6.8128   21.8280 N.3     1  UNL1       -0.1906
     26 O           9.5349   -5.1353   20.7583 O.2     1  UNL1       -0.1383
     27 O           7.7104   -5.5185   23.1086 O.2     1  UNL1       -0.1383
     28 H           9.4235   -7.0268   21.0506 H       1  UNL1        0.1456
     29 H           7.8924   -7.2520   21.6665 H       1  UNL1        0.1456
     30 O          -0.8253    3.6772   20.3087 O.3     1  UNL1       -0.4077
     31 C          -2.2738    3.4972   19.9632 C.2     1  UNL1        0.4096
     32 O          -3.1826    2.7596   20.9014 O.2     1  UNL1       -0.2258
     33 N          -2.8136    4.0548   18.6796 N.am    1  UNL1       -0.2422
     34 C          -4.2621    3.8748   18.3341 C.3     1  UNL1        0.1184
     35 C          -1.9048    4.7924   17.7414 C.3     1  UNL1        0.1184
@<TRIPOS>BOND
     1     1     2    1
     2     2     3   ar
     3     3    14    1
     4    14    15    1
     5    15    16   ar
     6    16    17   ar
     7    17    18   ar
     8    18    19   ar
     9    19    22    1
    10    22    24    1
    11    24    25    1
    12    24    26    2
    13    24    27    2
    14    19    20   ar
    15    20    21    1
    16     3     4   ar
    17     4     5    2
    18     4     6   ar
    19     6     7   ar
    20     7     8   ar
    21     8     9   ar
    22     9    30    1
    23    30    31    1
    24    31    32    2
    25    31    33   am
    26    33    34    1
    27    33    35    1
    28     9    10   ar
    29    10    11    1
    30    10    12   ar
    31    12    13   ar
    32    13     2   ar
    33    20    15   ar
    34    13     7   ar
    35    22    23    1
    36    25    28    1
    37    25    29    1
@<TRIPOS>MOLECULE
*****
 35 37 0 0 0
SMALL
GASTEIGER

@<TRIPOS>ATOM
      1 C         -11.5408   -3.4794   18.9140 C.3     1  UNL1        0.0310
      2 C         -12.9308   -2.9704   19.1563 C.ar    1  UNL1       -0.0163
      3 C         -13.9765   -3.8851   19.7217 C.ar    1  UNL1        0.0544
      4 C         -15.3666   -3.3762   19.9640 C.ar    1  UNL1        0.3417
      5 O         -16.4123   -4.2910   20.5295 O.2     1  UNL1       -0.2448
      6 O         -15.7109   -1.9525   19.6408 O.2     1  UNL1       -0.4212
      7 C         -14.6652   -1.0377   19.0754 C.ar    1  UNL1        0.1515
      8 C         -15.0096    0.3860   18.7522 C.ar    1  UNL1        0.0775
      9 C         -13.9639    1.3007   18.1868 C.ar    1  UNL1        0.1803
     10 C         -12.5738    0.7918   17.9445 C.ar    1  UNL1        0.1747
     11 F         -11.5281    1.7066   17.3790 F       1  UNL1       -0.2009
     12 C         -12.2295   -0.6319   18.2677 C.ar    1  UNL1        0.0355
     13 C         -13.2752   -1.5466   18.8331 C.ar    1  UNL1        0.0331
     14 C         -13.6322   -5.3089   20.0449 C.3     1  UNL1        0.0612
     15 C         -13.7119   -6.3605   18.9783 C.ar    1  UNL1        0.0111
     16 C         -12.5359   -6.6095   18.0811 C.ar    1  UNL1       -0.0016
     17 C         -12.6157   -7.6611   17.0145 C.ar    1  UNL1        0.0011
     18 C         -13.8716   -8.4638   16.8450 C.ar    1  UNL1        0.0181
     19 C         -15.0476   -8.2148   17.7423 C.ar    1  UNL1        0.0928
     20 C         -14.9677   -7.1631   18.8089 C.ar    1  UNL1        0.1509
     21 F         -16.1437   -6.9142   19.7062 F       1  UNL1       -0.2031
     22 N         -16.3034   -9.0174   17.5729 N.pl3   1  UNL1       -0.2034
     23 H         -16.9091   -8.8306   16.8196 H       1  UNL1        0.1749
     24 S         -16.6362  -10.1047   18.5512 S.O2    1  UNL1        0.1068
     25 N         -16.9690  -11.1920   19.5295 N.3     1  UNL1       -0.1906
     26 O         -17.8719   -9.3589   18.9596 O.2     1  UNL1       -0.1383
     27 O         -15.4005  -10.8504   18.1427 O.2     1  UNL1       -0.1383
     28 H         -17.8367  -10.9604   20.0131 H       1  UNL1        0.1456
     29 H         -16.2139  -11.2804   20.2095 H       1  UNL1        0.1456
     30 O         -14.3083    2.7245   17.8636 O.3     1  UNL1       -0.4077
     31 C         -15.2682    3.4801   18.7340 C.2     1  UNL1        0.4096
     32 O         -14.9818    3.6475   20.1969 O.2     1  UNL1       -0.2258
     33 N         -16.5144    4.0683   18.1416 N.am    1  UNL1       -0.2422
     34 C         -17.4743    4.8238   19.0120 C.3     1  UNL1        0.1184
     35 C         -16.8007    3.9008   16.6787 C.3     1  UNL1        0.1184
@<TRIPOS>BOND
     1     1     2    1
     2     2     3   ar
     3     3    14    1
     4    14    15    1
     5    15    16   ar
     6    16    17   ar
     7    17    18   ar
     8    18    19   ar
     9    19    22    1
    10    22    24    1
    11    24    25    1
    12    24    26    2
    13    24    27    2
    14    19    20   ar
    15    20    21    1
    16     3     4   ar
    17     4     5    2
    18     4     6   ar
    19     6     7   ar
    20     7     8   ar
    21     8     9   ar
    22     9    30    1
    23    30    31    1
    24    31    32    2
    25    31    33   am
    26    33    34    1
    27    33    35    1
    28     9    10   ar
    29    10    11    1
    30    10    12   ar
    31    12    13   ar
    32    13     2   ar
    33    20    15   ar
    34    13     7   ar
    35    22    23    1
    36    25    28    1
    37    25    29    1
@<TRIPOS>MOLECULE
*****
 35 37 0 0 0
SMALL
GASTEIGER

@<TRIPOS>ATOM
      1 C           0.6290    3.1967   18.7837 C.3     1  UNL1        0.0310
      2 C           0.9339    2.2002   19.8625 C.ar    1  UNL1       -0.0163
      3 C           0.3850    2.3992   21.2442 C.ar    1  UNL1        0.0544
      4 C           0.6898    1.4026   22.3231 C.ar    1  UNL1        0.3417
      5 O           0.1409    1.6017   23.7048 O.2     1  UNL1       -0.2448
      6 O           1.5436    0.2070   22.0203 O.2     1  UNL1       -0.4212
      7 C           2.0925    0.0080   20.6385 C.ar    1  UNL1        0.1515
      8 C           2.9463   -1.1876   20.3357 C.ar    1  UNL1        0.0775
      9 C           3.4951   -1.3866   18.9541 C.ar    1  UNL1        0.1803
     10 C           3.1903   -0.3900   17.8752 C.ar    1  UNL1        0.1747
     11 F           3.7392   -0.5891   16.4935 F       1  UNL1       -0.2009
     12 C           2.3366    0.8055   18.1780 C.ar    1  UNL1        0.0355
     13 C           1.7877    1.0045   19.5597 C.ar    1  UNL1        0.0331
     14 C          -0.4688    3.5948   21.5471 C.3     1  UNL1        0.0612
     15 C          -1.9580    3.5127   21.3876 C.ar    1  UNL1        0.0111
     16 C          -2.5675    3.5285   20.0172 C.ar    1  UNL1       -0.0016
     17 C          -4.0568    3.4464   19.8577 C.ar    1  UNL1        0.0011
     18 C          -4.9365    3.3485   21.0687 C.ar    1  UNL1        0.0181
     19 C          -4.3269    3.3327   22.4392 C.ar    1  UNL1        0.0928
     20 C          -2.8376    3.4148   22.5986 C.ar    1  UNL1        0.1509
     21 F          -2.2281    3.3990   23.9691 F       1  UNL1       -0.2031
     22 N          -5.2066    3.2348   23.6502 N.pl3   1  UNL1       -0.2034
     23 H          -5.7280    2.4162   23.8150 H       1  UNL1        0.1749
     24 S          -5.2918    4.3842   24.6101 S.O2    1  UNL1        0.1068
     25 N          -5.3770    5.5337   25.5701 N.3     1  UNL1       -0.1906
     26 O          -4.8847    3.4767   25.7329 O.2     1  UNL1       -0.1383
     27 O          -5.6988    5.2917   23.4874 O.2     1  UNL1       -0.1383
     28 H          -5.1353    5.2125   26.5075 H       1  UNL1        0.1456
     29 H          -6.3269    5.9052   25.5723 H       1  UNL1        0.1456
     30 O           4.3489   -2.5822   18.6512 O.3     1  UNL1       -0.4077
     31 C           5.8408   -2.4409   18.5847 C.2     1  UNL1        0.4096
     32 O           6.4919   -1.9447   17.3277 O.2     1  UNL1       -0.2258
     33 N           6.6816   -2.7959   19.7751 N.am    1  UNL1       -0.2422
     34 C           8.1734   -2.6546   19.7086 C.3     1  UNL1        0.1184
     35 C           6.0305   -3.2921   21.0320 C.3     1  UNL1        0.1184
@<TRIPOS>BOND
     1     1     2    1
     2     2     3   ar
     3     3    14    1
     4    14    15    1
     5    15    16   ar
     6    16    17   ar
     7    17    18   ar
     8    18    19   ar
     9    19    22    1
    10    22    24    1
    11    24    25    1
    12    24    26    2
    13    24    27    2
    14    19    20   ar
    15    20    21    1
    16     3     4   ar
    17     4     5    2
    18     4     6   ar
    19     6     7   ar
    20     7     8   ar
    21     8     9   ar
    22     9    30    1
    23    30    31    1
    24    31    32    2
    25    31    33   am
    26    33    34    1
    27    33    35    1
    28     9    10   ar
    29    10    11    1
    30    10    12   ar
    31    12    13   ar
    32    13     2   ar
    33    20    15   ar
    34    13     7   ar
    35    22    23    1
    36    25    28    1
    37    25    29    1
@<TRIPOS>MOLECULE
*****
 35 37 0 0 0
SMALL
GASTEIGER

@<TRIPOS>ATOM
      1 C           0.9608    3.1782   18.4136 C.3     1  UNL1        0.0310
      2 C           1.1632    2.2102   19.5415 C.ar    1  UNL1       -0.0163
      3 C           0.5537    2.4849   20.8842 C.ar    1  UNL1        0.0544
      4 C           0.7561    1.5170   22.0120 C.ar    1  UNL1        0.3417
      5 O           0.1465    1.7918   23.3548 O.2     1  UNL1       -0.2448
      6 O           1.5681    0.2742   21.7972 O.2     1  UNL1       -0.4212
      7 C           2.1778   -0.0006   20.4544 C.ar    1  UNL1        0.1515
      8 C           2.9898   -1.2433   20.2396 C.ar    1  UNL1        0.0775
      9 C           3.5994   -1.5181   18.8969 C.ar    1  UNL1        0.1803
     10 C           3.3969   -0.5501   17.7691 C.ar    1  UNL1        0.1747
     11 F           4.0066   -0.8249   16.4263 F       1  UNL1       -0.2009
     12 C           2.5849    0.6926   17.9839 C.ar    1  UNL1        0.0355
     13 C           1.9753    0.9674   19.3266 C.ar    1  UNL1        0.0331
     14 C          -0.2584    3.7277   21.0991 C.3     1  UNL1        0.0612
     15 C          -1.7553    3.6463   21.1487 C.ar    1  UNL1        0.0111
     16 C          -2.4571    3.5354   22.4697 C.ar    1  UNL1       -0.0016
     17 C          -3.9540    3.4539   22.5193 C.ar    1  UNL1        0.0011
     18 C          -4.7493    3.4833   21.2478 C.ar    1  UNL1        0.0181
     19 C          -4.0475    3.5942   19.9267 C.ar    1  UNL1        0.0928
     20 C          -2.5505    3.6757   19.8772 C.ar    1  UNL1        0.1509
     21 F          -1.8488    3.7866   18.5561 F       1  UNL1       -0.2031
     22 N          -4.8427    3.6236   18.6552 N.pl3   1  UNL1       -0.2034
     23 H          -4.4100    3.4033   17.7988 H       1  UNL1        0.1749
     24 S          -6.2972    3.9888   18.6885 S.O2    1  UNL1        0.1068
     25 N          -7.7517    4.3539   18.7219 N.3     1  UNL1       -0.1906
     26 O          -5.9317    5.4435   18.6992 O.2     1  UNL1       -0.1383
     27 O          -6.6626    2.5341   18.6779 O.2     1  UNL1       -0.1383
     28 H          -7.8471    5.3693   18.7363 H       1  UNL1        0.1456
     29 H          -8.1821    3.9601   19.5586 H       1  UNL1        0.1456
     30 O           4.4114   -2.7608   18.6820 O.3     1  UNL1       -0.4077
     31 C           5.9097   -2.6882   18.6883 C.2     1  UNL1        0.4096
     32 O           6.6464   -2.2877   17.4445 O.2     1  UNL1       -0.2258
     33 N           6.6712   -3.0159   19.9384 N.am    1  UNL1       -0.2422
     34 C           8.1694   -2.9433   19.9447 C.3     1  UNL1        0.1184
     35 C           5.9345   -3.4164   21.1822 C.3     1  UNL1        0.1184
@<TRIPOS>BOND
     1     1     2    1
     2     2     3   ar
     3     3    14    1
     4    14    15    1
     5    15    16   ar
     6    16    17   ar
     7    17    18   ar
     8    18    19   ar
     9    19    22    1
    10    22    24    1
    11    24    25    1
    12    24    26    2
    13    24    27    2
    14    19    20   ar
    15    20    21    1
    16     3     4   ar
    17     4     5    2
    18     4     6   ar
    19     6     7   ar
    20     7     8   ar
    21     8     9   ar
    22     9    30    1
    23    30    31    1
    24    31    32    2
    25    31    33   am
    26    33    34    1
    27    33    35    1
    28     9    10   ar
    29    10    11    1
    30    10    12   ar
    31    12    13   ar
    32    13     2   ar
    33    20    15   ar
    34    13     7   ar
    35    22    23    1
    36    25    28    1
    37    25    29    1
@<TRIPOS>MOLECULE
*****
 35 37 0 0 0
SMALL
GASTEIGER

@<TRIPOS>ATOM
      1 C           5.8915   -1.7711   24.8473 C.3     1  UNL1        0.0310
      2 C           5.7643   -2.3715   23.4786 C.ar    1  UNL1       -0.0163
      3 C           6.7489   -3.4053   23.0186 C.ar    1  UNL1        0.0544
      4 C           6.6217   -4.0057   21.6499 C.ar    1  UNL1        0.3417
      5 O           7.6065   -5.0396   21.1900 O.2     1  UNL1       -0.2448
      6 O           5.5099   -3.5723   20.7412 O.2     1  UNL1       -0.4212
      7 C           4.5251   -2.5384   21.2011 C.ar    1  UNL1        0.1515
      8 C           3.4133   -2.1050   20.2924 C.ar    1  UNL1        0.0775
      9 C           2.4286   -1.0712   20.7524 C.ar    1  UNL1        0.1803
     10 C           2.5558   -0.4708   22.1211 C.ar    1  UNL1        0.1747
     11 F           1.5711    0.5631   22.5810 F       1  UNL1       -0.2009
     12 C           3.6677   -0.9042   23.0298 C.ar    1  UNL1        0.0355
     13 C           4.6524   -1.9380   22.5699 C.ar    1  UNL1        0.0331
     14 C           7.8609   -3.8388   23.9274 C.3     1  UNL1        0.0612
     15 C           7.7154   -5.0856   24.7486 C.ar    1  UNL1        0.0111
     16 C           8.0853   -6.4164   24.1637 C.ar    1  UNL1       -0.0016
     17 C           7.9399   -7.6631   24.9850 C.ar    1  UNL1        0.0011
     18 C           7.4245   -7.5790   26.3912 C.ar    1  UNL1        0.0181
     19 C           7.0547   -6.2482   26.9761 C.ar    1  UNL1        0.0928
     20 C           7.2002   -5.0015   26.1548 C.ar    1  UNL1        0.1509
     21 F           6.8303   -3.6706   26.7397 F       1  UNL1       -0.2031
     22 N           6.5394   -6.1641   28.3823 N.pl3   1  UNL1       -0.2034
     23 H           5.6147   -6.4348   28.5848 H       1  UNL1        0.1749
     24 S           7.4329   -5.6675   29.4800 S.O2    1  UNL1        0.1068
     25 N           8.3264   -5.1709   30.5778 N.3     1  UNL1       -0.1906
     26 O           8.3303   -6.8537   29.2861 O.2     1  UNL1       -0.1383
     27 O           6.5355   -4.4814   29.6739 O.2     1  UNL1       -0.1383
     28 H           9.1043   -5.8188   30.7023 H       1  UNL1        0.1456
     29 H           7.7949   -5.1069   31.4460 H       1  UNL1        0.1456
     30 O           1.3167   -0.6377   19.8436 O.3     1  UNL1       -0.4077
     31 C           1.4920    0.5654   18.9651 C.2     1  UNL1        0.4096
     32 O           2.5009    0.5431   17.8553 O.2     1  UNL1       -0.2258
     33 N           0.6584    1.7908   19.1963 N.am    1  UNL1       -0.2422
     34 C           0.8337    2.9939   18.3178 C.3     1  UNL1        0.1184
     35 C          -0.3506    1.8131   20.3062 C.3     1  UNL1        0.1184
@<TRIPOS>BOND
     1     1     2    1
     2     2     3   ar
     3     3    14    1
     4    14    15    1
     5    15    16   ar
     6    16    17   ar
     7    17    18   ar
     8    18    19   ar
     9    19    22    1
    10    22    24    1
    11    24    25    1
    12    24    26    2
    13    24    27    2
    14    19    20   ar
    15    20    21    1
    16     3     4   ar
    17     4     5    2
    18     4     6   ar
    19     6     7   ar
    20     7     8   ar
    21     8     9   ar
    22     9    30    1
    23    30    31    1
    24    31    32    2
    25    31    33   am
    26    33    34    1
    27    33    35    1
    28     9    10   ar
    29    10    11    1
    30    10    12   ar
    31    12    13   ar
    32    13     2   ar
    33    20    15   ar
    34    13     7   ar
    35    22    23    1
    36    25    28    1
    37    25    29    1
@<TRIPOS>MOLECULE
*****
 35 37 0 0 0
SMALL
GASTEIGER

@<TRIPOS>ATOM
      1 C         -13.7701    0.8030   18.5663 C.3     1  UNL1        0.0310
      2 C         -14.5198   -0.4329   18.9670 C.ar    1  UNL1       -0.0163
      3 C         -15.9820   -0.3510   19.2914 C.ar    1  UNL1        0.0544
      4 C         -16.7316   -1.5869   19.6921 C.ar    1  UNL1        0.3417
      5 O         -18.1939   -1.5050   20.0165 O.2     1  UNL1       -0.2448
      6 O         -16.0192   -2.9046   19.7683 O.2     1  UNL1       -0.4212
      7 C         -14.5569   -2.9866   19.4439 C.ar    1  UNL1        0.1515
      8 C         -13.8444   -4.3043   19.5202 C.ar    1  UNL1        0.0775
      9 C         -12.3822   -4.3862   19.1958 C.ar    1  UNL1        0.1803
     10 C         -11.6325   -3.1503   18.7951 C.ar    1  UNL1        0.1747
     11 F         -10.1703   -3.2322   18.4707 F       1  UNL1       -0.2009
     12 C         -12.3450   -1.8325   18.7188 C.ar    1  UNL1        0.0355
     13 C         -13.8072   -1.7507   19.0432 C.ar    1  UNL1        0.0331
     14 C         -16.6945    0.9668   19.2151 C.3     1  UNL1        0.0612
     15 C         -16.7154    1.8782   20.4062 C.ar    1  UNL1        0.0111
     16 C         -17.4595    1.4764   21.6451 C.ar    1  UNL1       -0.0016
     17 C         -17.4803    2.3878   22.8363 C.ar    1  UNL1        0.0011
     18 C         -16.7570    3.7010   22.7886 C.ar    1  UNL1        0.0181
     19 C         -16.0129    4.1028   21.5497 C.ar    1  UNL1        0.0928
     20 C         -15.9921    3.1914   20.3585 C.ar    1  UNL1        0.1509
     21 F         -15.2480    3.5932   19.1196 F       1  UNL1       -0.2031
     22 N         -15.2896    5.4160   21.5020 N.pl3   1  UNL1       -0.2034
     23 H         -15.2978    5.9528   20.6767 H       1  UNL1        0.1749
     24 S         -14.5539    5.9114   22.7116 S.O2    1  UNL1        0.1068
     25 N         -13.8181    6.4068   23.9213 N.3     1  UNL1       -0.1906
     26 O         -15.5888    6.9801   22.9034 O.2     1  UNL1       -0.1383
     27 O         -13.5190    4.8427   22.5198 O.2     1  UNL1       -0.1383
     28 H         -14.3148    7.2042   24.3185 H       1  UNL1        0.1456
     29 H         -12.8762    6.6921   23.6532 H       1  UNL1        0.1456
     30 O         -11.6697   -5.7040   19.2721 O.3     1  UNL1       -0.4077
     31 C         -11.1971   -6.3748   18.0164 C.2     1  UNL1        0.4096
     32 O          -9.8384   -6.0602   17.4638 O.2     1  UNL1       -0.2258
     33 N         -12.0830   -7.3601   17.3134 N.am    1  UNL1       -0.2422
     34 C         -11.6104   -8.0309   16.0578 C.3     1  UNL1        0.1184
     35 C         -13.4416   -7.6746   17.8661 C.3     1  UNL1        0.1184
@<TRIPOS>BOND
     1     1     2    1
     2     2     3   ar
     3     3    14    1
     4    14    15    1
     5    15    16   ar
     6    16    17   ar
     7    17    18   ar
     8    18    19   ar
     9    19    22    1
    10    22    24    1
    11    24    25    1
    12    24    26    2
    13    24    27    2
    14    19    20   ar
    15    20    21    1
    16     3     4   ar
    17     4     5    2
    18     4     6   ar
    19     6     7   ar
    20     7     8   ar
    21     8     9   ar
    22     9    30    1
    23    30    31    1
    24    31    32    2
    25    31    33   am
    26    33    34    1
    27    33    35    1
    28     9    10   ar
    29    10    11    1
    30    10    12   ar
    31    12    13   ar
    32    13     2   ar
    33    20    15   ar
    34    13     7   ar
    35    22    23    1
    36    25    28    1
    37    25    29    1
@<TRIPOS>MOLECULE
*****
 35 37 0 0 0
SMALL
GASTEIGER

@<TRIPOS>ATOM
      1 C          -9.0526  -18.0145   21.9882 C.3     1  UNL1        0.0310
      2 C          -8.4034  -18.9268   20.9902 C.ar    1  UNL1       -0.0163
      3 C          -9.2218  -19.5450   19.8957 C.ar    1  UNL1        0.0544
      4 C          -8.5726  -20.4573   18.8976 C.ar    1  UNL1        0.3417
      5 O          -9.3911  -21.0755   17.8031 O.2     1  UNL1       -0.2448
      6 O          -7.1049  -20.7515   18.9940 O.2     1  UNL1       -0.4212
      7 C          -6.2864  -20.1333   20.0886 C.ar    1  UNL1        0.1515
      8 C          -4.8187  -20.4274   20.1850 C.ar    1  UNL1        0.0775
      9 C          -4.0003  -19.8092   21.2795 C.ar    1  UNL1        0.1803
     10 C          -4.6495  -18.8969   22.2775 C.ar    1  UNL1        0.1747
     11 F          -3.8310  -18.2787   23.3721 F       1  UNL1       -0.2009
     12 C          -6.1172  -18.6027   22.1811 C.ar    1  UNL1        0.0355
     13 C          -6.9356  -19.2209   21.0866 C.ar    1  UNL1        0.0331
     14 C         -10.6896  -19.2509   19.7992 C.3     1  UNL1        0.0612
     15 C         -11.3240  -18.2797   20.7501 C.ar    1  UNL1        0.0111
     16 C         -11.5217  -16.8501   20.3412 C.ar    1  UNL1       -0.0016
     17 C         -12.1561  -15.8789   21.2921 C.ar    1  UNL1        0.0011
     18 C         -12.5927  -16.3372   22.6520 C.ar    1  UNL1        0.0181
     19 C         -12.3950  -17.7668   23.0610 C.ar    1  UNL1        0.0928
     20 C         -11.7606  -18.7380   22.1100 C.ar    1  UNL1        0.1509
     21 F         -11.5628  -20.1676   22.5190 F       1  UNL1       -0.2031
     22 N         -12.8315  -18.2251   24.4209 N.pl3   1  UNL1       -0.2034
     23 H         -12.1652  -18.3560   25.1337 H       1  UNL1        0.1749
     24 S         -14.2834  -18.4840   24.6947 S.O2    1  UNL1        0.1068
     25 N         -15.7353  -18.7429   24.9685 N.3     1  UNL1       -0.1906
     26 O         -13.9755  -18.6703   26.1509 O.2     1  UNL1       -0.1383
     27 O         -14.5913  -18.2977   23.2385 O.2     1  UNL1       -0.1383
     28 H         -15.8671  -18.9211   25.9641 H       1  UNL1        0.1456
     29 H         -16.0424  -19.5557   24.4341 H       1  UNL1        0.1456
     30 O          -2.5325  -20.1033   21.3759 O.3     1  UNL1       -0.4077
     31 C          -1.5405  -18.9782   21.3751 C.2     1  UNL1        0.4096
     32 O          -0.7687  -18.6579   22.6209 O.2     1  UNL1       -0.2258
     33 N          -1.3203  -18.1734   20.1286 N.am    1  UNL1       -0.2422
     34 C          -0.3283  -17.0483   20.1278 C.3     1  UNL1        0.1184
     35 C          -2.0920  -18.4937   18.8829 C.3     1  UNL1        0.1184
@<TRIPOS>BOND
     1     1     2    1
     2     2     3   ar
     3     3    14    1
     4    14    15    1
     5    15    16   ar
     6    16    17   ar
     7    17    18   ar
     8    18    19   ar
     9    19    22    1
    10    22    24    1
    11    24    25    1
    12    24    26    2
    13    24    27    2
    14    19    20   ar
    15    20    21    1
    16     3     4   ar
    17     4     5    2
    18     4     6   ar
    19     6     7   ar
    20     7     8   ar
    21     8     9   ar
    22     9    30    1
    23    30    31    1
    24    31    32    2
    25    31    33   am
    26    33    34    1
    27    33    35    1
    28     9    10   ar
    29    10    11    1
    30    10    12   ar
    31    12    13   ar
    32    13     2   ar
    33    20    15   ar
    34    13     7   ar
    35    22    23    1
    36    25    28    1
    37    25    29    1
@<TRIPOS>MOLECULE
*****
 35 37 0 0 0
SMALL
GASTEIGER

@<TRIPOS>ATOM
      1 C           3.1692   -1.3093   22.6497 C.3     1  UNL1        0.0310
      2 C           4.1241   -2.2959   22.0458 C.ar    1  UNL1       -0.0163
      3 C           3.9899   -2.6829   20.6028 C.ar    1  UNL1        0.0544
      4 C           4.9448   -3.6696   19.9990 C.ar    1  UNL1        0.3417
      5 O           4.8105   -4.0565   18.5559 O.2     1  UNL1       -0.2448
      6 O           6.0339   -4.2692   20.8380 O.2     1  UNL1       -0.4212
      7 C           6.1682   -3.8823   22.2811 C.ar    1  UNL1        0.1515
      8 C           7.2574   -4.4820   23.1201 C.ar    1  UNL1        0.0775
      9 C           7.3916   -4.0950   24.5631 C.ar    1  UNL1        0.1803
     10 C           6.4367   -3.1083   25.1670 C.ar    1  UNL1        0.1747
     11 F           6.5710   -2.7214   26.6100 F       1  UNL1       -0.2009
     12 C           5.3476   -2.5087   24.3279 C.ar    1  UNL1        0.0355
     13 C           5.2133   -2.8956   22.8850 C.ar    1  UNL1        0.0331
     14 C           2.9007   -2.0832   19.7637 C.3     1  UNL1        0.0612
     15 C           2.9295   -0.6209   19.4307 C.ar    1  UNL1        0.0111
     16 C           4.1603   -0.0136   18.8256 C.ar    1  UNL1       -0.0016
     17 C           4.1891    1.4487   18.4926 C.ar    1  UNL1        0.0011
     18 C           2.9869    2.3037   18.7646 C.ar    1  UNL1        0.0181
     19 C           1.7561    1.6963   19.3697 C.ar    1  UNL1        0.0928
     20 C           1.7274    0.2340   19.7027 C.ar    1  UNL1        0.1509
     21 F           0.4965   -0.3734   20.3078 F       1  UNL1       -0.2031
     22 N           0.5540    2.5512   19.6418 N.pl3   1  UNL1       -0.2034
     23 H           0.0923    3.0023   18.8984 H       1  UNL1        0.1749
     24 S           0.0553    2.7188   21.0464 S.O2    1  UNL1        0.1068
     25 N          -0.4435    2.8864   22.4512 N.3     1  UNL1       -0.1906
     26 O           1.3728    3.3161   21.4429 O.2     1  UNL1       -0.1383
     27 O          -1.2622    2.1215   20.6499 O.2     1  UNL1       -0.1383
     28 H           0.2882    3.3073   23.0238 H       1  UNL1        0.1456
     29 H          -0.6929    1.9746   22.8345 H       1  UNL1        0.1456
     30 O           8.4808   -4.6947   25.4023 O.3     1  UNL1       -0.4077
     31 C           8.1607   -5.7905   26.3752 C.2     1  UNL1        0.4096
     32 O           7.7297   -5.4515   27.7715 O.2     1  UNL1       -0.2258
     33 N           8.2716   -7.2253   25.9521 N.am    1  UNL1       -0.2422
     34 C           7.9515   -8.3211   26.9250 C.3     1  UNL1        0.1184
     35 C           8.7026   -7.5643   24.5558 C.3     1  UNL1        0.1184
@<TRIPOS>BOND
     1     1     2    1
     2     2     3   ar
     3     3    14    1
     4    14    15    1
     5    15    16   ar
     6    16    17   ar
     7    17    18   ar
     8    18    19   ar
     9    19    22    1
    10    22    24    1
    11    24    25    1
    12    24    26    2
    13    24    27    2
    14    19    20   ar
    15    20    21    1
    16     3     4   ar
    17     4     5    2
    18     4     6   ar
    19     6     7   ar
    20     7     8   ar
    21     8     9   ar
    22     9    30    1
    23    30    31    1
    24    31    32    2
    25    31    33   am
    26    33    34    1
    27    33    35    1
    28     9    10   ar
    29    10    11    1
    30    10    12   ar
    31    12    13   ar
    32    13     2   ar
    33    20    15   ar
    34    13     7   ar
    35    22    23    1
    36    25    28    1
    37    25    29    1
