@<TRIPOS>MOLECULE
*****
 30 32 0 0 0
SMALL
GASTEIGER

@<TRIPOS>ATOM
      1 C          -7.7344  -17.0541   23.4882 C.3     1  UNL1        0.0469
      2 C          -6.6912  -17.8575   22.7696 C.ar    1  UNL1       -0.0191
      3 C          -7.1029  -18.9159   21.7897 C.ar    1  UNL1        0.0355
      4 C          -6.0597  -19.7193   21.0712 C.ar    1  UNL1        0.1674
      5 O          -6.4714  -20.7778   20.0912 O.3     1  UNL1       -0.5029
      6 C          -4.6048  -19.4643   21.3326 C.ar    1  UNL1        0.1718
      7 C          -4.1931  -18.4059   22.3125 C.ar    1  UNL1        0.0355
      8 C          -5.2363  -17.6025   23.0310 C.ar    1  UNL1       -0.0225
      9 C          -4.8247  -16.5441   24.0110 C.3     1  UNL1        0.0287
     10 C          -5.8678  -15.7407   24.7295 C.3     1  UNL1        0.0367
     11 C          -7.3227  -15.9957   24.4681 C.3     1  UNL1        0.0401
     12 H          -7.3802  -20.9371   19.9279 H       1  UNL1        0.2923
     13 C         -11.3663  -16.7765   21.9127 C.ar    1  UNL1        0.1718
     14 C          -9.9114  -16.5215   22.1741 C.ar    1  UNL1        0.0361
     15 C          -9.1893  -17.3091   23.2268 C.ar    1  UNL1       -0.0151
     16 C          -9.9220  -18.3517   24.0181 C.ar    1  UNL1       -0.0006
     17 C         -11.3768  -18.6068   23.7567 C.ar    1  UNL1        0.0395
     18 C         -12.0990  -17.8191   22.7040 C.ar    1  UNL1        0.1677
     19 O         -13.5539  -18.0741   22.4426 O.3     1  UNL1       -0.5029
     20 H         -14.0116  -18.7254   22.9369 H       1  UNL1        0.2923
     21 C         -11.5233  -15.8951   19.4737 C.3     1  UNL1        0.2526
     22 O         -12.0885  -15.9889   20.8600 O.3     1  UNL1       -0.4684
     23 C          -5.4562  -14.6822   25.7095 C.3     1  UNL1        0.1375
     24 O          -6.0364  -14.6743   27.0927 O.3     1  UNL1       -0.3820
     25 H          -6.9873  -14.4890   27.0434 H       1  UNL1        0.2104
     26 C          -8.3659  -15.1923   25.1867 C.3     1  UNL1        0.1378
     27 O          -8.6811  -15.4862   26.6234 O.3     1  UNL1       -0.3820
     28 H          -9.0789  -16.3682   26.6932 H       1  UNL1        0.2104
     29 O          -3.5616  -20.2677   20.6140 O.3     1  UNL1       -0.4684
     30 C          -2.1564  -19.7529   20.5129 C.3     1  UNL1        0.2526
@<TRIPOS>BOND
     1    21    22    1
     2    22    13    1
     3    13    14   ar
     4    14    15   ar
     5     1    15    1
     6     1     2    1
     7     2     3   ar
     8     3     4   ar
     9     4     5    1
    10     4     6   ar
    11     6    29    1
    12    29    30    1
    13     6     7   ar
    14     7     8   ar
    15     8     9    1
    16     9    10    1
    17    10    23    1
    18    23    24    1
    19    10    11    1
    20    11    26    1
    21    26    27    1
    22    15    16   ar
    23    16    17   ar
    24    17    18   ar
    25    18    19    1
    26    18    13   ar
    27    11     1    1
    28     8     2   ar
    29     5    12    1
    30    24    25    1
    31    27    28    1
    32    19    20    1
@<TRIPOS>MOLECULE
*****
 30 32 0 0 0
SMALL
GASTEIGER

@<TRIPOS>ATOM
      1 C          -6.8578  -17.4766   23.1273 C.3     1  UNL1        0.0469
      2 C          -5.5396  -17.9698   22.6083 C.ar    1  UNL1       -0.0191
      3 C          -5.5003  -19.0325   21.5505 C.ar    1  UNL1        0.0355
      4 C          -4.1821  -19.5257   21.0316 C.ar    1  UNL1        0.1674
      5 O          -4.1427  -20.5885   19.9738 O.3     1  UNL1       -0.5029
      6 C          -2.9034  -18.9560   21.5705 C.ar    1  UNL1        0.1718
      7 C          -2.9428  -17.8933   22.6283 C.ar    1  UNL1        0.0355
      8 C          -4.2609  -17.4001   23.1472 C.ar    1  UNL1       -0.0225
      9 C          -4.3003  -16.3373   24.2050 C.3     1  UNL1        0.0287
     10 C          -5.6184  -15.8442   24.7239 C.3     1  UNL1        0.0367
     11 C          -6.8972  -16.4138   24.1851 C.3     1  UNL1        0.0401
     12 H          -4.9415  -20.9443   19.6372 H       1  UNL1        0.2923
     13 C         -10.0933  -17.9636   20.8813 C.ar    1  UNL1        0.1718
     14 C          -8.8145  -17.3940   21.4202 C.ar    1  UNL1        0.0361
     15 C          -8.1365  -18.0462   22.5884 C.ar    1  UNL1       -0.0151
     16 C          -8.7373  -19.2680   23.2179 C.ar    1  UNL1       -0.0006
     17 C         -10.0160  -19.8377   22.6791 C.ar    1  UNL1        0.0395
     18 C         -10.6940  -19.1854   21.5107 C.ar    1  UNL1        0.1677
     19 O         -11.9728  -19.7550   20.9719 O.3     1  UNL1       -0.5029
     20 H         -12.3480  -20.5182   21.3651 H       1  UNL1        0.2923
     21 C         -11.6216  -16.0937   19.9232 C.3     1  UNL1        0.2526
     22 O         -10.7713  -17.3113   19.7130 O.3     1  UNL1       -0.4684
     23 C          -5.6579  -14.7814   25.7818 C.3     1  UNL1        0.1375
     24 O          -6.3377  -15.0515   27.0913 O.3     1  UNL1       -0.3820
     25 H          -7.2892  -15.1688   26.9435 H       1  UNL1        0.2104
     26 C          -8.2154  -15.9206   24.7041 C.3     1  UNL1        0.1378
     27 O          -8.7659  -16.4634   25.9894 O.3     1  UNL1       -0.3820
     28 H          -8.9764  -17.4039   25.8794 H       1  UNL1        0.2104
     29 O          -1.5852  -19.4492   21.0515 O.3     1  UNL1       -0.4684
     30 C          -0.7882  -18.6027   20.1038 C.3     1  UNL1        0.2526
@<TRIPOS>BOND
     1    21    22    1
     2    22    13    1
     3    13    14   ar
     4    14    15   ar
     5     1    15    1
     6     1     2    1
     7     2     3   ar
     8     3     4   ar
     9     4     5    1
    10     4     6   ar
    11     6    29    1
    12    29    30    1
    13     6     7   ar
    14     7     8   ar
    15     8     9    1
    16     9    10    1
    17    10    23    1
    18    23    24    1
    19    10    11    1
    20    11    26    1
    21    26    27    1
    22    15    16   ar
    23    16    17   ar
    24    17    18   ar
    25    18    19    1
    26    18    13   ar
    27    11     1    1
    28     8     2   ar
    29     5    12    1
    30    24    25    1
    31    27    28    1
    32    19    20    1
@<TRIPOS>MOLECULE
*****
 30 32 0 0 0
SMALL
GASTEIGER

@<TRIPOS>ATOM
      1 C          -7.3719  -16.8468   23.2711 C.3     1  UNL1        0.0469
      2 C          -6.2694  -17.7058   22.7265 C.ar    1  UNL1       -0.0191
      3 C          -6.5568  -18.6907   21.6323 C.ar    1  UNL1        0.0355
      4 C          -5.4542  -19.5497   21.0878 C.ar    1  UNL1        0.1674
      5 O          -5.7416  -20.5347   19.9936 O.3     1  UNL1       -0.5029
      6 C          -4.0642  -19.4237   21.6375 C.ar    1  UNL1        0.1718
      7 C          -3.7768  -18.4388   22.7317 C.ar    1  UNL1        0.0355
      8 C          -4.8794  -17.5798   23.2762 C.ar    1  UNL1       -0.0225
      9 C          -4.5920  -16.5948   24.3704 C.3     1  UNL1        0.0287
     10 C          -5.6946  -15.7359   24.9149 C.3     1  UNL1        0.0367
     11 C          -7.0845  -15.8619   24.3653 C.3     1  UNL1        0.0401
     12 H          -6.6098  -20.6134   19.6502 H       1  UNL1        0.2923
     13 C         -11.1188  -18.0636   22.7914 C.ar    1  UNL1        0.1718
     14 C          -9.7289  -17.9376   23.3410 C.ar    1  UNL1        0.0361
     15 C          -8.7619  -16.9728   22.7214 C.ar    1  UNL1       -0.0151
     16 C          -9.1849  -16.1338   21.5520 C.ar    1  UNL1       -0.0006
     17 C         -10.5748  -16.2598   21.0023 C.ar    1  UNL1        0.0395
     18 C         -11.5418  -17.2247   21.6220 C.ar    1  UNL1        0.1677
     19 O         -12.9318  -17.3507   21.0724 O.3     1  UNL1       -0.5029
     20 H         -13.1960  -16.8267   20.3419 H       1  UNL1        0.2923
     21 C         -12.9236  -18.6038   24.5806 C.3     1  UNL1        0.2526
     22 O         -12.0858  -19.0285   23.4111 O.3     1  UNL1       -0.4684
     23 C          -5.4072  -14.7509   26.0092 C.3     1  UNL1        0.1375
     24 O          -6.2399  -14.7518   27.2568 O.3     1  UNL1       -0.3820
     25 H          -7.1488  -14.4920   27.0391 H       1  UNL1        0.2104
     26 C          -8.1871  -15.0028   24.9098 C.3     1  UNL1        0.1378
     27 O          -8.9200  -15.4202   26.1502 O.3     1  UNL1       -0.3820
     28 H          -9.4197  -16.2324   25.9726 H       1  UNL1        0.2104
     29 O          -2.9617  -20.2827   21.0930 O.3     1  UNL1       -0.4684
     30 C          -1.7815  -19.6494   20.4176 C.3     1  UNL1        0.2526
@<TRIPOS>BOND
     1    21    22    1
     2    22    13    1
     3    13    14   ar
     4    14    15   ar
     5     1    15    1
     6     1     2    1
     7     2     3   ar
     8     3     4   ar
     9     4     5    1
    10     4     6   ar
    11     6    29    1
    12    29    30    1
    13     6     7   ar
    14     7     8   ar
    15     8     9    1
    16     9    10    1
    17    10    23    1
    18    23    24    1
    19    10    11    1
    20    11    26    1
    21    26    27    1
    22    15    16   ar
    23    16    17   ar
    24    17    18   ar
    25    18    19    1
    26    18    13   ar
    27    11     1    1
    28     8     2   ar
    29     5    12    1
    30    24    25    1
    31    27    28    1
    32    19    20    1
@<TRIPOS>MOLECULE
*****
 30 32 0 0 0
SMALL
GASTEIGER

@<TRIPOS>ATOM
      1 C          -6.4040  -16.5818   24.0001 C.3     1  UNL1        0.0469
      2 C          -7.6919  -16.9828   23.3438 C.ar    1  UNL1       -0.0191
      3 C          -7.6755  -17.6155   21.9839 C.ar    1  UNL1        0.0355
      4 C          -8.9634  -18.0165   21.3278 C.ar    1  UNL1        0.1674
      5 O          -8.9471  -18.6492   19.9678 O.3     1  UNL1       -0.5029
      6 C         -10.2676  -17.7847   22.0315 C.ar    1  UNL1        0.1718
      7 C         -10.2840  -17.1520   23.3914 C.ar    1  UNL1        0.0355
      8 C          -8.9962  -16.7511   24.0476 C.ar    1  UNL1       -0.0225
      9 C          -9.0125  -16.1183   25.4076 C.3     1  UNL1        0.0287
     10 C          -7.7246  -15.7174   26.0637 C.3     1  UNL1        0.0367
     11 C          -6.4204  -15.9491   25.3600 C.3     1  UNL1        0.0401
     12 H          -8.1324  -18.7940   19.5282 H       1  UNL1        0.2923
     13 C          -3.3907  -18.4358   22.2021 C.ar    1  UNL1        0.1718
     14 C          -4.6950  -18.2041   22.9059 C.ar    1  UNL1        0.0361
     15 C          -5.0998  -16.8136   23.2963 C.ar    1  UNL1       -0.0151
     16 C          -4.2003  -15.6547   22.9831 C.ar    1  UNL1       -0.0006
     17 C          -2.8961  -15.8864   22.2793 C.ar    1  UNL1        0.0395
     18 C          -2.4913  -17.2771   21.8888 C.ar    1  UNL1        0.1677
     19 O          -1.1870  -17.5088   21.1851 O.3     1  UNL1       -0.5029
     20 H          -0.6252  -16.7849   20.9894 H       1  UNL1        0.2923
     21 C          -3.3790  -20.3736   20.4714 C.3     1  UNL1        0.2526
     22 O          -2.9859  -19.8265   21.8116 O.3     1  UNL1       -0.4684
     23 C          -7.7409  -15.0846   27.4237 C.3     1  UNL1        0.1375
     24 O          -8.9648  -14.3589   27.8986 O.3     1  UNL1       -0.3820
     25 H          -9.1061  -13.5707   27.3511 H       1  UNL1        0.2104
     26 C          -5.1325  -15.5481   26.0162 C.3     1  UNL1        0.1378
     27 O          -4.8000  -14.0959   26.1906 O.3     1  UNL1       -0.3820
     28 H          -4.6731  -13.6865   25.3205 H       1  UNL1        0.2104
     29 O         -11.5556  -18.1857   21.3753 O.3     1  UNL1       -0.4684
     30 C         -12.5737  -17.1425   21.0216 C.3     1  UNL1        0.2526
@<TRIPOS>BOND
     1    21    22    1
     2    22    13    1
     3    13    14   ar
     4    14    15   ar
     5     1    15    1
     6     1     2    1
     7     2     3   ar
     8     3     4   ar
     9     4     5    1
    10     4     6   ar
    11     6    29    1
    12    29    30    1
    13     6     7   ar
    14     7     8   ar
    15     8     9    1
    16     9    10    1
    17    10    23    1
    18    23    24    1
    19    10    11    1
    20    11    26    1
    21    26    27    1
    22    15    16   ar
    23    16    17   ar
    24    17    18   ar
    25    18    19    1
    26    18    13   ar
    27    11     1    1
    28     8     2   ar
    29     5    12    1
    30    24    25    1
    31    27    28    1
    32    19    20    1
@<TRIPOS>MOLECULE
*****
 30 32 0 0 0
SMALL
GASTEIGER

@<TRIPOS>ATOM
      1 C          -8.7784  -17.9032   22.4878 C.3     1  UNL1        0.0469
      2 C          -7.6359  -18.6114   21.8220 C.ar    1  UNL1       -0.0191
      3 C          -6.3238  -18.7532   22.5349 C.ar    1  UNL1        0.0355
      4 C          -5.1813  -19.4614   21.8691 C.ar    1  UNL1        0.1674
      5 O          -3.8691  -19.6032   22.5820 O.3     1  UNL1       -0.5029
      6 C          -5.3510  -20.0278   20.4906 C.ar    1  UNL1        0.1718
      7 C          -6.6631  -19.8860   19.7778 C.ar    1  UNL1        0.0355
      8 C          -7.8056  -19.1778   20.4435 C.ar    1  UNL1       -0.0225
      9 C          -9.1178  -19.0360   19.7307 C.3     1  UNL1        0.0287
     10 C         -10.2602  -18.3278   20.3964 C.3     1  UNL1        0.0367
     11 C         -10.0906  -17.7614   21.7749 C.3     1  UNL1        0.0401
     12 H          -3.7631  -19.2494   23.4431 H       1  UNL1        0.2923
     13 C          -7.4723  -15.6482   25.4809 C.ar    1  UNL1        0.1718
     14 C          -7.6420  -16.2145   24.1023 C.ar    1  UNL1        0.0361
     15 C          -8.6088  -17.3369   23.8663 C.ar    1  UNL1       -0.0151
     16 C          -9.4059  -17.8929   25.0090 C.ar    1  UNL1       -0.0006
     17 C          -9.2363  -17.3265   26.3875 C.ar    1  UNL1        0.0395
     18 C          -8.2694  -16.2041   26.6235 C.ar    1  UNL1        0.1677
     19 O          -8.0998  -15.6377   28.0020 O.3     1  UNL1       -0.5029
     20 H          -8.5977  -15.9850   28.7158 H       1  UNL1        0.2923
     21 C          -5.0798  -14.8264   26.0730 C.3     1  UNL1        0.2526
     22 O          -6.5055  -14.5258   25.7168 O.3     1  UNL1       -0.4684
     23 C         -11.5725  -18.1860   19.6836 C.3     1  UNL1        0.1375
     24 O         -12.0941  -16.8230   19.3368 O.3     1  UNL1       -0.3820
     25 H         -12.2988  -16.3382   20.1516 H       1  UNL1        0.2104
     26 C         -11.2331  -17.0532   22.4407 C.3     1  UNL1        0.1378
     27 O         -11.4808  -15.6007   22.1603 O.3     1  UNL1       -0.3820
     28 H         -10.7416  -15.0745   22.5034 H       1  UNL1        0.2104
     29 O          -4.2084  -20.7360   19.8249 O.3     1  UNL1       -0.4684
     30 C          -3.0787  -19.9460   19.2336 C.3     1  UNL1        0.2526
@<TRIPOS>BOND
     1    21    22    1
     2    22    13    1
     3    13    14   ar
     4    14    15   ar
     5     1    15    1
     6     1     2    1
     7     2     3   ar
     8     3     4   ar
     9     4     5    1
    10     4     6   ar
    11     6    29    1
    12    29    30    1
    13     6     7   ar
    14     7     8   ar
    15     8     9    1
    16     9    10    1
    17    10    23    1
    18    23    24    1
    19    10    11    1
    20    11    26    1
    21    26    27    1
    22    15    16   ar
    23    16    17   ar
    24    17    18   ar
    25    18    19    1
    26    18    13   ar
    27    11     1    1
    28     8     2   ar
    29     5    12    1
    30    24    25    1
    31    27    28    1
    32    19    20    1
@<TRIPOS>MOLECULE
*****
 30 32 0 0 0
SMALL
GASTEIGER

@<TRIPOS>ATOM
      1 C         -14.4782   -4.3034   18.6859 C.3     1  UNL1        0.0469
      2 C         -15.1764   -5.6042   18.9516 C.ar    1  UNL1       -0.0191
      3 C         -14.4642   -6.9014   18.7067 C.ar    1  UNL1        0.0355
      4 C         -15.1624   -8.2021   18.9724 C.ar    1  UNL1        0.1674
      5 O         -14.4502   -9.4993   18.7275 O.3     1  UNL1       -0.5029
      6 C         -16.5728   -8.2056   19.4831 C.ar    1  UNL1        0.1718
      7 C         -17.2850   -6.9084   19.7280 C.ar    1  UNL1        0.0355
      8 C         -16.5868   -5.6077   19.4623 C.ar    1  UNL1       -0.0225
      9 C         -17.2990   -4.3104   19.7072 C.3     1  UNL1        0.0287
     10 C         -16.6008   -3.0097   19.4415 C.3     1  UNL1        0.0367
     11 C         -15.1904   -3.0062   18.9308 C.3     1  UNL1        0.0401
     12 H         -13.5692   -9.4972   18.4085 H       1  UNL1        0.2923
     13 C         -10.5257   -4.6458   18.5848 C.ar    1  UNL1        0.1718
     14 C         -11.9361   -4.6493   19.0955 C.ar    1  UNL1        0.0361
     15 C         -13.0678   -4.2999   18.1752 C.ar    1  UNL1       -0.0151
     16 C         -12.7892   -3.9468   16.7441 C.ar    1  UNL1       -0.0006
     17 C         -11.3788   -3.9433   16.2335 C.ar    1  UNL1        0.0395
     18 C         -10.2471   -4.2928   17.1538 C.ar    1  UNL1        0.1677
     19 O          -8.8367   -4.2893   16.6431 O.3     1  UNL1       -0.5029
     20 H          -8.6626   -4.0688   15.7493 H       1  UNL1        0.2923
     21 C          -8.9233   -6.4157   19.6095 C.3     1  UNL1        0.2526
     22 O          -9.3939   -4.9953   19.5052 O.3     1  UNL1       -0.4684
     23 C         -17.3130   -1.7124   19.6864 C.3     1  UNL1        0.1375
     24 O         -18.3940   -1.6345   20.7234 O.3     1  UNL1       -0.3820
     25 H         -19.1455   -2.1830   20.4490 H       1  UNL1        0.2104
     26 C         -14.4922   -1.7054   18.6651 C.3     1  UNL1        0.1378
     27 O         -14.6998   -0.9957   17.3600 O.3     1  UNL1       -0.3820
     28 H         -14.3292   -1.5290   16.6395 H       1  UNL1        0.2104
     29 O         -17.2710   -9.5064   19.7488 O.3     1  UNL1       -0.4684
     30 C         -17.8769  -10.2778   18.6140 C.3     1  UNL1        0.2526
@<TRIPOS>BOND
     1    21    22    1
     2    22    13    1
     3    13    14   ar
     4    14    15   ar
     5     1    15    1
     6     1     2    1
     7     2     3   ar
     8     3     4   ar
     9     4     5    1
    10     4     6   ar
    11     6    29    1
    12    29    30    1
    13     6     7   ar
    14     7     8   ar
    15     8     9    1
    16     9    10    1
    17    10    23    1
    18    23    24    1
    19    10    11    1
    20    11    26    1
    21    26    27    1
    22    15    16   ar
    23    16    17   ar
    24    17    18   ar
    25    18    19    1
    26    18    13   ar
    27    11     1    1
    28     8     2   ar
    29     5    12    1
    30    24    25    1
    31    27    28    1
    32    19    20    1
@<TRIPOS>MOLECULE
*****
 30 32 0 0 0
SMALL
GASTEIGER

@<TRIPOS>ATOM
      1 C          -7.4645  -18.4097   21.8683 C.3     1  UNL1        0.0469
      2 C          -6.0326  -18.7302   21.5570 C.ar    1  UNL1       -0.0191
      3 C          -4.9424  -18.2602   22.4737 C.ar    1  UNL1        0.0355
      4 C          -3.5105  -18.5808   22.1623 C.ar    1  UNL1        0.1674
      5 O          -2.4202  -18.1107   23.0791 O.3     1  UNL1       -0.5029
      6 C          -3.1689  -19.3714   20.9342 C.ar    1  UNL1        0.1718
      7 C          -4.2591  -19.8414   20.0175 C.ar    1  UNL1        0.0355
      8 C          -5.6910  -19.5208   20.3289 C.ar    1  UNL1       -0.0225
      9 C          -6.7813  -19.9909   19.4121 C.3     1  UNL1        0.0287
     10 C          -8.2131  -19.6703   19.7235 C.3     1  UNL1        0.0367
     11 C          -8.5548  -18.8797   20.9516 C.3     1  UNL1        0.0401
     12 H          -2.6336  -17.6169   23.8462 H       1  UNL1        0.2923
     13 C          -7.2639  -15.6968   24.7579 C.ar    1  UNL1        0.1718
     14 C          -6.9223  -16.4874   23.5298 C.ar    1  UNL1        0.0361
     15 C          -7.8062  -17.6191   23.0964 C.ar    1  UNL1       -0.0151
     16 C          -9.0318  -17.9603   23.8912 C.ar    1  UNL1       -0.0006
     17 C          -9.3734  -17.1697   25.1193 C.ar    1  UNL1        0.0395
     18 C          -8.4894  -16.0379   25.5527 C.ar    1  UNL1        0.1677
     19 O          -8.8311  -15.2473   26.7808 O.3     1  UNL1       -0.5029
     20 H          -9.5966  -15.4604   27.2772 H       1  UNL1        0.2923
     21 C          -5.2506  -14.8183   26.1453 C.3     1  UNL1        0.2526
     22 O          -6.3800  -14.5650   25.1913 O.3     1  UNL1       -0.4684
     23 C          -9.3034  -20.1403   18.8067 C.3     1  UNL1        0.1375
     24 O          -8.9922  -21.1133   17.7083 O.3     1  UNL1       -0.3820
     25 H          -8.4055  -20.6927   17.0604 H       1  UNL1        0.2104
     26 C          -9.9867  -18.5592   21.2630 C.3     1  UNL1        0.1378
     27 O         -10.9289  -19.6532   21.6695 O.3     1  UNL1       -0.3820
     28 H         -11.0570  -20.2626   20.9258 H       1  UNL1        0.2104
     29 O          -1.7370  -19.6919   20.6229 O.3     1  UNL1       -0.4684
     30 C          -0.8517  -18.6491   20.0073 C.3     1  UNL1        0.2526
@<TRIPOS>BOND
     1    21    22    1
     2    22    13    1
     3    13    14   ar
     4    14    15   ar
     5     1    15    1
     6     1     2    1
     7     2     3   ar
     8     3     4   ar
     9     4     5    1
    10     4     6   ar
    11     6    29    1
    12    29    30    1
    13     6     7   ar
    14     7     8   ar
    15     8     9    1
    16     9    10    1
    17    10    23    1
    18    23    24    1
    19    10    11    1
    20    11    26    1
    21    26    27    1
    22    15    16   ar
    23    16    17   ar
    24    17    18   ar
    25    18    19    1
    26    18    13   ar
    27    11     1    1
    28     8     2   ar
    29     5    12    1
    30    24    25    1
    31    27    28    1
    32    19    20    1
@<TRIPOS>MOLECULE
*****
 30 32 0 0 0
SMALL
GASTEIGER

@<TRIPOS>ATOM
      1 C          -7.1739  -17.5363   22.8881 C.3     1  UNL1        0.0469
      2 C          -8.6657  -17.6907   22.8587 C.ar    1  UNL1       -0.0191
      3 C          -9.2997  -18.6727   21.9187 C.ar    1  UNL1        0.0355
      4 C         -10.7914  -18.8271   21.8894 C.ar    1  UNL1        0.1674
      5 O         -11.4255  -19.8092   20.9493 O.3     1  UNL1       -0.5029
      6 C         -11.6491  -17.9994   22.8000 C.ar    1  UNL1        0.1718
      7 C         -11.0152  -17.0174   23.7400 C.ar    1  UNL1        0.0355
      8 C          -9.5234  -16.8630   23.7694 C.ar    1  UNL1       -0.0225
      9 C          -8.8894  -15.8809   24.7094 C.3     1  UNL1        0.0287
     10 C          -7.3977  -15.7266   24.7388 C.3     1  UNL1        0.0367
     11 C          -6.5399  -16.5543   23.8281 C.3     1  UNL1        0.0401
     12 H         -10.8897  -20.3262   20.3805 H       1  UNL1        0.2923
     13 C          -4.0740  -19.5830   21.4912 C.ar    1  UNL1        0.1718
     14 C          -4.9318  -18.7554   22.4018 C.ar    1  UNL1        0.0361
     15 C          -6.3162  -18.3639   21.9775 C.ar    1  UNL1       -0.0151
     16 C          -6.8429  -18.8002   20.6424 C.ar    1  UNL1       -0.0006
     17 C          -5.9852  -19.6279   19.7318 C.ar    1  UNL1        0.0395
     18 C          -4.6007  -20.0193   20.1562 C.ar    1  UNL1        0.1677
     19 O          -3.7430  -20.8470   19.2456 O.3     1  UNL1       -0.5029
     20 H          -4.0720  -21.1195   18.4116 H       1  UNL1        0.2923
     21 C          -1.5652  -18.9873   21.8091 C.3     1  UNL1        0.2526
     22 O          -2.6895  -19.9744   21.9156 O.3     1  UNL1       -0.4684
     23 C          -6.7636  -14.7445   25.6788 C.3     1  UNL1        0.1375
     24 O          -7.0818  -14.7958   27.1437 O.3     1  UNL1       -0.3820
     25 H          -8.0156  -14.5712   27.2799 H       1  UNL1        0.2104
     26 C          -5.0481  -16.3998   23.8575 C.3     1  UNL1        0.1378
     27 O          -4.3895  -15.3228   23.0475 O.3     1  UNL1       -0.3820
     28 H          -4.5152  -15.5059   22.1032 H       1  UNL1        0.2104
     29 O         -13.1409  -18.1538   22.7706 O.3     1  UNL1       -0.4684
     30 C         -13.9278  -18.0801   24.0455 C.3     1  UNL1        0.2526
@<TRIPOS>BOND
     1    21    22    1
     2    22    13    1
     3    13    14   ar
     4    14    15   ar
     5     1    15    1
     6     1     2    1
     7     2     3   ar
     8     3     4   ar
     9     4     5    1
    10     4     6   ar
    11     6    29    1
    12    29    30    1
    13     6     7   ar
    14     7     8   ar
    15     8     9    1
    16     9    10    1
    17    10    23    1
    18    23    24    1
    19    10    11    1
    20    11    26    1
    21    26    27    1
    22    15    16   ar
    23    16    17   ar
    24    17    18   ar
    25    18    19    1
    26    18    13   ar
    27    11     1    1
    28     8     2   ar
    29     5    12    1
    30    24    25    1
    31    27    28    1
    32    19    20    1
@<TRIPOS>MOLECULE
*****
 30 32 0 0 0
SMALL
GASTEIGER

@<TRIPOS>ATOM
      1 C         -15.6975   -5.9315   18.8320 C.3     1  UNL1        0.0469
      2 C         -16.4494   -4.7099   19.2708 C.ar    1  UNL1       -0.0191
      3 C         -17.9100   -4.8056   19.5984 C.ar    1  UNL1        0.0355
      4 C         -18.6618   -3.5840   20.0371 C.ar    1  UNL1        0.1674
      5 O         -20.1225   -3.6797   20.3647 O.3     1  UNL1       -0.5029
      6 C         -17.9530   -2.2667   20.1483 C.ar    1  UNL1        0.1718
      7 C         -16.4923   -2.1710   19.8207 C.ar    1  UNL1        0.0355
      8 C         -15.7405   -3.3926   19.3819 C.ar    1  UNL1       -0.0225
      9 C         -14.2798   -3.2969   19.0543 C.3     1  UNL1        0.0287
     10 C         -13.5280   -4.5185   18.6156 C.3     1  UNL1        0.0367
     11 C         -14.2369   -5.8357   18.5044 C.3     1  UNL1        0.0401
     12 H         -20.5653   -4.5025   20.2953 H       1  UNL1        0.2923
     13 C         -17.9299   -8.8787   17.3896 C.ar    1  UNL1        0.1718
     14 C         -17.2210   -7.5614   17.5008 C.ar    1  UNL1        0.0361
     15 C         -16.4063   -7.2487   18.7208 C.ar    1  UNL1       -0.0151
     16 C         -16.3004   -8.2533   19.8297 C.ar    1  UNL1       -0.0006
     17 C         -17.0093   -9.5706   19.7186 C.ar    1  UNL1        0.0395
     18 C         -17.8240   -9.8833   18.4985 C.ar    1  UNL1        0.1677
     19 O         -18.5328  -11.2005   18.3873 O.3     1  UNL1       -0.5029
     20 H         -18.4667  -11.8281   19.0800 H       1  UNL1        0.2923
     21 C         -20.2278   -8.9681   16.1807 C.3     1  UNL1        0.2526
     22 O         -18.7446   -9.1913   16.1696 O.3     1  UNL1       -0.4684
     23 C         -12.0673   -4.4228   18.2879 C.3     1  UNL1        0.1375
     24 O         -11.0749   -4.1128   19.3692 O.3     1  UNL1       -0.3820
     25 H         -11.2266   -3.2133   19.6991 H       1  UNL1        0.2104
     26 C         -13.4850   -7.0573   18.0656 C.3     1  UNL1        0.1378
     27 O         -12.7318   -7.8761   19.0717 O.3     1  UNL1       -0.3820
     28 H         -11.9973   -7.3532   19.4294 H       1  UNL1        0.2104
     29 O         -18.7048   -1.0451   20.5871 O.3     1  UNL1       -0.4684
     30 C         -19.2664   -0.1025   19.5643 C.3     1  UNL1        0.2526
@<TRIPOS>BOND
     1    21    22    1
     2    22    13    1
     3    13    14   ar
     4    14    15   ar
     5     1    15    1
     6     1     2    1
     7     2     3   ar
     8     3     4   ar
     9     4     5    1
    10     4     6   ar
    11     6    29    1
    12    29    30    1
    13     6     7   ar
    14     7     8   ar
    15     8     9    1
    16     9    10    1
    17    10    23    1
    18    23    24    1
    19    10    11    1
    20    11    26    1
    21    26    27    1
    22    15    16   ar
    23    16    17   ar
    24    17    18   ar
    25    18    19    1
    26    18    13   ar
    27    11     1    1
    28     8     2   ar
    29     5    12    1
    30    24    25    1
    31    27    28    1
    32    19    20    1
