@<TRIPOS>MOLECULE
*****
 30 34 0 0 0
SMALL
GASTEIGER

@<TRIPOS>ATOM
      1 C         -14.3009   -0.8844   18.6263 C.2     1  UNL1        0.4048
      2 O         -15.7613   -1.2135   18.5310 O.2     1  UNL1       -0.2262
      3 N         -13.2866   -1.9872   18.6972 N.am    1  UNL1       -0.2460
      4 C         -13.7328   -3.4192   18.6727 C.3     1  UNL1        0.0967
      5 C         -12.7186   -4.5221   18.7435 C.3     1  UNL1        0.0217
      6 C         -11.2582   -4.1930   18.8388 C.3     1  UNL1        0.0049
      7 C         -10.8121   -2.7611   18.8633 C.3     1  UNL1        0.0217
      8 C         -11.8263   -1.6582   18.7924 C.3     1  UNL1        0.0967
      9 C          -9.8295   -4.6397   18.9347 C.3     1  UNL1        0.0019
     10 C         -10.9302   -5.6564   18.8655 C.3     1  UNL1        0.0198
     11 O         -13.8548    0.5475   18.6508 O.3     1  UNL1       -0.4367
     12 C         -15.2229    2.0238   19.3210 C.3     1  UNL1        0.0490
     13 C         -14.6861    1.6036   17.9848 C.3     1  UNL1        0.1917
     14 C         -14.1494    1.1834   16.6486 C.3     1  UNL1        0.1846
     15 O         -14.9807    2.2395   15.9826 O.3     1  UNL1       -0.3462
     16 C         -15.5175    2.6596   17.3187 C.3     1  UNL1        0.1846
     17 C         -11.3764   -7.0883   18.8411 C.3     1  UNL1        0.0909
     18 N         -12.8168   -7.4293   19.0837 N.am    1  UNL1       -0.2888
     19 C         -13.6784   -7.8970   17.9484 C.2     1  UNL1        0.3045
     20 O         -13.0995   -8.0236   16.5705 O.2     1  UNL1       -0.2526
     21 N         -15.1188   -8.2379   18.1911 N.am    1  UNL1       -0.2560
     22 C         -16.0975   -8.7160   17.1598 C.3     1  UNL1        0.1218
     23 C         -17.4171   -8.9342   17.8390 C.ar    1  UNL1       -0.0016
     24 C         -18.7461   -9.4011   17.3236 C.ar    1  UNL1        0.0178
     25 C         -19.9119   -9.5248   18.2593 C.ar    1  UNL1        0.0986
     26 N         -19.7487   -9.1817   19.7104 N.ar    1  UNL1       -0.2426
     27 C         -18.4196   -8.7148   20.2257 C.ar    1  UNL1        0.0960
     28 C         -17.2538   -8.5911   19.2901 C.ar    1  UNL1        0.0146
     29 C         -15.8334   -8.1608   19.5076 C.3     1  UNL1        0.1233
     30 H         -13.1967   -7.3462   19.9882 H       1  UNL1        0.1510
@<TRIPOS>BOND
     1    12    13    1
     2    13    11    1
     3    11     1    1
     4     1     2    2
     5     1     3   am
     6     3     4    1
     7     4     5    1
     8     5     6    1
     9     6     7    1
    10     7     8    1
    11     6     9    1
    12     9    10    1
    13    10    17    1
    14    17    18    1
    15    18    19   am
    16    19    20    2
    17    19    21   am
    18    21    22    1
    19    22    23    1
    20    23    24   ar
    21    24    25   ar
    22    25    26   ar
    23    26    27   ar
    24    27    28   ar
    25    28    29    1
    26    13    14    1
    27    14    15    1
    28    15    16    1
    29    16    13    1
    30     8     3    1
    31    29    21    1
    32    10     6    1
    33    28    23   ar
    34    18    30    1
@<TRIPOS>MOLECULE
*****
 30 34 0 0 0
SMALL
GASTEIGER

@<TRIPOS>ATOM
      1 C           5.2437   -1.2155   17.6679 C.2     1  UNL1        0.4048
      2 O           5.9982   -0.3031   16.7468 O.2     1  UNL1       -0.2262
      3 N           3.9974   -0.7314   18.3479 N.am    1  UNL1       -0.2460
      4 C           3.5056    0.6650   18.1068 C.3     1  UNL1        0.0967
      5 C           2.2593    1.1491   18.7869 C.3     1  UNL1        0.0217
      6 C           1.5048    0.2367   19.7079 C.3     1  UNL1        0.0049
      7 C           1.9966   -1.1597   19.9490 C.3     1  UNL1        0.0217
      8 C           3.2429   -1.6438   19.2689 C.3     1  UNL1        0.0967
      9 C           0.3497   -0.0106   20.6323 C.3     1  UNL1        0.0019
     10 C           0.5013    1.3224   19.9614 C.3     1  UNL1        0.0198
     11 O           5.7354   -2.6119   17.9089 O.3     1  UNL1       -0.4367
     12 C           7.4224   -1.8449   18.9413 C.3     1  UNL1        0.0490
     13 C           6.4380   -2.9489   19.1907 C.3     1  UNL1        0.1917
     14 C           5.4536   -4.0529   19.4400 C.3     1  UNL1        0.1846
     15 O           6.1561   -4.3899   20.7217 O.3     1  UNL1       -0.3462
     16 C           7.1405   -3.2859   20.4724 C.3     1  UNL1        0.1846
     17 C           0.0095    2.7189   19.7203 C.3     1  UNL1        0.0909
     18 N          -1.3725    3.1121   20.1509 N.am    1  UNL1       -0.2888
     19 C          -1.7022    3.2161   21.6105 C.2     1  UNL1        0.3045
     20 O          -0.6499    2.9268   22.6395 O.2     1  UNL1       -0.2526
     21 N          -3.0842    3.6093   22.0410 N.am    1  UNL1       -0.2560
     22 C          -3.5590    3.7539   23.4565 C.3     1  UNL1        0.1218
     23 C          -5.0024    4.1610   23.4220 C.ar    1  UNL1       -0.0016
     24 C          -5.9906    4.4480   24.5133 C.ar    1  UNL1        0.0178
     25 C          -7.3960    4.8420   24.1678 C.ar    1  UNL1        0.0986
     26 N          -7.8132    4.9490   22.7309 N.ar    1  UNL1       -0.2426
     27 C          -6.8250    4.6620   21.6397 C.ar    1  UNL1        0.0960
     28 C          -5.4196    4.2679   21.9852 C.ar    1  UNL1        0.0146
     29 C          -4.2341    3.9270   21.1317 C.3     1  UNL1        0.1233
     30 H          -2.0632    3.3020   19.4755 H       1  UNL1        0.1510
@<TRIPOS>BOND
     1    12    13    1
     2    13    11    1
     3    11     1    1
     4     1     2    2
     5     1     3   am
     6     3     4    1
     7     4     5    1
     8     5     6    1
     9     6     7    1
    10     7     8    1
    11     6     9    1
    12     9    10    1
    13    10    17    1
    14    17    18    1
    15    18    19   am
    16    19    20    2
    17    19    21   am
    18    21    22    1
    19    22    23    1
    20    23    24   ar
    21    24    25   ar
    22    25    26   ar
    23    26    27   ar
    24    27    28   ar
    25    28    29    1
    26    13    14    1
    27    14    15    1
    28    15    16    1
    29    16    13    1
    30     8     3    1
    31    29    21    1
    32    10     6    1
    33    28    23   ar
    34    18    30    1
@<TRIPOS>MOLECULE
*****
 30 34 0 0 0
SMALL
GASTEIGER

@<TRIPOS>ATOM
      1 C         -12.4858   -5.0669   18.8659 C.2     1  UNL1        0.4048
      2 O         -13.0328   -6.1683   19.7248 O.2     1  UNL1       -0.2262
      3 N         -13.1423   -3.7182   18.8675 N.am    1  UNL1       -0.2460
      4 C         -14.3458   -3.4709   19.7281 C.3     1  UNL1        0.0967
      5 C         -15.0023   -2.1222   19.7297 C.3     1  UNL1        0.0217
      6 C         -14.4553   -1.0208   18.8708 C.3     1  UNL1        0.0049
      7 C         -13.2518   -1.2680   18.0103 C.3     1  UNL1        0.0217
      8 C         -12.5953   -2.6168   18.0087 C.3     1  UNL1        0.0967
      9 C         -14.5185    0.3938   18.3759 C.3     1  UNL1        0.0019
     10 C         -15.5291   -0.0993   19.3685 C.3     1  UNL1        0.0198
     11 O         -11.2823   -5.3142   18.0055 O.3     1  UNL1       -0.4367
     12 C          -9.6356   -5.4093   19.3393 C.3     1  UNL1        0.0490
     13 C         -10.2890   -6.3701   18.3907 C.3     1  UNL1        0.1917
     14 C         -10.9425   -7.3309   17.4421 C.3     1  UNL1        0.1846
     15 O          -9.9492   -8.3868   17.8274 O.3     1  UNL1       -0.3462
     16 C          -9.2957   -7.4260   18.7760 C.3     1  UNL1        0.1846
     17 C         -16.7327    0.1479   20.2290 C.3     1  UNL1        0.0909
     18 N         -16.7149    1.2523   21.2439 N.am    1  UNL1       -0.2888
     19 C         -17.9658    1.6014   21.9945 C.2     1  UNL1        0.3045
     20 O         -19.2344    0.8461   21.7302 O.2     1  UNL1       -0.2526
     21 N         -17.9480    2.7058   23.0094 N.am    1  UNL1       -0.2560
     22 C         -19.1144    3.1652   23.8330 C.3     1  UNL1        0.1218
     23 C         -18.6480    4.2880   24.7115 C.ar    1  UNL1       -0.0016
     24 C         -19.3599    5.1271   25.7308 C.ar    1  UNL1        0.0178
     25 C         -18.6171    6.2008   26.4693 C.ar    1  UNL1        0.0986
     26 N         -17.1624    6.4354   26.1886 N.ar    1  UNL1       -0.2426
     27 C         -16.4505    5.5963   25.1693 C.ar    1  UNL1        0.0960
     28 C         -17.1932    4.5226   24.4308 C.ar    1  UNL1        0.0146
     29 C         -16.7607    3.5447   23.3788 C.3     1  UNL1        0.1233
     30 H         -15.8822    1.7481   21.4174 H       1  UNL1        0.1510
@<TRIPOS>BOND
     1    12    13    1
     2    13    11    1
     3    11     1    1
     4     1     2    2
     5     1     3   am
     6     3     4    1
     7     4     5    1
     8     5     6    1
     9     6     7    1
    10     7     8    1
    11     6     9    1
    12     9    10    1
    13    10    17    1
    14    17    18    1
    15    18    19   am
    16    19    20    2
    17    19    21   am
    18    21    22    1
    19    22    23    1
    20    23    24   ar
    21    24    25   ar
    22    25    26   ar
    23    26    27   ar
    24    27    28   ar
    25    28    29    1
    26    13    14    1
    27    14    15    1
    28    15    16    1
    29    16    13    1
    30     8     3    1
    31    29    21    1
    32    10     6    1
    33    28    23   ar
    34    18    30    1
@<TRIPOS>MOLECULE
*****
 30 34 0 0 0
SMALL
GASTEIGER

@<TRIPOS>ATOM
      1 C           6.9654   -1.6569   31.0916 C.2     1  UNL1        0.4048
      2 O           7.1184   -0.1899   30.8179 O.2     1  UNL1       -0.2262
      3 N           6.8767   -2.6273   29.9512 N.am    1  UNL1       -0.2460
      4 C           6.9411   -2.1308   28.5372 C.3     1  UNL1        0.0967
      5 C           6.8524   -3.1013   27.3968 C.3     1  UNL1        0.0217
      6 C           6.6994   -4.5682   27.6706 C.3     1  UNL1        0.0049
      7 C           6.6351   -5.0646   29.0845 C.3     1  UNL1        0.0217
      8 C           6.7238   -4.0941   30.2249 C.3     1  UNL1        0.0967
      9 C           6.5599   -5.9753   27.1702 C.3     1  UNL1        0.0019
     10 C           6.6854   -4.8418   26.1958 C.3     1  UNL1        0.0198
     11 O           6.9011   -2.1532   32.5056 O.3     1  UNL1       -0.4367
     12 C           6.8730   -0.6453   33.9973 C.3     1  UNL1        0.0490
     13 C           5.8656   -1.6097   33.4449 C.3     1  UNL1        0.1917
     14 C           4.8583   -2.5741   32.8925 C.3     1  UNL1        0.1846
     15 O           3.8228   -2.0306   33.8319 O.3     1  UNL1       -0.3462
     16 C           4.8302   -1.0662   34.3843 C.3     1  UNL1        0.1846
     17 C           6.7497   -4.3454   24.7818 C.3     1  UNL1        0.0909
     18 N           5.7355   -3.3571   24.2870 N.am    1  UNL1       -0.2888
     19 C           5.2905   -3.3923   22.8550 C.2     1  UNL1        0.3045
     20 O           5.8596   -4.4158   21.9178 O.2     1  UNL1       -0.2526
     21 N           4.2763   -2.4040   22.3603 N.am    1  UNL1       -0.2560
     22 C           3.7381   -2.3176   20.9628 C.3     1  UNL1        0.1218
     23 C           2.7514   -1.1888   20.9150 C.ar    1  UNL1       -0.0016
     24 C           1.9090   -0.6386   19.8026 C.ar    1  UNL1        0.0178
     25 C           0.9949    0.5228   20.0581 C.ar    1  UNL1        0.0986
     26 N           0.9232    1.1341   21.4261 N.ar    1  UNL1       -0.2426
     27 C           1.7657    0.5839   22.5385 C.ar    1  UNL1        0.0960
     28 C           2.6798   -0.5776   22.2829 C.ar    1  UNL1        0.0146
     29 C           3.6222   -1.3286   23.1762 C.3     1  UNL1        0.1233
     30 H           5.3619   -2.6854   24.9022 H       1  UNL1        0.1510
@<TRIPOS>BOND
     1    12    13    1
     2    13    11    1
     3    11     1    1
     4     1     2    2
     5     1     3   am
     6     3     4    1
     7     4     5    1
     8     5     6    1
     9     6     7    1
    10     7     8    1
    11     6     9    1
    12     9    10    1
    13    10    17    1
    14    17    18    1
    15    18    19   am
    16    19    20    2
    17    19    21   am
    18    21    22    1
    19    22    23    1
    20    23    24   ar
    21    24    25   ar
    22    25    26   ar
    23    26    27   ar
    24    27    28   ar
    25    28    29    1
    26    13    14    1
    27    14    15    1
    28    15    16    1
    29    16    13    1
    30     8     3    1
    31    29    21    1
    32    10     6    1
    33    28    23   ar
    34    18    30    1
@<TRIPOS>MOLECULE
*****
 30 34 0 0 0
SMALL
GASTEIGER

@<TRIPOS>ATOM
      1 C           3.7657   -0.9208   30.6102 C.2     1  UNL1        0.4048
      2 O           5.1949   -1.2440   30.2889 O.2     1  UNL1       -0.2262
      3 N           2.8733   -0.3373   29.5551 N.am    1  UNL1       -0.2460
      4 C           3.4101   -0.0770   28.1788 C.3     1  UNL1        0.0967
      5 C           2.5176    0.5065   27.1238 C.3     1  UNL1        0.0217
      6 C           1.0885    0.8297   27.4450 C.3     1  UNL1        0.0049
      7 C           0.5518    0.5693   28.8213 C.3     1  UNL1        0.0217
      8 C           1.4442   -0.0142   29.8764 C.3     1  UNL1        0.0967
      9 C          -0.2518    1.3531   27.0214 C.3     1  UNL1        0.0019
     10 C           0.8831    1.3169   26.0413 C.3     1  UNL1        0.0198
     11 O           3.2290   -1.1812   31.9864 O.3     1  UNL1       -0.4367
     12 C           4.4139   -2.2188   33.4075 C.3     1  UNL1        0.0490
     13 C           4.0301   -0.7850   33.1912 C.3     1  UNL1        0.1917
     14 C           3.6462    0.6489   32.9749 C.3     1  UNL1        0.1846
     15 O           4.4473    1.0450   34.1796 O.3     1  UNL1       -0.3462
     16 C           4.8311   -0.3888   34.3959 C.3     1  UNL1        0.1846
     17 C           1.4199    1.5772   24.6650 C.3     1  UNL1        0.0909
     18 N           2.1956    0.5118   23.9486 N.am    1  UNL1       -0.2888
     19 C           1.9214    0.2295   22.5012 C.2     1  UNL1        0.3045
     20 O           0.8714    1.0125   21.7702 O.2     1  UNL1       -0.2526
     21 N           2.6971   -0.8359   21.7848 N.am    1  UNL1       -0.2560
     22 C           2.5345   -1.2283   20.3462 C.3     1  UNL1        0.1218
     23 C           3.5085   -2.3309   20.0535 C.ar    1  UNL1       -0.0016
     24 C           3.7980   -3.1090   18.8043 C.ar    1  UNL1        0.0178
     25 C           4.8521   -4.1761   18.8127 C.ar    1  UNL1        0.0986
     26 N           5.6167   -4.4651   20.0705 N.ar    1  UNL1       -0.2426
     27 C           5.3272   -3.6870   21.3197 C.ar    1  UNL1        0.0960
     28 C           4.2731   -2.6199   21.3113 C.ar    1  UNL1        0.0146
     29 C           3.7716   -1.6960   22.3812 C.3     1  UNL1        0.1233
     30 H           2.8847   -0.0021   24.4284 H       1  UNL1        0.1510
@<TRIPOS>BOND
     1    12    13    1
     2    13    11    1
     3    11     1    1
     4     1     2    2
     5     1     3   am
     6     3     4    1
     7     4     5    1
     8     5     6    1
     9     6     7    1
    10     7     8    1
    11     6     9    1
    12     9    10    1
    13    10    17    1
    14    17    18    1
    15    18    19   am
    16    19    20    2
    17    19    21   am
    18    21    22    1
    19    22    23    1
    20    23    24   ar
    21    24    25   ar
    22    25    26   ar
    23    26    27   ar
    24    27    28   ar
    25    28    29    1
    26    13    14    1
    27    14    15    1
    28    15    16    1
    29    16    13    1
    30     8     3    1
    31    29    21    1
    32    10     6    1
    33    28    23   ar
    34    18    30    1
@<TRIPOS>MOLECULE
*****
 30 34 0 0 0
SMALL
GASTEIGER

@<TRIPOS>ATOM
      1 C           3.1316    1.2760   19.5595 C.2     1  UNL1        0.4048
      2 O           3.7242    2.4106   20.3415 O.2     1  UNL1       -0.2262
      3 N           3.7439   -0.0910   19.6402 N.am    1  UNL1       -0.2460
      4 C           4.9488   -0.3233   20.5030 C.3     1  UNL1        0.0967
      5 C           5.5611   -1.6903   20.5837 C.3     1  UNL1        0.0217
      6 C           4.9685   -2.8249   19.8016 C.3     1  UNL1        0.0049
      7 C           3.7637   -2.5925   18.9389 C.3     1  UNL1        0.0217
      8 C           3.1514   -1.2256   18.8582 C.3     1  UNL1        0.0967
      9 C           4.9799   -4.2691   19.3967 C.3     1  UNL1        0.0019
     10 C           6.0176   -3.7482   20.3463 C.3     1  UNL1        0.0198
     11 O           1.9267    1.5083   18.6967 O.3     1  UNL1       -0.4367
     12 C           0.9952    3.3919   18.4062 C.3     1  UNL1        0.0490
     13 C           0.7187    2.1930   19.2642 C.3     1  UNL1        0.1917
     14 C           0.4423    0.9940   20.1222 C.3     1  UNL1        0.1846
     15 O          -0.7657    1.6786   20.6896 O.3     1  UNL1       -0.3462
     16 C          -0.4893    2.8776   19.8316 C.3     1  UNL1        0.1846
     17 C           7.2225   -3.9806   21.2091 C.3     1  UNL1        0.0909
     18 N           7.0833   -3.9991   22.7025 N.am    1  UNL1       -0.2888
     19 C           7.6069   -5.1632   23.4902 C.2     1  UNL1        0.3045
     20 O           8.2699   -6.3088   22.7845 O.2     1  UNL1       -0.2526
     21 N           7.4677   -5.1817   24.9836 N.am    1  UNL1       -0.2560
     22 C           7.9401   -6.2715   25.8997 C.3     1  UNL1        0.1218
     23 C           7.5960   -5.8770   27.3054 C.ar    1  UNL1       -0.0016
     24 C           7.8179   -6.5598   28.6224 C.ar    1  UNL1        0.0178
     25 C           7.3548   -5.9091   29.8920 C.ar    1  UNL1        0.0986
     26 N           6.6697   -4.5755   29.8447 N.ar    1  UNL1       -0.2426
     27 C           6.4477   -3.8927   28.5277 C.ar    1  UNL1        0.0960
     28 C           6.9109   -4.5434   27.2581 C.ar    1  UNL1        0.0146
     29 C           6.8316   -4.1137   25.8231 C.3     1  UNL1        0.1233
     30 H           6.6482   -3.2471   23.1656 H       1  UNL1        0.1510
@<TRIPOS>BOND
     1    12    13    1
     2    13    11    1
     3    11     1    1
     4     1     2    2
     5     1     3   am
     6     3     4    1
     7     4     5    1
     8     5     6    1
     9     6     7    1
    10     7     8    1
    11     6     9    1
    12     9    10    1
    13    10    17    1
    14    17    18    1
    15    18    19   am
    16    19    20    2
    17    19    21   am
    18    21    22    1
    19    22    23    1
    20    23    24   ar
    21    24    25   ar
    22    25    26   ar
    23    26    27   ar
    24    27    28   ar
    25    28    29    1
    26    13    14    1
    27    14    15    1
    28    15    16    1
    29    16    13    1
    30     8     3    1
    31    29    21    1
    32    10     6    1
    33    28    23   ar
    34    18    30    1
@<TRIPOS>MOLECULE
*****
 30 34 0 0 0
SMALL
GASTEIGER

@<TRIPOS>ATOM
      1 C          -0.1389    2.4474   21.5570 C.2     1  UNL1        0.4048
      2 O           0.2359    3.5826   22.4632 O.2     1  UNL1       -0.2262
      3 N           0.8452    1.3485   21.2851 N.am    1  UNL1       -0.2460
      4 C           2.2041    1.3847   21.9195 C.3     1  UNL1        0.0967
      5 C           3.1882    0.2858   21.6476 C.3     1  UNL1        0.0217
      6 C           2.8134   -0.8493   20.7414 C.3     1  UNL1        0.0049
      7 C           1.4546   -0.8855   20.1071 C.3     1  UNL1        0.0217
      8 C           0.4705    0.2134   20.3790 C.3     1  UNL1        0.0967
      9 C           3.1652   -2.1391   20.0612 C.3     1  UNL1        0.0019
     10 C           4.1661   -1.4629   20.9506 C.3     1  UNL1        0.0198
     11 O          -1.4977    2.4113   20.9227 O.3     1  UNL1       -0.4367
     12 C          -3.0989    3.7334   21.3561 C.3     1  UNL1        0.0490
     13 C          -2.0582    3.6450   20.2795 C.3     1  UNL1        0.1917
     14 C          -1.0174    3.5566   19.2029 C.3     1  UNL1        0.1846
     15 O          -1.5779    4.7903   18.5597 O.3     1  UNL1       -0.3462
     16 C          -2.6187    4.8787   19.6363 C.3     1  UNL1        0.1846
     17 C           5.5249   -1.4267   21.5850 C.3     1  UNL1        0.0909
     18 N           5.8798   -2.4164   22.6548 N.am    1  UNL1       -0.2888
     19 C           6.8087   -3.5531   22.3466 C.2     1  UNL1        0.3045
     20 O           7.3828   -3.7000   20.9687 O.2     1  UNL1       -0.2526
     21 N           7.1636   -4.5428   23.4164 N.am    1  UNL1       -0.2560
     22 C           8.0742   -5.7242   23.2577 C.3     1  UNL1        0.1218
     23 C           8.1436   -6.4365   24.5760 C.ar    1  UNL1       -0.0016
     24 C           8.8848   -7.6641   25.0157 C.ar    1  UNL1        0.0178
     25 C           8.7582   -8.1507   26.4289 C.ar    1  UNL1        0.0986
     26 N           7.8905   -7.4096   27.4024 N.ar    1  UNL1       -0.2426
     27 C           7.1493   -6.1819   26.9627 C.ar    1  UNL1        0.0960
     28 C           7.2758   -5.6954   25.5495 C.ar    1  UNL1        0.0146
     29 C           6.6702   -4.5250   24.8328 C.3     1  UNL1        0.1233
     30 H           5.5030   -2.3200   23.5592 H       1  UNL1        0.1510
@<TRIPOS>BOND
     1    12    13    1
     2    13    11    1
     3    11     1    1
     4     1     2    2
     5     1     3   am
     6     3     4    1
     7     4     5    1
     8     5     6    1
     9     6     7    1
    10     7     8    1
    11     6     9    1
    12     9    10    1
    13    10    17    1
    14    17    18    1
    15    18    19   am
    16    19    20    2
    17    19    21   am
    18    21    22    1
    19    22    23    1
    20    23    24   ar
    21    24    25   ar
    22    25    26   ar
    23    26    27   ar
    24    27    28   ar
    25    28    29    1
    26    13    14    1
    27    14    15    1
    28    15    16    1
    29    16    13    1
    30     8     3    1
    31    29    21    1
    32    10     6    1
    33    28    23   ar
    34    18    30    1
@<TRIPOS>MOLECULE
*****
 30 34 0 0 0
SMALL
GASTEIGER

@<TRIPOS>ATOM
      1 C           3.5445   -0.8434   18.4683 C.2     1  UNL1        0.4048
      2 O           3.4667   -0.8398   16.9703 O.2     1  UNL1       -0.2262
      3 N           2.5644   -0.0412   19.2721 N.am    1  UNL1       -0.2460
      4 C           1.5066    0.7644   18.5778 C.3     1  UNL1        0.0967
      5 C           0.5265    1.5665   19.3816 C.3     1  UNL1        0.0217
      6 C           0.6043    1.5630   20.8796 C.3     1  UNL1        0.0049
      7 C           1.6621    0.7574   21.5738 C.3     1  UNL1        0.0217
      8 C           2.6422   -0.0447   20.7700 C.3     1  UNL1        0.0967
      9 C           0.0834    2.0241   22.2085 C.3     1  UNL1        0.0019
     10 C          -0.5723    2.4912   20.9428 C.3     1  UNL1        0.0198
     11 O           4.6024   -1.6490   19.1625 O.3     1  UNL1       -0.4367
     12 C           6.0511   -2.8866   18.2302 C.3     1  UNL1        0.0490
     13 C           4.7246   -3.1191   18.8908 C.3     1  UNL1        0.1917
     14 C           3.3981   -3.3515   19.5513 C.3     1  UNL1        0.1846
     15 O           3.5204   -4.8216   19.2796 O.3     1  UNL1       -0.3462
     16 C           4.8469   -4.5892   18.6190 C.3     1  UNL1        0.1846
     17 C          -1.6302    3.2969   20.2486 C.3     1  UNL1        0.0909
     18 N          -2.9471    3.5449   20.9226 N.am    1  UNL1       -0.2888
     19 C          -3.0837    4.6625   21.9136 C.2     1  UNL1        0.3045
     20 O          -1.9033    5.5320   22.2308 O.2     1  UNL1       -0.2526
     21 N          -4.4006    4.9104   22.5876 N.am    1  UNL1       -0.2560
     22 C          -4.6871    5.9844   23.5948 C.3     1  UNL1        0.1218
     23 C          -6.1258    5.8657   24.0024 C.ar    1  UNL1       -0.0016
     24 C          -6.9650    6.6542   24.9638 C.ar    1  UNL1        0.0178
     25 C          -8.4067    6.2953   25.1698 C.ar    1  UNL1        0.0986
     26 N          -9.0093    5.1479   24.4145 N.ar    1  UNL1       -0.2426
     27 C          -8.1702    4.3595   23.4531 C.ar    1  UNL1        0.0960
     28 C          -6.7284    4.7184   23.2471 C.ar    1  UNL1        0.0146
     29 C          -5.6622    4.1280   22.3727 C.3     1  UNL1        0.1233
     30 H          -3.7218    2.9741   20.7144 H       1  UNL1        0.1510
@<TRIPOS>BOND
     1    12    13    1
     2    13    11    1
     3    11     1    1
     4     1     2    2
     5     1     3   am
     6     3     4    1
     7     4     5    1
     8     5     6    1
     9     6     7    1
    10     7     8    1
    11     6     9    1
    12     9    10    1
    13    10    17    1
    14    17    18    1
    15    18    19   am
    16    19    20    2
    17    19    21   am
    18    21    22    1
    19    22    23    1
    20    23    24   ar
    21    24    25   ar
    22    25    26   ar
    23    26    27   ar
    24    27    28   ar
    25    28    29    1
    26    13    14    1
    27    14    15    1
    28    15    16    1
    29    16    13    1
    30     8     3    1
    31    29    21    1
    32    10     6    1
    33    28    23   ar
    34    18    30    1
@<TRIPOS>MOLECULE
*****
 30 34 0 0 0
SMALL
GASTEIGER

@<TRIPOS>ATOM
      1 C           5.0941   -1.3896   17.7038 C.2     1  UNL1        0.4048
      2 O           5.9985   -0.5351   16.8659 O.2     1  UNL1       -0.2262
      3 N           3.9083   -0.7786   18.3897 N.am    1  UNL1       -0.2460
      4 C           3.6268    0.6869   18.2377 C.3     1  UNL1        0.0967
      5 C           2.4409    1.2979   18.9236 C.3     1  UNL1        0.0217
      6 C           1.5366    0.4434   19.7615 C.3     1  UNL1        0.0049
      7 C           1.8181   -1.0221   19.9135 C.3     1  UNL1        0.0217
      8 C           3.0039   -1.6331   19.2276 C.3     1  UNL1        0.0967
      9 C           0.3299    0.3028   20.6413 C.3     1  UNL1        0.0019
     10 C           0.6894    1.6422   20.0698 C.3     1  UNL1        0.0198
     11 O           5.3756   -2.8551   17.8558 O.3     1  UNL1       -0.4367
     12 C           4.7970   -4.5213   19.0343 C.3     1  UNL1        0.0490
     13 C           5.7874   -3.4054   19.1891 C.3     1  UNL1        0.1917
     14 C           6.7777   -2.2895   19.3438 C.3     1  UNL1        0.1846
     15 O           7.1895   -2.8399   20.6771 O.3     1  UNL1       -0.3462
     16 C           6.1991   -3.9558   20.5223 C.3     1  UNL1        0.1846
     17 C           0.4079    3.1078   19.9178 C.3     1  UNL1        0.0909
     18 N          -0.9173    3.5656   19.3848 N.am    1  UNL1       -0.2888
     19 C          -2.1296    3.5416   20.2678 C.2     1  UNL1        0.3045
     20 O          -2.0166    3.0599   21.6838 O.2     1  UNL1       -0.2526
     21 N          -3.4549    3.9994   19.7349 N.am    1  UNL1       -0.2560
     22 C          -4.7473    4.0324   20.4954 C.3     1  UNL1        0.1218
     23 C          -5.8116    4.5580   19.5784 C.ar    1  UNL1       -0.0016
     24 C          -7.2767    4.8085   19.7805 C.ar    1  UNL1        0.0178
     25 C          -8.1070    5.3509   18.6552 C.ar    1  UNL1        0.0986
     26 N          -7.4723    5.6428   17.3279 N.ar    1  UNL1       -0.2426
     27 C          -6.0073    5.3923   17.1257 C.ar    1  UNL1        0.0960
     28 C          -5.1769    4.8499   18.2510 C.ar    1  UNL1        0.0146
     29 C          -3.7204    4.5047   18.3477 C.3     1  UNL1        0.1233
     30 H          -0.9915    3.8817   18.4554 H       1  UNL1        0.1510
@<TRIPOS>BOND
     1    12    13    1
     2    13    11    1
     3    11     1    1
     4     1     2    2
     5     1     3   am
     6     3     4    1
     7     4     5    1
     8     5     6    1
     9     6     7    1
    10     7     8    1
    11     6     9    1
    12     9    10    1
    13    10    17    1
    14    17    18    1
    15    18    19   am
    16    19    20    2
    17    19    21   am
    18    21    22    1
    19    22    23    1
    20    23    24   ar
    21    24    25   ar
    22    25    26   ar
    23    26    27   ar
    24    27    28   ar
    25    28    29    1
    26    13    14    1
    27    14    15    1
    28    15    16    1
    29    16    13    1
    30     8     3    1
    31    29    21    1
    32    10     6    1
    33    28    23   ar
    34    18    30    1
