@<TRIPOS>MOLECULE
*****
 36 40 0 0 0
SMALL
GASTEIGER

@<TRIPOS>ATOM
      1 C           0.6652    2.0607   22.1747 C.3     1  UNL1        0.0748
      2 C           1.1786    1.2710   23.3421 C.3     1  UNL1        0.0197
      3 C           2.1271    0.1309   23.1174 C.3     1  UNL1        0.0020
      4 C           2.5623   -0.2194   21.7253 C.3     1  UNL1        0.0043
      5 C           2.0490    0.5703   20.5580 C.3     1  UNL1        0.0025
      6 C           1.1004    1.7104   20.7827 C.3     1  UNL1        0.0197
      7 C           2.4841    0.2200   19.1658 C.3     1  UNL1        0.0113
      8 C           3.4327   -0.9201   18.9411 C.3     1  UNL1        0.1028
      9 C           4.0338   -1.4944   17.6927 C.2     1  UNL1        0.3164
     10 O           3.7924   -1.0092   16.2940 O.2     1  UNL1       -0.2501
     11 O           4.9187   -2.6391   18.0884 O.3     1  UNL1       -0.4523
     12 C           4.8644   -2.7723   19.5815 C.3     1  UNL1        0.1697
     13 C           5.5995   -3.7893   20.4033 C.3     1  UNL1        0.0473
     14 C           3.9460   -1.7099   20.1086 C.3     1  UNL1        0.0547
     15 C           3.5108   -1.3595   21.5006 C.3     1  UNL1        0.0261
     16 C          -1.5561    3.2842   21.6102 C.2     1  UNL1        0.4016
     17 O          -1.8805    2.2274   20.5962 O.2     1  UNL1       -0.2264
     18 N          -0.2833    3.2008   22.3994 N.am    1  UNL1       -0.2723
     19 H          -0.0704    3.8944   23.0649 H       1  UNL1        0.1527
     20 O          -2.5046    4.4243   21.8349 O.3     1  UNL1       -0.4347
     21 C          -4.5666    3.2446   22.8871 C.3     1  UNL1        0.0513
     22 C          -3.9835    4.1747   21.8649 C.3     1  UNL1        0.2102
     23 C           4.0242   -2.1493   22.6680 C.2     1  UNL1       -0.0248
     24 C           5.2736   -1.7156   23.3756 C.2     1  UNL1        0.0145
     25 C           5.7870   -2.5054   24.5430 C.ar    1  UNL1        0.0810
     26 C           6.3392   -3.8839   24.3312 C.ar    1  UNL1        0.0192
     27 C           6.8526   -4.6737   25.4985 C.ar    1  UNL1        0.0046
     28 C           6.8136   -4.0851   26.8777 C.ar    1  UNL1        0.0368
     29 C           6.2614   -2.7066   27.0895 C.ar    1  UNL1        0.1003
     30 N           5.7480   -1.9168   25.9221 N.ar    1  UNL1       -0.2438
     31 C           7.3270   -4.8749   28.0450 C.ar    1  UNL1        0.0828
     32 C           8.6281   -5.6133   27.9370 C.ar    1  UNL1        0.0192
     33 C           9.1415   -6.4031   29.1043 C.ar    1  UNL1        0.0031
     34 C           8.3536   -6.4546   30.3797 C.ar    1  UNL1        0.0207
     35 C           7.0524   -5.7161   30.4878 C.ar    1  UNL1        0.0988
     36 N           6.5391   -4.9263   29.3204 N.ar    1  UNL1       -0.2438
@<TRIPOS>BOND
     1    21    22    1
     2    22    20    1
     3    20    16    1
     4    16    17    2
     5    16    18   am
     6     1    18    1
     7     1     2    1
     8     2     3    1
     9     4     3    1
    10     4     5    1
    11     5     6    1
    12     5     7    1
    13     8     7    1
    14     8     9    1
    15     9    10    2
    16     9    11    1
    17    11    12    1
    18    12    13    1
    19    14    12    1
    20    14    15    1
    21    15    23    1
    22    23    24    2
    23    24    25    1
    24    25    26   ar
    25    26    27   ar
    26    27    28   ar
    27    28    31    1
    28    31    32   ar
    29    32    33   ar
    30    33    34   ar
    31    34    35   ar
    32    35    36   ar
    33    28    29   ar
    34    29    30   ar
    35     6     1    1
    36    14     8    1
    37    30    25   ar
    38    15     4    1
    39    36    31   ar
    40    18    19    1
@<TRIPOS>MOLECULE
*****
 36 40 0 0 0
SMALL
GASTEIGER

@<TRIPOS>ATOM
      1 C           0.0648    2.5790   20.6983 C.3     1  UNL1        0.0748
      2 C           0.7613    2.5608   22.0267 C.3     1  UNL1        0.0197
      3 C          -0.0031    2.8742   23.2787 C.3     1  UNL1        0.0020
      4 C          -1.4639    3.2058   23.2023 C.3     1  UNL1        0.0043
      5 C          -2.1604    3.2241   21.8740 C.3     1  UNL1        0.0025
      6 C          -1.3960    2.9106   20.6220 C.3     1  UNL1        0.0197
      7 C          -3.6213    3.5557   21.7976 C.3     1  UNL1        0.0113
      8 C          -4.3857    3.8692   23.0496 C.3     1  UNL1        0.1028
      9 C          -5.8228    4.2290   23.2846 C.2     1  UNL1        0.3164
     10 O          -6.8822    4.3614   22.2310 O.2     1  UNL1       -0.2501
     11 O          -6.0145    4.4332   24.7582 O.3     1  UNL1       -0.4523
     12 C          -4.6958    4.1995   25.4339 C.3     1  UNL1        0.1697
     13 C          -4.4304    4.2973   26.9070 C.3     1  UNL1        0.0473
     14 C          -3.6892    3.8509   24.3780 C.3     1  UNL1        0.0547
     15 C          -2.2283    3.5193   24.4543 C.3     1  UNL1        0.0261
     16 C           1.1311    0.8404   19.0889 C.2     1  UNL1        0.4016
     17 O           0.6686   -0.2714   19.9834 O.2     1  UNL1       -0.2264
     18 N           0.8292    2.2655   19.4463 N.am    1  UNL1       -0.2723
     19 H           1.1327    2.9952   18.8592 H       1  UNL1        0.1527
     20 O           1.8955    0.5270   17.8369 O.3     1  UNL1       -0.4347
     21 C           3.9169   -0.7675   16.8426 C.3     1  UNL1        0.0513
     22 C           3.3285    0.0918   17.9222 C.3     1  UNL1        0.2102
     23 C          -1.5318    3.5011   25.7827 C.2     1  UNL1       -0.0248
     24 C          -1.2049    2.1931   26.4402 C.2     1  UNL1        0.0145
     25 C          -0.5084    2.1750   27.7687 C.ar    1  UNL1        0.0810
     26 C          -0.4039    0.8947   28.5432 C.ar    1  UNL1        0.0192
     27 C           0.2926    0.8764   29.8715 C.ar    1  UNL1        0.0046
     28 C           0.8845    2.1386   30.4254 C.ar    1  UNL1        0.0368
     29 C           0.7800    3.4189   29.6509 C.ar    1  UNL1        0.1003
     30 N           0.0835    3.4370   28.3225 N.ar    1  UNL1       -0.2438
     31 C           1.5810    2.1203   31.7538 C.ar    1  UNL1        0.0828
     32 C           2.5864    1.0498   32.0589 C.ar    1  UNL1        0.0192
     33 C           3.2829    1.0316   33.3872 C.ar    1  UNL1        0.0031
     34 C           2.9739    2.0840   34.4106 C.ar    1  UNL1        0.0207
     35 C           1.9685    3.1545   34.1055 C.ar    1  UNL1        0.0988
     36 N           1.2721    3.1727   32.7770 N.ar    1  UNL1       -0.2438
@<TRIPOS>BOND
     1    21    22    1
     2    22    20    1
     3    20    16    1
     4    16    17    2
     5    16    18   am
     6     1    18    1
     7     1     2    1
     8     2     3    1
     9     4     3    1
    10     4     5    1
    11     5     6    1
    12     5     7    1
    13     8     7    1
    14     8     9    1
    15     9    10    2
    16     9    11    1
    17    11    12    1
    18    12    13    1
    19    14    12    1
    20    14    15    1
    21    15    23    1
    22    23    24    2
    23    24    25    1
    24    25    26   ar
    25    26    27   ar
    26    27    28   ar
    27    28    31    1
    28    31    32   ar
    29    32    33   ar
    30    33    34   ar
    31    34    35   ar
    32    35    36   ar
    33    28    29   ar
    34    29    30   ar
    35     6     1    1
    36    14     8    1
    37    30    25   ar
    38    15     4    1
    39    36    31   ar
    40    18    19    1
@<TRIPOS>MOLECULE
*****
 36 40 0 0 0
SMALL
GASTEIGER

@<TRIPOS>ATOM
      1 C           5.0572    1.3552   36.5458 C.3     1  UNL1        0.0748
      2 C           5.5996    0.1251   35.8805 C.3     1  UNL1        0.0197
      3 C           5.0780   -0.2933   34.5379 C.3     1  UNL1        0.0020
      4 C           4.0139    0.5182   33.8605 C.3     1  UNL1        0.0043
      5 C           3.4714    1.7483   34.5257 C.3     1  UNL1        0.0025
      6 C           3.9930    2.1668   35.8684 C.3     1  UNL1        0.0197
      7 C           2.4072    2.5600   33.8483 C.3     1  UNL1        0.0113
      8 C           1.8855    2.1415   32.5057 C.3     1  UNL1        0.1028
      9 C           0.8472    2.7375   31.6020 C.2     1  UNL1        0.3164
     10 O           0.0483    3.9775   31.8744 O.2     1  UNL1       -0.2501
     11 O           0.7479    1.8758   30.3783 O.3     1  UNL1       -0.4523
     12 C           1.7250    0.7472   30.5256 C.3     1  UNL1        0.1697
     13 C           1.9580   -0.3526   29.5325 C.3     1  UNL1        0.0473
     14 C           2.4281    0.9114   31.8404 C.3     1  UNL1        0.0547
     15 C           3.4922    0.0998   32.5178 C.3     1  UNL1        0.0261
     16 C           4.6256    2.0185   39.0204 C.2     1  UNL1        0.4016
     17 O           3.1506    1.8450   38.8097 O.2     1  UNL1       -0.2264
     18 N           5.5788    1.7736   37.8885 N.am    1  UNL1       -0.2723
     19 H           6.5469    1.8875   38.0268 H       1  UNL1        0.1527
     20 O           5.1472    2.4370   40.3631 O.3     1  UNL1       -0.4347
     21 C           5.0498    4.6938   41.6467 C.3     1  UNL1        0.0513
     22 C           5.6470    3.8360   40.5708 C.3     1  UNL1        0.2102
     23 C           4.0347   -1.1303   31.8525 C.2     1  UNL1       -0.0248
     24 C           5.2400   -1.0333   30.9650 C.2     1  UNL1        0.0145
     25 C           5.7825   -2.2634   30.2997 C.ar    1  UNL1        0.0810
     26 C           6.3032   -3.3981   31.1313 C.ar    1  UNL1        0.0192
     27 C           6.8456   -4.6282   30.4660 C.ar    1  UNL1        0.0046
     28 C           6.8674   -4.7237   28.9692 C.ar    1  UNL1        0.0368
     29 C           6.3467   -3.5890   28.1376 C.ar    1  UNL1        0.1003
     30 N           5.8042   -2.3589   28.8029 N.ar    1  UNL1       -0.2438
     31 C           7.4098   -5.9538   28.3040 C.ar    1  UNL1        0.0828
     32 C           6.9272   -6.3424   26.9380 C.ar    1  UNL1        0.0192
     33 C           7.4697   -7.5725   26.2727 C.ar    1  UNL1        0.0031
     34 C           8.4948   -8.4141   26.9736 C.ar    1  UNL1        0.0207
     35 C           8.9774   -8.0254   28.3396 C.ar    1  UNL1        0.0988
     36 N           8.4349   -6.7952   29.0048 N.ar    1  UNL1       -0.2438
@<TRIPOS>BOND
     1    21    22    1
     2    22    20    1
     3    20    16    1
     4    16    17    2
     5    16    18   am
     6     1    18    1
     7     1     2    1
     8     2     3    1
     9     4     3    1
    10     4     5    1
    11     5     6    1
    12     5     7    1
    13     8     7    1
    14     8     9    1
    15     9    10    2
    16     9    11    1
    17    11    12    1
    18    12    13    1
    19    14    12    1
    20    14    15    1
    21    15    23    1
    22    23    24    2
    23    24    25    1
    24    25    26   ar
    25    26    27   ar
    26    27    28   ar
    27    28    31    1
    28    31    32   ar
    29    32    33   ar
    30    33    34   ar
    31    34    35   ar
    32    35    36   ar
    33    28    29   ar
    34    29    30   ar
    35     6     1    1
    36    14     8    1
    37    30    25   ar
    38    15     4    1
    39    36    31   ar
    40    18    19    1
@<TRIPOS>MOLECULE
*****
 36 40 0 0 0
SMALL
GASTEIGER

@<TRIPOS>ATOM
      1 C           6.5486   -2.7247   25.2663 C.3     1  UNL1        0.0748
      2 C           5.3207   -2.0210   25.7634 C.3     1  UNL1        0.0197
      3 C           4.2917   -1.5295   24.7889 C.3     1  UNL1        0.0020
      4 C           4.4906   -1.7416   23.3174 C.3     1  UNL1        0.0043
      5 C           5.7185   -2.4453   22.8204 C.3     1  UNL1        0.0025
      6 C           6.7475   -2.9369   23.7948 C.3     1  UNL1        0.0197
      7 C           5.9175   -2.6575   21.3488 C.3     1  UNL1        0.0113
      8 C           4.8885   -2.1660   20.3743 C.3     1  UNL1        0.1028
      9 C           4.8122   -2.2300   18.8776 C.2     1  UNL1        0.3164
     10 O           5.8319   -2.8494   17.9685 O.2     1  UNL1       -0.2501
     11 O           3.5371   -1.5659   18.4497 O.3     1  UNL1       -0.4523
     12 C           2.8254   -1.0914   19.6819 C.3     1  UNL1        0.1697
     13 C           1.5095   -0.3722   19.7182 C.3     1  UNL1        0.0473
     14 C           3.6606   -1.4622   20.8714 C.3     1  UNL1        0.0547
     15 C           3.4617   -1.2501   22.3429 C.3     1  UNL1        0.0261
     16 C           7.5734   -4.6519   26.6755 C.2     1  UNL1        0.4016
     17 O           6.5402   -5.5960   26.1358 O.2     1  UNL1       -0.2264
     18 N           7.5775   -3.2163   26.2408 N.am    1  UNL1       -0.2723
     19 H           8.2556   -2.5966   26.5951 H       1  UNL1        0.1527
     20 O           8.6023   -5.1434   27.6500 O.3     1  UNL1       -0.4347
     21 C           6.9670   -5.5607   29.6253 C.3     1  UNL1        0.0513
     22 C           8.1817   -5.9557   28.8389 C.3     1  UNL1        0.2102
     23 C           2.2338   -0.5463   22.8399 C.2     1  UNL1       -0.0248
     24 C           2.2563    0.9375   23.0580 C.2     1  UNL1        0.0145
     25 C           1.0283    1.6412   23.5551 C.ar    1  UNL1        0.0810
     26 C           0.5111    1.3625   24.9352 C.ar    1  UNL1        0.0192
     27 C          -0.7168    2.0661   25.4323 C.ar    1  UNL1        0.0046
     28 C          -1.4275    3.0486   24.5492 C.ar    1  UNL1        0.0368
     29 C          -0.9102    3.3274   23.1691 C.ar    1  UNL1        0.1003
     30 N           0.3177    2.6237   22.6720 N.ar    1  UNL1       -0.2438
     31 C          -2.6554    3.7522   25.0463 C.ar    1  UNL1        0.0828
     32 C          -3.0670    3.6183   26.4825 C.ar    1  UNL1        0.0192
     33 C          -4.2949    4.3219   26.9795 C.ar    1  UNL1        0.0031
     34 C          -5.1113    5.1596   26.0404 C.ar    1  UNL1        0.0207
     35 C          -4.6997    5.2936   24.6042 C.ar    1  UNL1        0.0988
     36 N          -3.4717    4.5899   24.1072 N.ar    1  UNL1       -0.2438
@<TRIPOS>BOND
     1    21    22    1
     2    22    20    1
     3    20    16    1
     4    16    17    2
     5    16    18   am
     6     1    18    1
     7     1     2    1
     8     2     3    1
     9     4     3    1
    10     4     5    1
    11     5     6    1
    12     5     7    1
    13     8     7    1
    14     8     9    1
    15     9    10    2
    16     9    11    1
    17    11    12    1
    18    12    13    1
    19    14    12    1
    20    14    15    1
    21    15    23    1
    22    23    24    2
    23    24    25    1
    24    25    26   ar
    25    26    27   ar
    26    27    28   ar
    27    28    31    1
    28    31    32   ar
    29    32    33   ar
    30    33    34   ar
    31    34    35   ar
    32    35    36   ar
    33    28    29   ar
    34    29    30   ar
    35     6     1    1
    36    14     8    1
    37    30    25   ar
    38    15     4    1
    39    36    31   ar
    40    18    19    1
@<TRIPOS>MOLECULE
*****
 36 40 0 0 0
SMALL
GASTEIGER

@<TRIPOS>ATOM
      1 C         -16.3812   -7.9398   17.6113 C.3     1  UNL1        0.0748
      2 C         -16.7956   -6.5002   17.5358 C.3     1  UNL1        0.0197
      3 C         -15.7819   -5.4156   17.7508 C.3     1  UNL1        0.0020
      4 C         -14.3538   -5.7707   18.0412 C.3     1  UNL1        0.0043
      5 C         -13.9394   -7.2103   18.1167 C.3     1  UNL1        0.0025
      6 C         -14.9531   -8.2948   17.9018 C.3     1  UNL1        0.0197
      7 C         -12.5112   -7.5654   18.4072 C.3     1  UNL1        0.0113
      8 C         -11.4975   -6.4809   18.6222 C.3     1  UNL1        0.1028
      9 C         -10.0287   -6.5252   18.9230 C.2     1  UNL1        0.3164
     10 O          -9.1989   -7.7643   19.0850 O.2     1  UNL1       -0.2501
     11 O          -9.5353   -5.1130   19.0334 O.3     1  UNL1       -0.4523
     12 C         -10.6993   -4.1959   18.8008 C.3     1  UNL1        0.1697
     13 C         -10.6578   -2.6966   18.8192 C.3     1  UNL1        0.0473
     14 C         -11.9120   -5.0412   18.5466 C.3     1  UNL1        0.0547
     15 C         -13.3401   -4.6862   18.2562 C.3     1  UNL1        0.0261
     16 C         -18.2188   -9.5197   18.5477 C.2     1  UNL1        0.4016
     17 O         -18.0291   -8.9305   19.9142 O.2     1  UNL1       -0.2264
     18 N         -17.3949   -9.0243   17.3964 N.am    1  UNL1       -0.2723
     19 H         -17.5194   -9.4110   16.4996 H       1  UNL1        0.1527
     20 O         -19.2325  -10.6042   18.3328 O.3     1  UNL1       -0.4347
     21 C         -20.3527  -10.6557   15.9892 C.3     1  UNL1        0.0513
     22 C         -20.4242  -10.3541   17.4568 C.3     1  UNL1        0.2102
     23 C         -13.7545   -3.2466   18.1807 C.2     1  UNL1       -0.0248
     24 C         -14.3302   -2.5675   19.3879 C.2     1  UNL1        0.0145
     25 C         -14.7446   -1.1278   19.3124 C.ar    1  UNL1        0.0810
     26 C         -13.9461   -0.1596   18.4908 C.ar    1  UNL1        0.0192
     27 C         -14.3604    1.2800   18.4152 C.ar    1  UNL1        0.0046
     28 C         -15.5734    1.7515   19.1613 C.ar    1  UNL1        0.0368
     29 C         -16.3719    0.7834   19.9828 C.ar    1  UNL1        0.1003
     30 N         -15.9575   -0.6563   20.0584 N.ar    1  UNL1       -0.2438
     31 C         -15.9877    3.1911   19.0857 C.ar    1  UNL1        0.0828
     32 C         -17.2843    3.5650   18.4305 C.ar    1  UNL1        0.0192
     33 C         -17.6986    5.0046   18.3549 C.ar    1  UNL1        0.0031
     34 C         -16.8164    6.0705   18.9345 C.ar    1  UNL1        0.0207
     35 C         -15.5199    5.6966   19.5897 C.ar    1  UNL1        0.0988
     36 N         -15.1056    4.2569   19.6653 N.ar    1  UNL1       -0.2438
@<TRIPOS>BOND
     1    21    22    1
     2    22    20    1
     3    20    16    1
     4    16    17    2
     5    16    18   am
     6     1    18    1
     7     1     2    1
     8     2     3    1
     9     4     3    1
    10     4     5    1
    11     5     6    1
    12     5     7    1
    13     8     7    1
    14     8     9    1
    15     9    10    2
    16     9    11    1
    17    11    12    1
    18    12    13    1
    19    14    12    1
    20    14    15    1
    21    15    23    1
    22    23    24    2
    23    24    25    1
    24    25    26   ar
    25    26    27   ar
    26    27    28   ar
    27    28    31    1
    28    31    32   ar
    29    32    33   ar
    30    33    34   ar
    31    34    35   ar
    32    35    36   ar
    33    28    29   ar
    34    29    30   ar
    35     6     1    1
    36    14     8    1
    37    30    25   ar
    38    15     4    1
    39    36    31   ar
    40    18    19    1
@<TRIPOS>MOLECULE
*****
 36 40 0 0 0
SMALL
GASTEIGER

@<TRIPOS>ATOM
      1 C           7.2818   -3.2904   30.1079 C.3     1  UNL1        0.0748
      2 C           6.3536   -2.5876   29.1622 C.3     1  UNL1        0.0197
      3 C           5.3961   -1.5553   29.6794 C.3     1  UNL1        0.0020
      4 C           5.3669   -1.2257   31.1424 C.3     1  UNL1        0.0043
      5 C           6.2951   -1.9285   32.0882 C.3     1  UNL1        0.0025
      6 C           7.2525   -2.9609   31.5709 C.3     1  UNL1        0.0197
      7 C           6.2659   -1.5990   33.5513 C.3     1  UNL1        0.0113
      8 C           5.3084   -0.5666   34.0686 C.3     1  UNL1        0.1028
      9 C           5.0535   -0.0360   35.4482 C.2     1  UNL1        0.3164
     10 O           5.7603   -0.4614   36.7010 O.2     1  UNL1       -0.2501
     11 O           3.9678    0.9948   35.3551 O.3     1  UNL1       -0.4523
     12 C           3.5516    1.1012   33.9179 C.3     1  UNL1        0.1697
     13 C           2.4928    2.0125   33.3717 C.3     1  UNL1        0.0473
     14 C           4.3802    0.1362   33.1227 C.3     1  UNL1        0.0547
     15 C           4.4095   -0.1934   31.6597 C.3     1  UNL1        0.0261
     16 C           8.0143   -5.7740   29.8959 C.2     1  UNL1        0.4016
     17 O           6.8319   -6.1930   30.7184 O.2     1  UNL1       -0.2264
     18 N           8.2392   -4.3228   29.5906 N.am    1  UNL1       -0.2723
     19 H           9.0152   -4.0478   29.0508 H       1  UNL1        0.1527
     20 O           8.9717   -6.8064   29.3786 O.3     1  UNL1       -0.4347
     21 C           8.6969   -8.8704   27.8247 C.3     1  UNL1        0.0513
     22 C           8.7830   -7.3840   28.0071 C.3     1  UNL1        0.2102
     23 C           3.4813    0.5094   30.7140 C.2     1  UNL1       -0.0248
     24 C           2.1501   -0.0964   30.3807 C.2     1  UNL1        0.0145
     25 C           1.2219    0.6065   29.4349 C.ar    1  UNL1        0.0810
     26 C           1.6780    1.8410   28.7153 C.ar    1  UNL1        0.0192
     27 C           0.7499    2.5439   27.7695 C.ar    1  UNL1        0.0046
     28 C          -0.6345    2.0122   27.5434 C.ar    1  UNL1        0.0368
     29 C          -1.0906    0.7777   28.2630 C.ar    1  UNL1        0.1003
     30 N          -0.1624    0.0748   29.2088 N.ar    1  UNL1       -0.2438
     31 C          -1.5626    2.7151   26.5976 C.ar    1  UNL1        0.0828
     32 C          -1.2078    2.8291   25.1446 C.ar    1  UNL1        0.0192
     33 C          -2.1359    3.5320   24.1989 C.ar    1  UNL1        0.0031
     34 C          -3.4189    4.1208   24.7060 C.ar    1  UNL1        0.0207
     35 C          -3.7738    4.0068   26.1590 C.ar    1  UNL1        0.0988
     36 N          -2.8455    3.3039   27.1048 N.ar    1  UNL1       -0.2438
@<TRIPOS>BOND
     1    21    22    1
     2    22    20    1
     3    20    16    1
     4    16    17    2
     5    16    18   am
     6     1    18    1
     7     1     2    1
     8     2     3    1
     9     4     3    1
    10     4     5    1
    11     5     6    1
    12     5     7    1
    13     8     7    1
    14     8     9    1
    15     9    10    2
    16     9    11    1
    17    11    12    1
    18    12    13    1
    19    14    12    1
    20    14    15    1
    21    15    23    1
    22    23    24    2
    23    24    25    1
    24    25    26   ar
    25    26    27   ar
    26    27    28   ar
    27    28    31    1
    28    31    32   ar
    29    32    33   ar
    30    33    34   ar
    31    34    35   ar
    32    35    36   ar
    33    28    29   ar
    34    29    30   ar
    35     6     1    1
    36    14     8    1
    37    30    25   ar
    38    15     4    1
    39    36    31   ar
    40    18    19    1
@<TRIPOS>MOLECULE
*****
 36 40 0 0 0
SMALL
GASTEIGER

@<TRIPOS>ATOM
      1 C          -0.7957    3.0203   20.0337 C.3     1  UNL1        0.0748
      2 C          -0.5664    2.6688   21.4737 C.3     1  UNL1        0.0197
      3 C           0.4792    1.6581   21.8417 C.3     1  UNL1        0.0020
      4 C           1.2954    0.9991   20.7697 C.3     1  UNL1        0.0043
      5 C           1.0661    1.3506   19.3297 C.3     1  UNL1        0.0025
      6 C           0.0205    2.3612   18.9617 C.3     1  UNL1        0.0197
      7 C           1.8823    0.6915   18.2575 C.3     1  UNL1        0.0113
      8 C           2.9279   -0.3191   18.6255 C.3     1  UNL1        0.1028
      9 C           3.8794   -1.1273   17.7940 C.2     1  UNL1        0.3164
     10 O           3.9934   -1.0909   16.2988 O.2     1  UNL1       -0.2501
     11 O           4.6967   -1.9783   18.7201 O.3     1  UNL1       -0.4523
     12 C           4.2504   -1.6961   20.1241 C.3     1  UNL1        0.1697
     13 C           4.8007   -2.3282   21.3681 C.3     1  UNL1        0.0473
     14 C           3.1573   -0.6706   20.0657 C.3     1  UNL1        0.0547
     15 C           2.3410   -0.0115   21.1377 C.3     1  UNL1        0.0261
     16 C          -3.2692    3.8144   20.0710 C.2     1  UNL1        0.4016
     17 O          -3.6515    2.5873   20.8445 O.2     1  UNL1       -0.2264
     18 N          -1.8413    4.0309   19.6657 N.am    1  UNL1       -0.2723
     19 H          -1.5904    4.8362   19.1581 H       1  UNL1        0.1527
     20 O          -4.3148    4.8250   19.7030 O.3     1  UNL1       -0.4347
     21 C          -6.4138    3.5511   18.8539 C.3     1  UNL1        0.0513
     22 C          -5.7690    4.4824   19.8371 C.3     1  UNL1        0.2102
     23 C           2.5704   -0.3631   22.5778 C.2     1  UNL1       -0.0248
     24 C           3.4706    0.4882   23.4234 C.2     1  UNL1        0.0145
     25 C           3.6999    0.1366   24.8635 C.ar    1  UNL1        0.0810
     26 C           3.6228    1.2016   25.9170 C.ar    1  UNL1        0.0192
     27 C           3.8521    0.8501   27.3571 C.ar    1  UNL1        0.0046
     28 C           4.1585   -0.5665   27.7437 C.ar    1  UNL1        0.0368
     29 C           4.2357   -1.6315   26.6902 C.ar    1  UNL1        0.1003
     30 N           4.0063   -1.2800   25.2501 N.ar    1  UNL1       -0.2438
     31 C           4.3878   -0.9180   29.1838 C.ar    1  UNL1        0.0828
     32 C           5.6654   -1.5856   29.5986 C.ar    1  UNL1        0.0192
     33 C           5.8948   -1.9371   31.0386 C.ar    1  UNL1        0.0031
     34 C           4.8464   -1.6210   32.0640 C.ar    1  UNL1        0.0207
     35 C           3.5688   -0.9535   31.6491 C.ar    1  UNL1        0.0988
     36 N           3.3396   -0.6019   30.2090 N.ar    1  UNL1       -0.2438
@<TRIPOS>BOND
     1    21    22    1
     2    22    20    1
     3    20    16    1
     4    16    17    2
     5    16    18   am
     6     1    18    1
     7     1     2    1
     8     2     3    1
     9     4     3    1
    10     4     5    1
    11     5     6    1
    12     5     7    1
    13     8     7    1
    14     8     9    1
    15     9    10    2
    16     9    11    1
    17    11    12    1
    18    12    13    1
    19    14    12    1
    20    14    15    1
    21    15    23    1
    22    23    24    2
    23    24    25    1
    24    25    26   ar
    25    26    27   ar
    26    27    28   ar
    27    28    31    1
    28    31    32   ar
    29    32    33   ar
    30    33    34   ar
    31    34    35   ar
    32    35    36   ar
    33    28    29   ar
    34    29    30   ar
    35     6     1    1
    36    14     8    1
    37    30    25   ar
    38    15     4    1
    39    36    31   ar
    40    18    19    1
@<TRIPOS>MOLECULE
*****
 36 40 0 0 0
SMALL
GASTEIGER

@<TRIPOS>ATOM
      1 C           0.4378    0.9227   21.0655 C.3     1  UNL1        0.0748
      2 C           0.9850    1.2411   22.4253 C.3     1  UNL1        0.0197
      3 C           2.1589    0.4753   22.9596 C.3     1  UNL1        0.0020
      4 C           2.7857   -0.6090   22.1341 C.3     1  UNL1        0.0043
      5 C           2.2385   -0.9274   20.7743 C.3     1  UNL1        0.0025
      6 C           1.0646   -0.1616   20.2400 C.3     1  UNL1        0.0197
      7 C           2.8652   -2.0118   19.9487 C.3     1  UNL1        0.0113
      8 C           4.0391   -2.7776   20.4830 C.3     1  UNL1        0.1028
      9 C           4.8587   -3.8919   19.9029 C.2     1  UNL1        0.3164
     10 O           4.6595   -4.5248   18.5577 O.2     1  UNL1       -0.2501
     11 O           5.9124   -4.2621   20.9042 O.3     1  UNL1       -0.4523
     12 C           5.7441   -3.3765   22.1032 C.3     1  UNL1        0.1697
     13 C           6.5857   -3.4037   23.3445 C.3     1  UNL1        0.0473
     14 C           4.5863   -2.4591   21.8429 C.3     1  UNL1        0.0547
     15 C           3.9596   -1.3748   22.6684 C.3     1  UNL1        0.0261
     16 C          -0.5217    2.9977   19.8312 C.2     1  UNL1        0.4016
     17 O           0.8666    3.5411   19.6655 O.2     1  UNL1       -0.2264
     18 N          -0.7361    1.6885   20.5312 N.am    1  UNL1       -0.2723
     19 H          -1.6472    1.3318   20.6400 H       1  UNL1        0.1527
     20 O          -1.6956    3.7635   19.2970 O.3     1  UNL1       -0.4347
     21 C          -4.2871    3.6936   19.1248 C.3     1  UNL1        0.0513
     22 C          -3.0381    3.6325   19.9532 C.3     1  UNL1        0.2102
     23 C           4.5068   -1.0563   24.0282 C.2     1  UNL1       -0.0248
     24 C           3.8831   -1.6650   25.2491 C.2     1  UNL1        0.0145
     25 C           4.4303   -1.3465   26.6089 C.ar    1  UNL1        0.0810
     26 C           5.8923   -1.0576   26.7802 C.ar    1  UNL1        0.0192
     27 C           6.4395   -0.7391   28.1400 C.ar    1  UNL1        0.0046
     28 C           5.5249   -0.7095   29.3286 C.ar    1  UNL1        0.0368
     29 C           4.0630   -0.9984   29.1573 C.ar    1  UNL1        0.1003
     30 N           3.5157   -1.3169   27.7974 N.ar    1  UNL1       -0.2438
     31 C           6.0721   -0.3910   30.6883 C.ar    1  UNL1        0.0828
     32 C           7.0613    0.7241   30.8564 C.ar    1  UNL1        0.0192
     33 C           7.6085    1.0426   32.2161 C.ar    1  UNL1        0.0031
     34 C           7.1667    0.2460   33.4079 C.ar    1  UNL1        0.0207
     35 C           6.1776   -0.8691   33.2399 C.ar    1  UNL1        0.0988
     36 N           5.6303   -1.1876   31.8800 N.ar    1  UNL1       -0.2438
@<TRIPOS>BOND
     1    21    22    1
     2    22    20    1
     3    20    16    1
     4    16    17    2
     5    16    18   am
     6     1    18    1
     7     1     2    1
     8     2     3    1
     9     4     3    1
    10     4     5    1
    11     5     6    1
    12     5     7    1
    13     8     7    1
    14     8     9    1
    15     9    10    2
    16     9    11    1
    17    11    12    1
    18    12    13    1
    19    14    12    1
    20    14    15    1
    21    15    23    1
    22    23    24    2
    23    24    25    1
    24    25    26   ar
    25    26    27   ar
    26    27    28   ar
    27    28    31    1
    28    31    32   ar
    29    32    33   ar
    30    33    34   ar
    31    34    35   ar
    32    35    36   ar
    33    28    29   ar
    34    29    30   ar
    35     6     1    1
    36    14     8    1
    37    30    25   ar
    38    15     4    1
    39    36    31   ar
    40    18    19    1
@<TRIPOS>MOLECULE
*****
 36 40 0 0 0
SMALL
GASTEIGER

@<TRIPOS>ATOM
      1 C           5.6094   -2.5464   23.9191 C.3     1  UNL1        0.0748
      2 C           4.3958   -1.9232   24.5425 C.3     1  UNL1        0.0197
      3 C           3.3973   -1.2042   23.6846 C.3     1  UNL1        0.0020
      4 C           3.6124   -1.1084   22.2032 C.3     1  UNL1        0.0043
      5 C           4.8260   -1.7316   21.5798 C.3     1  UNL1        0.0025
      6 C           5.8245   -2.4506   22.4377 C.3     1  UNL1        0.0197
      7 C           5.0412   -1.6359   20.0983 C.3     1  UNL1        0.0113
      8 C           4.0426   -0.9169   19.2404 C.3     1  UNL1        0.1028
      9 C           3.9875   -0.6621   17.7632 C.2     1  UNL1        0.3164
     10 O           5.0020   -1.1095   16.7529 O.2     1  UNL1       -0.2501
     11 O           2.7398    0.1185   17.4737 O.3     1  UNL1       -0.4523
     12 C           2.0238    0.3462   18.7720 C.3     1  UNL1        0.1697
     13 C           0.7298    1.0843   18.9476 C.3     1  UNL1        0.0473
     14 C           2.8290   -0.2937   19.8639 C.3     1  UNL1        0.0547
     15 C           2.6139   -0.3895   21.3453 C.3     1  UNL1        0.0261
     16 C           7.2524   -4.5260   24.2817 C.2     1  UNL1        0.4016
     17 O           6.8985   -5.0677   22.9285 O.2     1  UNL1       -0.2264
     18 N           6.6079   -3.2653   24.7770 N.am    1  UNL1       -0.2723
     19 H           6.8402   -2.9098   25.6652 H       1  UNL1        0.1527
     20 O           8.2510   -5.2449   25.1397 O.3     1  UNL1       -0.4347
     21 C           9.0202   -7.7100   24.8533 C.3     1  UNL1        0.0513
     22 C           8.0720   -6.7045   25.4362 C.3     1  UNL1        0.2102
     23 C           1.4003    0.2337   21.9687 C.2     1  UNL1       -0.0248
     24 C           1.4959    1.5888   22.6049 C.2     1  UNL1        0.0145
     25 C           0.2822    2.2120   23.2283 C.ar    1  UNL1        0.0810
     26 C           0.0071    2.0189   24.6902 C.ar    1  UNL1        0.0192
     27 C          -1.2066    2.6420   25.3137 C.ar    1  UNL1        0.0046
     28 C          -2.1451    3.4583   24.4753 C.ar    1  UNL1        0.0368
     29 C          -1.8700    3.6514   23.0134 C.ar    1  UNL1        0.1003
     30 N          -0.6563    3.0282   22.3899 N.ar    1  UNL1       -0.2438
     31 C          -3.3588    4.0814   25.0987 C.ar    1  UNL1        0.0828
     32 C          -3.3104    4.5594   26.5197 C.ar    1  UNL1        0.0192
     33 C          -4.5240    5.1825   27.1432 C.ar    1  UNL1        0.0031
     34 C          -5.7861    5.3277   26.3456 C.ar    1  UNL1        0.0207
     35 C          -5.8345    4.8498   24.9246 C.ar    1  UNL1        0.0988
     36 N          -4.6208    4.2266   24.3012 N.ar    1  UNL1       -0.2438
@<TRIPOS>BOND
     1    21    22    1
     2    22    20    1
     3    20    16    1
     4    16    17    2
     5    16    18   am
     6     1    18    1
     7     1     2    1
     8     2     3    1
     9     4     3    1
    10     4     5    1
    11     5     6    1
    12     5     7    1
    13     8     7    1
    14     8     9    1
    15     9    10    2
    16     9    11    1
    17    11    12    1
    18    12    13    1
    19    14    12    1
    20    14    15    1
    21    15    23    1
    22    23    24    2
    23    24    25    1
    24    25    26   ar
    25    26    27   ar
    26    27    28   ar
    27    28    31    1
    28    31    32   ar
    29    32    33   ar
    30    33    34   ar
    31    34    35   ar
    32    35    36   ar
    33    28    29   ar
    34    29    30   ar
    35     6     1    1
    36    14     8    1
    37    30    25   ar
    38    15     4    1
    39    36    31   ar
    40    18    19    1
