@<TRIPOS>MOLECULE
*****
 35 38 0 0 0
SMALL
GASTEIGER

@<TRIPOS>ATOM
      1 C           6.1389   -0.9114   33.4187 C.2     1  UNL1        0.2685
      2 O           7.5919   -1.2467   33.5807 O.2     1  UNL1       -0.2682
      3 N           5.3416   -1.5438   32.3167 N.am    1  UNL1       -0.2723
      4 C           5.9973   -2.5114   31.3766 C.3     1  UNL1        0.0761
      5 C           6.3616   -2.2421   29.9467 C.3     1  UNL1        0.0213
      6 C           6.9933   -3.4825   29.3878 C.3     1  UNL1        0.0190
      7 C           7.6089   -4.0827   28.1586 C.3     1  UNL1        0.0722
      8 N           8.0155   -5.4895   28.4835 N.3     1  UNL1       -0.2707
      9 C           7.6512   -5.7588   29.9135 C.3     1  UNL1        0.0722
     10 C           7.0195   -4.5184   30.4723 C.3     1  UNL1        0.0190
     11 C           6.4039   -3.9182   31.7015 C.3     1  UNL1        0.0213
     12 C           8.6712   -6.4571   27.5435 C.3     1  UNL1        0.0993
     13 C           8.0638   -7.8095   27.3151 C.3     1  UNL1        0.1031
     14 C           6.9947   -7.1861   26.4675 C.3     1  UNL1        0.0307
     15 C           9.1329   -8.4329   28.1626 C.3     1  UNL1        0.0307
     16 O           7.4564   -9.1619   27.0866 O.3     1  UNL1       -0.3854
     17 H           6.6736   -9.0734   26.5207 H       1  UNL1        0.2103
     18 C           3.6213    1.1067   37.5984 C.3     1  UNL1        0.1321
     19 N           4.3259    0.9839   36.2798 N.ar    1  UNL1       -0.3057
     20 C           4.6219    2.1068   35.3305 C.ar    1  UNL1        0.1787
     21 N           5.3371    1.5334   34.1431 N.ar    1  UNL1       -0.2192
     22 C           5.4830    0.0562   34.3587 C.ar    1  UNL1        0.1535
     23 C           4.8581   -0.2834   35.6793 C.ar    1  UNL1        0.1012
     24 C           3.8886   -1.2085   32.1547 C.3     1  UNL1        0.1205
     25 C           3.4477   -0.2996   31.0459 C.ar    1  UNL1        0.0007
     26 C           4.2561    0.9179   30.7078 C.ar    1  UNL1       -0.0024
     27 C           3.8152    1.8268   29.5990 C.ar    1  UNL1        0.0028
     28 C           2.5660    1.5183   28.8282 C.ar    1  UNL1        0.0372
     29 C           1.7575    0.3009   29.1662 C.ar    1  UNL1        0.1465
     30 C           2.1984   -0.6080   30.2750 C.ar    1  UNL1        0.0346
     31 O           0.5082   -0.0077   28.3955 O.3     1  UNL1       -0.4045
     32 C          -0.8323    0.1255   29.0554 C.3     1  UNL1        0.5753
     33 F          -2.1728    0.2586   29.7153 F       1  UNL1       -0.1328
     34 F          -1.3121   -1.0947   28.3268 F       1  UNL1       -0.1328
     35 F          -0.3524    1.3456   29.7840 F       1  UNL1       -0.1328
@<TRIPOS>BOND
     1    18    19    1
     2    19    20   ar
     3    20    21   ar
     4    21    22   ar
     5    22     1    1
     6     1     2    2
     7     1     3   am
     8     3    24    1
     9    24    25    1
    10    25    26   ar
    11    26    27   ar
    12    27    28   ar
    13    28    29   ar
    14    29    31    1
    15    31    32    1
    16    32    33    1
    17    32    34    1
    18    32    35    1
    19    29    30   ar
    20     4     3    1
    21     4     5    1
    22     6     5    1
    23     6     7    1
    24     7     8    1
    25     8    12    1
    26    12    13    1
    27    13    14    1
    28    13    15    1
    29    13    16    1
    30     8     9    1
    31    10     9    1
    32    10    11    1
    33    22    23   ar
    34    23    19   ar
    35    30    25   ar
    36    11     4    1
    37    10     6    1
    38    16    17    1
@<TRIPOS>MOLECULE
*****
 35 38 0 0 0
SMALL
GASTEIGER

@<TRIPOS>ATOM
      1 C          -0.1921    3.4523   20.8248 C.2     1  UNL1        0.2685
      2 O          -0.0488    4.6281   21.7451 O.2     1  UNL1       -0.2682
      3 N           0.2355    2.0881   21.2788 N.am    1  UNL1       -0.2723
      4 C           0.8064    1.8996   22.6530 C.3     1  UNL1        0.0761
      5 C           0.0258    1.8508   23.9330 C.3     1  UNL1        0.0213
      6 C           0.9951    1.6479   25.0596 C.3     1  UNL1        0.0190
      7 C           1.1117    1.4924   26.5469 C.3     1  UNL1        0.0722
      8 N           2.5634    1.3196   26.8826 N.3     1  UNL1       -0.2707
      9 C           3.3441    1.3684   25.6025 C.3     1  UNL1        0.0722
     10 C           2.3748    1.5713   24.4759 C.3     1  UNL1        0.0190
     11 C           2.2581    1.7269   22.9886 C.3     1  UNL1        0.0213
     12 C           3.1343    1.1312   28.2567 C.3     1  UNL1        0.0993
     13 C           2.4841    0.1776   29.2147 C.3     1  UNL1        0.1031
     14 C           2.0080    1.3341   30.0428 C.3     1  UNL1        0.0307
     15 C           2.9601   -0.9790   28.3867 C.3     1  UNL1        0.0307
     16 O           1.8338   -0.7761   30.1728 O.3     1  UNL1       -0.3854
     17 H           1.4034   -0.2765   30.8842 H       1  UNL1        0.2103
     18 C          -3.6112    4.0507   16.8458 C.3     1  UNL1        0.1321
     19 N          -2.3344    3.9157   17.6216 N.ar    1  UNL1       -0.3057
     20 C          -0.9481    3.9453   17.0497 C.ar    1  UNL1        0.1787
     21 N           0.0232    3.7753   18.1802 N.ar    1  UNL1       -0.2192
     22 C          -0.7629    3.6407   19.4505 C.ar    1  UNL1        0.1535
     23 C          -2.2200    3.7274   19.1053 C.ar    1  UNL1        0.1012
     24 C           0.0922    0.9123   20.3584 C.3     1  UNL1        0.1205
     25 C           1.3098    0.2888   19.7431 C.ar    1  UNL1        0.0007
     26 C           1.9915    0.9574   18.5863 C.ar    1  UNL1       -0.0024
     27 C           3.2091    0.3339   17.9709 C.ar    1  UNL1        0.0028
     28 C           3.7451   -0.9582   18.5124 C.ar    1  UNL1        0.0372
     29 C           3.0634   -1.6269   19.6692 C.ar    1  UNL1        0.1465
     30 C           1.8458   -1.0034   20.2845 C.ar    1  UNL1        0.0346
     31 O           3.5993   -2.9191   20.2107 O.3     1  UNL1       -0.4045
     32 C           4.0873   -3.9812   19.2707 C.3     1  UNL1        0.5753
     33 F           4.5753   -5.0434   18.3306 F       1  UNL1       -0.1328
     34 F           5.5051   -3.5864   19.5607 F       1  UNL1       -0.1328
     35 F           2.6696   -4.3760   18.9807 F       1  UNL1       -0.1328
@<TRIPOS>BOND
     1    18    19    1
     2    19    20   ar
     3    20    21   ar
     4    21    22   ar
     5    22     1    1
     6     1     2    2
     7     1     3   am
     8     3    24    1
     9    24    25    1
    10    25    26   ar
    11    26    27   ar
    12    27    28   ar
    13    28    29   ar
    14    29    31    1
    15    31    32    1
    16    32    33    1
    17    32    34    1
    18    32    35    1
    19    29    30   ar
    20     4     3    1
    21     4     5    1
    22     6     5    1
    23     6     7    1
    24     7     8    1
    25     8    12    1
    26    12    13    1
    27    13    14    1
    28    13    15    1
    29    13    16    1
    30     8     9    1
    31    10     9    1
    32    10    11    1
    33    22    23   ar
    34    23    19   ar
    35    30    25   ar
    36    11     4    1
    37    10     6    1
    38    16    17    1
@<TRIPOS>MOLECULE
*****
 35 38 0 0 0
SMALL
GASTEIGER

@<TRIPOS>ATOM
      1 C          -0.4577    2.8950   21.7919 C.2     1  UNL1        0.2685
      2 O          -0.2360    3.7890   22.9758 O.2     1  UNL1       -0.2682
      3 N           0.3757    1.6599   21.6183 N.am    1  UNL1       -0.2723
      4 C           1.4307    1.3188   22.6285 C.3     1  UNL1        0.0761
      5 C           2.8954    1.6194   22.5094 C.3     1  UNL1        0.0213
      6 C           3.5761    1.1036   23.7426 C.3     1  UNL1        0.0190
      7 C           4.9021    0.9706   24.4311 C.3     1  UNL1        0.0722
      8 N           4.6776    0.2690   25.7378 N.3     1  UNL1       -0.2707
      9 C           3.2128   -0.0315   25.8568 C.3     1  UNL1        0.0722
     10 C           2.5321    0.4843   24.6237 C.3     1  UNL1        0.0190
     11 C           1.2061    0.6173   23.9352 C.3     1  UNL1        0.0213
     12 C           5.7326   -0.0721   26.7480 C.3     1  UNL1        0.0993
     13 C           5.7371   -1.4225   27.4010 C.3     1  UNL1        0.1031
     14 C           6.2002   -2.0423   26.1159 C.3     1  UNL1        0.0307
     15 C           5.2740   -0.8028   28.6860 C.3     1  UNL1        0.0307
     16 O           5.7416   -2.7730   28.0539 O.3     1  UNL1       -0.3854
     17 H           6.0250   -3.4420   27.4111 H       1  UNL1        0.2103
     18 C          -2.8491    4.6780   17.4350 C.3     1  UNL1        0.1321
     19 N          -2.6119    4.0555   18.7790 N.ar    1  UNL1       -0.3057
     20 C          -3.6605    3.4659   19.6749 C.ar    1  UNL1        0.1787
     21 N          -2.9811    2.9594   20.9127 N.ar    1  UNL1       -0.2192
     22 C          -1.5127    3.2360   20.7816 C.ar    1  UNL1        0.1535
     23 C          -1.2845    3.9134   19.4630 C.ar    1  UNL1        0.1012
     24 C           0.1540    0.7660   20.4343 C.3     1  UNL1        0.1205
     25 C           1.3244    0.1269   19.7476 C.ar    1  UNL1        0.0007
     26 C           1.9207    0.7677   18.5294 C.ar    1  UNL1       -0.0024
     27 C           3.0911    0.1286   17.8426 C.ar    1  UNL1        0.0028
     28 C           3.6653   -1.1512   18.3739 C.ar    1  UNL1        0.0372
     29 C           3.0690   -1.7921   19.5920 C.ar    1  UNL1        0.1465
     30 C           1.8986   -1.1530   20.2788 C.ar    1  UNL1        0.0346
     31 O           3.6432   -3.0720   20.1234 O.3     1  UNL1       -0.4045
     32 C           4.1526   -4.1162   19.1747 C.3     1  UNL1        0.5753
     33 F           4.6622   -5.1605   18.2261 F       1  UNL1       -0.1328
     34 F           2.7442   -4.5517   18.8977 F       1  UNL1       -0.1328
     35 F           5.5610   -3.6807   19.4517 F       1  UNL1       -0.1328
@<TRIPOS>BOND
     1    18    19    1
     2    19    20   ar
     3    20    21   ar
     4    21    22   ar
     5    22     1    1
     6     1     2    2
     7     1     3   am
     8     3    24    1
     9    24    25    1
    10    25    26   ar
    11    26    27   ar
    12    27    28   ar
    13    28    29   ar
    14    29    31    1
    15    31    32    1
    16    32    33    1
    17    32    34    1
    18    32    35    1
    19    29    30   ar
    20     4     3    1
    21     4     5    1
    22     6     5    1
    23     6     7    1
    24     7     8    1
    25     8    12    1
    26    12    13    1
    27    13    14    1
    28    13    15    1
    29    13    16    1
    30     8     9    1
    31    10     9    1
    32    10    11    1
    33    22    23   ar
    34    23    19   ar
    35    30    25   ar
    36    11     4    1
    37    10     6    1
    38    16    17    1
@<TRIPOS>MOLECULE
*****
 35 38 0 0 0
SMALL
GASTEIGER

@<TRIPOS>ATOM
      1 C           2.1251    1.8887   19.1573 C.2     1  UNL1        0.2685
      2 O           2.0483    3.3767   18.9842 O.2     1  UNL1       -0.2682
      3 N           1.1788    1.1922   20.0897 N.am    1  UNL1       -0.2723
      4 C           0.1556    1.9837   20.8491 C.3     1  UNL1        0.0761
      5 C          -1.1303    2.5228   20.2962 C.3     1  UNL1        0.0213
      6 C          -1.8418    3.2473   21.4001 C.3     1  UNL1        0.0190
      7 C          -3.0764    4.0283   21.7407 C.3     1  UNL1        0.0722
      8 N          -2.9933    4.4197   23.1864 N.3     1  UNL1       -0.2707
      9 C          -1.7073    3.8805   23.7393 C.3     1  UNL1        0.0722
     10 C          -0.9957    3.1560   22.6353 C.3     1  UNL1        0.0190
     11 C           0.2388    2.3750   22.2948 C.3     1  UNL1        0.0213
     12 C          -4.0164    5.2111   23.9458 C.3     1  UNL1        0.0993
     13 C          -5.4125    4.6836   24.0960 C.3     1  UNL1        0.1031
     14 C          -5.9101    5.7289   23.1422 C.3     1  UNL1        0.0307
     15 C          -4.9150    3.6383   25.0498 C.3     1  UNL1        0.0307
     16 O          -6.8087    4.1561   24.2463 O.3     1  UNL1       -0.3854
     17 H          -7.4130    4.6797   23.6972 H       1  UNL1        0.2103
     18 C           6.7369    0.1565   17.2567 C.3     1  UNL1        0.1321
     19 N           5.2679    0.3009   17.5243 N.ar    1  UNL1       -0.3057
     20 C           4.1772   -0.5430   16.9343 C.ar    1  UNL1        0.1787
     21 N           2.8671   -0.0509   17.4743 N.ar    1  UNL1       -0.2192
     22 C           3.1482    1.0971   18.3979 C.ar    1  UNL1        0.1535
     23 C           4.6320    1.3145   18.4288 C.ar    1  UNL1        0.1012
     24 C           1.2557   -0.2958   20.2627 C.3     1  UNL1        0.1205
     25 C           2.3414   -0.8978   21.1046 C.ar    1  UNL1        0.0007
     26 C           2.5316   -0.4426   22.5211 C.ar    1  UNL1       -0.0024
     27 C           3.6173   -1.0447   23.3630 C.ar    1  UNL1        0.0028
     28 C           4.5129   -2.1019   22.7884 C.ar    1  UNL1        0.0372
     29 C           4.3228   -2.5571   21.3718 C.ar    1  UNL1        0.1465
     30 C           3.2371   -1.9551   20.5300 C.ar    1  UNL1        0.0346
     31 O           5.2183   -3.6143   20.7971 O.3     1  UNL1       -0.4045
     32 C           4.8467   -4.2953   19.5133 C.3     1  UNL1        0.5753
     33 F           4.4752   -4.9763   18.2294 F       1  UNL1       -0.1328
     34 F           3.8503   -5.1405   20.2501 F       1  UNL1       -0.1328
     35 F           5.8431   -3.4501   18.7766 F       1  UNL1       -0.1328
@<TRIPOS>BOND
     1    18    19    1
     2    19    20   ar
     3    20    21   ar
     4    21    22   ar
     5    22     1    1
     6     1     2    2
     7     1     3   am
     8     3    24    1
     9    24    25    1
    10    25    26   ar
    11    26    27   ar
    12    27    28   ar
    13    28    29   ar
    14    29    31    1
    15    31    32    1
    16    32    33    1
    17    32    34    1
    18    32    35    1
    19    29    30   ar
    20     4     3    1
    21     4     5    1
    22     6     5    1
    23     6     7    1
    24     7     8    1
    25     8    12    1
    26    12    13    1
    27    13    14    1
    28    13    15    1
    29    13    16    1
    30     8     9    1
    31    10     9    1
    32    10    11    1
    33    22    23   ar
    34    23    19   ar
    35    30    25   ar
    36    11     4    1
    37    10     6    1
    38    16    17    1
@<TRIPOS>MOLECULE
*****
 35 38 0 0 0
SMALL
GASTEIGER

@<TRIPOS>ATOM
      1 C           7.0140   -2.7451   22.0167 C.2     1  UNL1        0.2685
      2 O           8.4803   -2.7592   22.3324 O.2     1  UNL1       -0.2682
      3 N           6.0106   -3.0005   23.1020 N.am    1  UNL1       -0.2723
      4 C           6.4735   -3.2701   24.5031 C.3     1  UNL1        0.0761
      5 C           6.8136   -2.2347   25.5338 C.3     1  UNL1        0.0213
      6 C           7.2278   -2.9471   26.7872 C.3     1  UNL1        0.0190
      7 C           7.6940   -2.7475   28.1988 C.3     1  UNL1        0.0722
      8 N           7.8981   -4.0997   28.8152 N.3     1  UNL1       -0.2707
      9 C           7.5580   -5.1350   27.7844 C.3     1  UNL1        0.0722
     10 C           7.1437   -4.4227   26.5311 C.3     1  UNL1        0.0190
     11 C           6.6775   -4.6223   25.1194 C.3     1  UNL1        0.0213
     12 C           8.3609   -4.3692   30.2163 C.3     1  UNL1        0.0993
     13 C           7.5178   -5.1995   31.1380 C.3     1  UNL1        0.1031
     14 C           8.4743   -6.3443   30.9818 C.3     1  UNL1        0.0307
     15 C           6.5612   -4.0548   31.2944 C.3     1  UNL1        0.0307
     16 O           6.6746   -6.0299   32.0599 O.3     1  UNL1       -0.3854
     17 H           7.0761   -6.9068   32.1633 H       1  UNL1        0.2103
     18 C           5.7710   -0.2535   17.5302 C.3     1  UNL1        0.1321
     19 N           5.9797   -1.3304   18.5534 N.ar    1  UNL1       -0.3057
     20 C           5.6974   -2.7915   18.3656 C.ar    1  UNL1        0.1787
     21 N           6.0505   -3.4994   19.6402 N.ar    1  UNL1       -0.2192
     22 C           6.5510   -2.4756   20.6156 C.ar    1  UNL1        0.1535
     23 C           6.5072   -1.1352   19.9439 C.ar    1  UNL1        0.1012
     24 C           4.5443   -2.9865   22.7862 C.3     1  UNL1        0.1205
     25 C           3.7546   -1.7213   22.9469 C.ar    1  UNL1        0.0007
     26 C           3.5212   -1.1514   24.3146 C.ar    1  UNL1       -0.0024
     27 C           2.7316    0.1137   24.4753 C.ar    1  UNL1        0.0028
     28 C           2.1753    0.8090   23.2683 C.ar    1  UNL1        0.0372
     29 C           2.4086    0.2393   21.9004 C.ar    1  UNL1        0.1465
     30 C           3.1983   -1.0259   21.7398 C.ar    1  UNL1        0.0346
     31 O           1.8523    0.9345   20.6934 O.3     1  UNL1       -0.4045
     32 C           2.1510    0.4085   19.3208 C.3     1  UNL1        0.5753
     33 F           2.4497   -0.1176   17.9481 F       1  UNL1       -0.1328
     34 F           0.9360   -0.4682   19.3924 F       1  UNL1       -0.1328
     35 F           3.3660    1.2852   19.2491 F       1  UNL1       -0.1328
@<TRIPOS>BOND
     1    18    19    1
     2    19    20   ar
     3    20    21   ar
     4    21    22   ar
     5    22     1    1
     6     1     2    2
     7     1     3   am
     8     3    24    1
     9    24    25    1
    10    25    26   ar
    11    26    27   ar
    12    27    28   ar
    13    28    29   ar
    14    29    31    1
    15    31    32    1
    16    32    33    1
    17    32    34    1
    18    32    35    1
    19    29    30   ar
    20     4     3    1
    21     4     5    1
    22     6     5    1
    23     6     7    1
    24     7     8    1
    25     8    12    1
    26    12    13    1
    27    13    14    1
    28    13    15    1
    29    13    16    1
    30     8     9    1
    31    10     9    1
    32    10    11    1
    33    22    23   ar
    34    23    19   ar
    35    30    25   ar
    36    11     4    1
    37    10     6    1
    38    16    17    1
@<TRIPOS>MOLECULE
*****
 35 38 0 0 0
SMALL
GASTEIGER

@<TRIPOS>ATOM
      1 C           8.0772   -2.5871   24.1262 C.2     1  UNL1        0.2685
      2 O           9.1277   -1.9367   24.9767 O.2     1  UNL1       -0.2682
      3 N           6.8707   -3.2063   24.7672 N.am    1  UNL1       -0.2723
      4 C           6.7146   -3.1752   26.2587 C.3     1  UNL1        0.0761
      5 C           7.1624   -4.2410   27.2146 C.3     1  UNL1        0.0213
      6 C           6.8078   -3.7972   28.6028 C.3     1  UNL1        0.0190
      7 C           6.8655   -4.1816   30.0516 C.3     1  UNL1        0.0722
      8 N           6.2342   -3.0791   30.8492 N.3     1  UNL1       -0.2707
      9 C           5.7865   -2.0133   29.8933 C.3     1  UNL1        0.0722
     10 C           6.1410   -2.4571   28.5050 C.3     1  UNL1        0.0190
     11 C           6.0834   -2.0727   27.0563 C.3     1  UNL1        0.0213
     12 C           6.0781   -3.0479   32.3407 C.3     1  UNL1        0.0993
     13 C           6.0747   -1.7356   33.0671 C.3     1  UNL1        0.1031
     14 C           7.5508   -1.6037   32.8358 C.3     1  UNL1        0.0307
     15 C           4.5985   -1.8675   33.2985 C.3     1  UNL1        0.0307
     16 O           6.0712   -0.4232   33.7937 O.3     1  UNL1       -0.3854
     17 H           6.9705   -0.0599   33.8092 H       1  UNL1        0.2103
     18 C           8.0909   -1.1438   19.0471 C.3     1  UNL1        0.1321
     19 N           8.2395   -1.9550   20.3001 N.ar    1  UNL1       -0.3057
     20 C           8.7070   -3.3780   20.3788 C.ar    1  UNL1        0.1787
     21 N           8.7031   -3.7881   21.8217 N.ar    1  UNL1       -0.2192
     22 C           8.2332   -2.6183   22.6347 C.ar    1  UNL1        0.1535
     23 C           7.9467   -1.4855   21.6943 C.ar    1  UNL1        0.1012
     24 C           5.8202   -3.8568   23.9166 C.3     1  UNL1        0.1205
     25 C           4.9228   -3.0150   23.0588 C.ar    1  UNL1        0.0007
     26 C           4.2362   -1.8158   23.6423 C.ar    1  UNL1       -0.0024
     27 C           3.3387   -0.9740   22.7844 C.ar    1  UNL1        0.0028
     28 C           3.1277   -1.3314   21.3430 C.ar    1  UNL1        0.0372
     29 C           3.8143   -2.5306   20.7594 C.ar    1  UNL1        0.1465
     30 C           4.7118   -3.3724   21.6172 C.ar    1  UNL1        0.0346
     31 O           3.6033   -2.8881   19.3180 O.3     1  UNL1       -0.4045
     32 C           4.1622   -4.1692   18.7734 C.3     1  UNL1        0.5753
     33 F           4.7211   -5.4503   18.2289 F       1  UNL1       -0.1328
     34 F           2.9168   -4.8915   19.1945 F       1  UNL1       -0.1328
     35 F           5.4076   -3.4469   18.3523 F       1  UNL1       -0.1328
@<TRIPOS>BOND
     1    18    19    1
     2    19    20   ar
     3    20    21   ar
     4    21    22   ar
     5    22     1    1
     6     1     2    2
     7     1     3   am
     8     3    24    1
     9    24    25    1
    10    25    26   ar
    11    26    27   ar
    12    27    28   ar
    13    28    29   ar
    14    29    31    1
    15    31    32    1
    16    32    33    1
    17    32    34    1
    18    32    35    1
    19    29    30   ar
    20     4     3    1
    21     4     5    1
    22     6     5    1
    23     6     7    1
    24     7     8    1
    25     8    12    1
    26    12    13    1
    27    13    14    1
    28    13    15    1
    29    13    16    1
    30     8     9    1
    31    10     9    1
    32    10    11    1
    33    22    23   ar
    34    23    19   ar
    35    30    25   ar
    36    11     4    1
    37    10     6    1
    38    16    17    1
@<TRIPOS>MOLECULE
*****
 35 38 0 0 0
SMALL
GASTEIGER

@<TRIPOS>ATOM
      1 C           2.9942    3.1791   32.7228 C.2     1  UNL1        0.2685
      2 O           2.5555    2.4616   31.4808 O.2     1  UNL1       -0.2682
      3 N           4.1256    2.6347   33.5436 N.am    1  UNL1       -0.2723
      4 C           4.8184    1.3728   33.1223 C.3     1  UNL1        0.0761
      5 C           4.3109   -0.0233   33.3306 C.3     1  UNL1        0.0213
      6 C           5.3192   -0.9736   32.7558 C.3     1  UNL1        0.0190
      7 C           5.6288   -2.4237   32.5293 C.3     1  UNL1        0.0722
      8 N           6.9506   -2.5111   31.8257 N.3     1  UNL1       -0.2707
      9 C           7.4580   -1.1150   31.6173 C.3     1  UNL1        0.0722
     10 C           6.4498   -0.1647   32.1922 C.3     1  UNL1        0.0190
     11 C           6.1402    1.2854   32.4187 C.3     1  UNL1        0.0213
     12 C           7.6434   -3.7730   31.4044 C.3     1  UNL1        0.0993
     13 C           6.9193   -4.7808   30.5618 C.3     1  UNL1        0.1031
     14 C           7.0035   -5.7766   31.6803 C.3     1  UNL1        0.0307
     15 C           6.8351   -3.7850   29.4431 C.3     1  UNL1        0.0307
     16 O           6.1951   -5.7886   29.7191 O.3     1  UNL1       -0.3854
     17 H           6.0904   -6.6129   30.2194 H       1  UNL1        0.2103
     18 C          -0.3530    6.5327   35.0532 C.3     1  UNL1        0.1321
     19 N           0.7630    5.9826   34.2153 N.ar    1  UNL1       -0.3057
     20 C           1.7080    6.7837   33.3697 C.ar    1  UNL1        0.1787
     21 N           2.6589    5.8309   32.7077 N.ar    1  UNL1       -0.2192
     22 C           2.3014    4.4411   33.1442 C.ar    1  UNL1        0.1535
     23 C           1.1297    4.5348   34.0759 C.ar    1  UNL1        0.1012
     24 C           4.5641    3.3523   34.7856 C.3     1  UNL1        0.1205
     25 C           4.3207    2.7381   36.1322 C.ar    1  UNL1        0.0007
     26 C           5.4424    2.6330   37.1225 C.ar    1  UNL1       -0.0024
     27 C           5.1990    2.0187   38.4691 C.ar    1  UNL1        0.0028
     28 C           3.8339    1.5095   38.8255 C.ar    1  UNL1        0.0372
     29 C           2.7121    1.6145   37.8353 C.ar    1  UNL1        0.1465
     30 C           2.9555    2.2288   36.4886 C.ar    1  UNL1        0.0346
     31 O           1.3469    1.1053   38.1916 O.3     1  UNL1       -0.4045
     32 C           0.9138    1.0615   39.6270 C.3     1  UNL1        0.5753
     33 F           0.4807    1.0178   41.0625 F       1  UNL1       -0.1328
     34 F           1.0909   -0.4280   39.6351 F       1  UNL1       -0.1328
     35 F           0.7367    2.5510   39.6190 F       1  UNL1       -0.1328
@<TRIPOS>BOND
     1    18    19    1
     2    19    20   ar
     3    20    21   ar
     4    21    22   ar
     5    22     1    1
     6     1     2    2
     7     1     3   am
     8     3    24    1
     9    24    25    1
    10    25    26   ar
    11    26    27   ar
    12    27    28   ar
    13    28    29   ar
    14    29    31    1
    15    31    32    1
    16    32    33    1
    17    32    34    1
    18    32    35    1
    19    29    30   ar
    20     4     3    1
    21     4     5    1
    22     6     5    1
    23     6     7    1
    24     7     8    1
    25     8    12    1
    26    12    13    1
    27    13    14    1
    28    13    15    1
    29    13    16    1
    30     8     9    1
    31    10     9    1
    32    10    11    1
    33    22    23   ar
    34    23    19   ar
    35    30    25   ar
    36    11     4    1
    37    10     6    1
    38    16    17    1
@<TRIPOS>MOLECULE
*****
 35 38 0 0 0
SMALL
GASTEIGER

@<TRIPOS>ATOM
      1 C           3.7849    3.0330   20.9832 C.2     1  UNL1        0.2685
      2 O           4.3406    3.6875   22.2131 O.2     1  UNL1       -0.2682
      3 N           2.5248    2.2237   21.0685 N.am    1  UNL1       -0.2723
      4 C           1.8205    2.0688   22.3838 C.3     1  UNL1        0.0761
      5 C           2.2972    1.2524   23.5484 C.3     1  UNL1        0.0213
      6 C           1.2871    1.3822   24.6497 C.3     1  UNL1        0.0190
      7 C           0.9574    0.9578   26.0501 C.3     1  UNL1        0.0722
      8 N          -0.3473    1.5921   26.4318 N.3     1  UNL1       -0.2707
      9 C          -0.8239    2.4085   25.2671 C.3     1  UNL1        0.0722
     10 C           0.1862    2.2787   24.1658 C.3     1  UNL1        0.0190
     11 C           0.5159    2.7031   22.7653 C.3     1  UNL1        0.0213
     12 C          -1.0516    1.4372   27.7469 C.3     1  UNL1        0.0993
     13 C          -0.3293    0.8418   28.9190 C.3     1  UNL1        0.1031
     14 C           0.3991    2.1364   29.1278 C.3     1  UNL1        0.0307
     15 C          -1.0576   -0.4527   28.7103 C.3     1  UNL1        0.0307
     16 O           0.3931    0.2464   30.0912 O.3     1  UNL1       -0.3854
     17 H           0.9929    0.9074   30.4711 H       1  UNL1        0.2103
     18 C           7.3088    2.5276   17.0835 C.3     1  UNL1        0.1321
     19 N           6.1088    2.9556   17.8754 N.ar    1  UNL1       -0.3057
     20 C           5.0367    3.8968   17.4122 C.ar    1  UNL1        0.1787
     21 N           4.0357    4.0404   18.5201 N.ar    1  UNL1       -0.2192
     22 C           4.4891    3.1878   19.6679 C.ar    1  UNL1        0.1535
     23 C           5.7704    2.5174   19.2695 C.ar    1  UNL1        0.1012
     24 C           1.9691    1.5692   19.8385 C.3     1  UNL1        0.1205
     25 C           2.6837    0.4038   19.2212 C.ar    1  UNL1        0.0007
     26 C           3.1766    0.4897   17.8071 C.ar    1  UNL1       -0.0024
     27 C           3.8911   -0.6758   17.1898 C.ar    1  UNL1        0.0028
     28 C           4.1128   -1.9272   17.9864 C.ar    1  UNL1        0.0372
     29 C           3.6200   -2.0132   19.4006 C.ar    1  UNL1        0.1465
     30 C           2.9054   -0.8477   20.0179 C.ar    1  UNL1        0.0346
     31 O           3.8417   -3.2646   20.1974 O.3     1  UNL1       -0.4045
     32 C           4.2401   -4.5340   19.5047 C.3     1  UNL1        0.5753
     33 F           4.6386   -5.8035   18.8120 F       1  UNL1       -0.1328
     34 F           5.6696   -4.2969   19.8925 F       1  UNL1       -0.1328
     35 F           2.8107   -4.7711   19.1169 F       1  UNL1       -0.1328
@<TRIPOS>BOND
     1    18    19    1
     2    19    20   ar
     3    20    21   ar
     4    21    22   ar
     5    22     1    1
     6     1     2    2
     7     1     3   am
     8     3    24    1
     9    24    25    1
    10    25    26   ar
    11    26    27   ar
    12    27    28   ar
    13    28    29   ar
    14    29    31    1
    15    31    32    1
    16    32    33    1
    17    32    34    1
    18    32    35    1
    19    29    30   ar
    20     4     3    1
    21     4     5    1
    22     6     5    1
    23     6     7    1
    24     7     8    1
    25     8    12    1
    26    12    13    1
    27    13    14    1
    28    13    15    1
    29    13    16    1
    30     8     9    1
    31    10     9    1
    32    10    11    1
    33    22    23   ar
    34    23    19   ar
    35    30    25   ar
    36    11     4    1
    37    10     6    1
    38    16    17    1
@<TRIPOS>MOLECULE
*****
 35 38 0 0 0
SMALL
GASTEIGER

@<TRIPOS>ATOM
      1 C           7.0055   -1.4470   24.3036 C.2     1  UNL1        0.2685
      2 O           7.8813   -0.5201   25.0933 O.2     1  UNL1       -0.2682
      3 N           5.5531   -1.5855   24.6521 N.am    1  UNL1       -0.2723
      4 C           4.9765   -0.7969   25.7904 C.3     1  UNL1        0.0761
      5 C           4.7939    0.6914   25.8287 C.3     1  UNL1        0.0213
      6 C           4.1857    1.0499   27.1522 C.3     1  UNL1        0.0190
      7 C           3.6970    2.1913   27.9938 C.3     1  UNL1        0.0722
      8 N           3.2017    1.6299   29.2937 N.3     1  UNL1       -0.2707
      9 C           3.3844    0.1415   29.2554 C.3     1  UNL1        0.0722
     10 C           3.9925   -0.2169   27.9319 C.3     1  UNL1        0.0190
     11 C           4.4812   -1.3583   27.0902 C.3     1  UNL1        0.0213
     12 C           2.6251    2.4184   30.4319 C.3     1  UNL1        0.0993
     13 C           1.2985    2.0322   31.0158 C.3     1  UNL1        0.1031
     14 C           1.9794    1.6104   32.2840 C.3     1  UNL1        0.0307
     15 C           0.6175    2.4540   29.7476 C.3     1  UNL1        0.0307
     16 O          -0.0282    1.6459   31.5997 O.3     1  UNL1       -0.3854
     17 H           0.1010    1.3055   32.4987 H       1  UNL1        0.2103
     18 C           8.8288   -2.7748   19.5293 C.3     1  UNL1        0.1321
     19 N           8.4201   -2.8460   20.9709 N.ar    1  UNL1       -0.3057
     20 C           8.5185   -4.0525   21.8566 C.ar    1  UNL1        0.1787
     21 N           8.0005   -3.6753   23.2129 N.ar    1  UNL1       -0.2192
     22 C           7.5821   -2.2356   23.1653 C.ar    1  UNL1        0.1535
     23 C           7.8414   -1.7231   21.7797 C.ar    1  UNL1        0.1012
     24 C           4.6774   -2.5124   23.8623 C.3     1  UNL1        0.1205
     25 C           3.9597   -2.0105   22.6446 C.ar    1  UNL1        0.0007
     26 C           2.9986   -0.8645   22.7595 C.ar    1  UNL1       -0.0024
     27 C           2.2809   -0.3626   21.5418 C.ar    1  UNL1        0.0028
     28 C           2.5242   -1.0065   20.2091 C.ar    1  UNL1        0.0372
     29 C           3.4852   -2.1524   20.0940 C.ar    1  UNL1        0.1465
     30 C           4.2029   -2.6544   21.3118 C.ar    1  UNL1        0.0346
     31 O           3.7285   -2.7964   18.7614 O.3     1  UNL1       -0.4045
     32 C           4.2319   -4.2077   18.6911 C.3     1  UNL1        0.5753
     33 F           4.7352   -5.6191   18.6208 F       1  UNL1       -0.1328
     34 F           5.6096   -3.7010   18.3828 F       1  UNL1       -0.1328
     35 F           2.8541   -4.7144   18.9994 F       1  UNL1       -0.1328
@<TRIPOS>BOND
     1    18    19    1
     2    19    20   ar
     3    20    21   ar
     4    21    22   ar
     5    22     1    1
     6     1     2    2
     7     1     3   am
     8     3    24    1
     9    24    25    1
    10    25    26   ar
    11    26    27   ar
    12    27    28   ar
    13    28    29   ar
    14    29    31    1
    15    31    32    1
    16    32    33    1
    17    32    34    1
    18    32    35    1
    19    29    30   ar
    20     4     3    1
    21     4     5    1
    22     6     5    1
    23     6     7    1
    24     7     8    1
    25     8    12    1
    26    12    13    1
    27    13    14    1
    28    13    15    1
    29    13    16    1
    30     8     9    1
    31    10     9    1
    32    10    11    1
    33    22    23   ar
    34    23    19   ar
    35    30    25   ar
    36    11     4    1
    37    10     6    1
    38    16    17    1
