@<TRIPOS>MOLECULE
*****
 30 34 0 0 0
SMALL
GASTEIGER

@<TRIPOS>ATOM
      1 C          -8.3218  -19.2543   20.4558 C.ar    1  UNL1        0.2359
      2 N          -8.4540  -18.5772   21.7878 N.ar    1  UNL1       -0.1935
      3 C          -9.7604  -17.8404   21.8056 C.ar    1  UNL1        0.1667
      4 C         -10.4224  -16.9962   22.8539 C.ar    1  UNL1        0.0357
      5 C         -11.7597  -16.3737   22.5814 C.ar    1  UNL1        0.0046
      6 C         -12.4349  -16.5955   21.2605 C.ar    1  UNL1        0.0208
      7 C         -11.7729  -17.4397   20.2120 C.ar    1  UNL1        0.1022
      8 N         -10.4356  -18.0622   20.4846 N.ar    1  UNL1       -0.2081
      9 N          -9.5465  -18.9360   19.6504 N.ar    1  UNL1       -0.1284
     10 C          -9.7471  -16.7744   24.1748 C.ar    1  UNL1       -0.0009
     11 C          -9.0374  -15.4812   24.4466 C.ar    1  UNL1        0.0021
     12 C          -8.3621  -15.2595   25.7676 C.ar    1  UNL1        0.0296
     13 C          -8.3966  -16.3310   26.8167 C.ar    1  UNL1        0.1398
     14 F          -7.7213  -16.1093   28.1376 F       1  UNL1       -0.2042
     15 C          -9.1063  -17.6242   26.5449 C.ar    1  UNL1        0.0254
     16 C          -9.7816  -17.8460   25.2240 C.ar    1  UNL1       -0.0195
     17 C         -10.4913  -19.1392   24.9522 C.3     1  UNL1        0.0311
     18 N          -7.1675  -20.1011   20.0079 N.pl3   1  UNL1       -0.3031
     19 H          -7.3323  -20.9341   19.5096 H       1  UNL1        0.1496
     20 N          -1.6657  -18.3380   21.5332 N.ar    1  UNL1       -0.2552
     21 N          -1.9424  -17.8971   22.9400 N.ar    1  UNL1       -0.1683
     22 C          -3.3994  -18.1207   23.2177 C.ar    1  UNL1        0.1170
     23 C          -4.0232  -18.6998   21.9826 C.ar    1  UNL1        0.0135
     24 C          -2.9517  -18.8341   20.9415 C.ar    1  UNL1        0.0532
     25 C          -3.2855  -19.3907   19.5892 C.3     1  UNL1        0.0469
     26 C          -4.6908  -19.8130   19.2780 C.3     1  UNL1        0.0262
     27 C          -5.7622  -19.6787   20.3191 C.3     1  UNL1        0.0766
     28 C          -5.4285  -19.1221   21.6714 C.3     1  UNL1        0.0487
     29 C          -0.0732  -17.2502   19.7922 C.3     1  UNL1        0.0284
     30 C          -0.3364  -18.2911   20.8398 C.3     1  UNL1        0.1271
@<TRIPOS>BOND
     1    29    30    1
     2    30    20    1
     3    20    21   ar
     4    21    22   ar
     5    22    23   ar
     6    23    24   ar
     7    24    25    1
     8    25    26    1
     9    26    27    1
    10    27    18    1
    11    18     1    1
    12     1     2   ar
    13     2     3   ar
    14     3     4   ar
    15     4    10    1
    16    10    11   ar
    17    11    12   ar
    18    12    13   ar
    19    13    14    1
    20    13    15   ar
    21    15    16   ar
    22    16    17    1
    23     4     5   ar
    24     5     6   ar
    25     6     7   ar
    26     7     8   ar
    27     8     9   ar
    28    27    28    1
    29    24    20   ar
    30     9     1   ar
    31    28    23    1
    32     8     3   ar
    33    16    10   ar
    34    18    19    1
@<TRIPOS>MOLECULE
*****
 30 34 0 0 0
SMALL
GASTEIGER

@<TRIPOS>ATOM
      1 C          -7.6687  -19.6411   21.2841 C.ar    1  UNL1        0.2359
      2 N          -7.7029  -18.7232   22.4700 N.ar    1  UNL1       -0.1935
      3 C          -9.0220  -18.0091   22.4656 C.ar    1  UNL1        0.1667
      4 C          -9.6129  -16.9865   23.3903 C.ar    1  UNL1        0.0357
      5 C         -10.9848  -16.4405   23.1265 C.ar    1  UNL1        0.0046
      6 C         -11.7659  -16.9171   21.9379 C.ar    1  UNL1        0.0208
      7 C         -11.1750  -17.9397   21.0131 C.ar    1  UNL1        0.1022
      8 N          -9.8031  -18.4857   21.2770 N.ar    1  UNL1       -0.2081
      9 N          -8.9667  -19.4943   20.5468 N.ar    1  UNL1       -0.1284
     10 C          -8.8318  -16.5100   24.5789 C.ar    1  UNL1       -0.0009
     11 C          -9.1801  -17.0031   25.9521 C.ar    1  UNL1        0.0021
     12 C          -8.3990  -16.5265   27.1407 C.ar    1  UNL1        0.0296
     13 C          -7.2696  -15.5568   26.9561 C.ar    1  UNL1        0.1398
     14 F          -6.4885  -15.0803   28.1447 F       1  UNL1       -0.2042
     15 C          -6.9212  -15.0637   25.5830 C.ar    1  UNL1        0.0254
     16 C          -7.7023  -15.5402   24.3944 C.ar    1  UNL1       -0.0195
     17 C          -7.3540  -15.0471   23.0213 C.3     1  UNL1        0.0311
     18 N          -6.5355  -20.5467   20.9026 N.pl3   1  UNL1       -0.3031
     19 H          -6.6899  -21.5141   20.8048 H       1  UNL1        0.1496
     20 N          -1.2008  -18.1203   19.7368 N.ar    1  UNL1       -0.2552
     21 N          -1.5825  -17.2674   18.5635 N.ar    1  UNL1       -0.1683
     22 C          -3.0474  -17.4620   18.3061 C.ar    1  UNL1        0.1170
     23 C          -3.5711  -18.4352   19.3204 C.ar    1  UNL1        0.0135
     24 C          -2.4298  -18.8420   20.2046 C.ar    1  UNL1        0.0532
     25 C          -2.6571  -19.8171   21.3215 C.3     1  UNL1        0.0469
     26 C          -4.0256  -20.3853   21.5542 C.3     1  UNL1        0.0262
     27 C          -5.1669  -19.9785   20.6699 C.3     1  UNL1        0.0766
     28 C          -4.9396  -19.0034   19.5530 C.3     1  UNL1        0.0487
     29 C           1.1869  -17.1583   20.0882 C.3     1  UNL1        0.0284
     30 C           0.1693  -18.2319   20.3371 C.3     1  UNL1        0.1271
@<TRIPOS>BOND
     1    29    30    1
     2    30    20    1
     3    20    21   ar
     4    21    22   ar
     5    22    23   ar
     6    23    24   ar
     7    24    25    1
     8    25    26    1
     9    26    27    1
    10    27    18    1
    11    18     1    1
    12     1     2   ar
    13     2     3   ar
    14     3     4   ar
    15     4    10    1
    16    10    11   ar
    17    11    12   ar
    18    12    13   ar
    19    13    14    1
    20    13    15   ar
    21    15    16   ar
    22    16    17    1
    23     4     5   ar
    24     5     6   ar
    25     6     7   ar
    26     7     8   ar
    27     8     9   ar
    28    27    28    1
    29    24    20   ar
    30     9     1   ar
    31    28    23    1
    32     8     3   ar
    33    16    10   ar
    34    18    19    1
@<TRIPOS>MOLECULE
*****
 30 34 0 0 0
SMALL
GASTEIGER

@<TRIPOS>ATOM
      1 C          -6.8036  -19.2072   20.7932 C.ar    1  UNL1        0.2359
      2 N          -6.5346  -18.3409   21.9878 N.ar    1  UNL1       -0.1935
      3 C          -5.0481  -18.2254   22.1514 C.ar    1  UNL1        0.1667
      4 C          -4.2021  -17.4991   23.1548 C.ar    1  UNL1        0.0357
      5 C          -2.7064  -17.5678   23.0647 C.ar    1  UNL1        0.0046
      6 C          -2.0566  -18.3628   21.9712 C.ar    1  UNL1        0.0208
      7 C          -2.9026  -19.0891   20.9678 C.ar    1  UNL1        0.1022
      8 N          -4.3983  -19.0204   21.0579 N.ar    1  UNL1       -0.2081
      9 N          -5.4833  -19.6272   20.2185 N.ar    1  UNL1       -0.1284
     10 C          -4.8519  -16.7041   24.2483 C.ar    1  UNL1       -0.0009
     11 C          -5.9065  -15.6912   23.9140 C.ar    1  UNL1        0.0021
     12 C          -6.5563  -14.8962   25.0076 C.ar    1  UNL1        0.0296
     13 C          -6.1514  -15.1141   26.4353 C.ar    1  UNL1        0.1398
     14 F          -6.8012  -14.3191   27.5288 F       1  UNL1       -0.2042
     15 C          -5.0968  -16.1270   26.7696 C.ar    1  UNL1        0.0254
     16 C          -4.4470  -16.9220   25.6761 C.ar    1  UNL1       -0.0195
     17 C          -3.3924  -17.9349   26.0104 C.3     1  UNL1        0.0311
     18 N          -8.1556  -19.5869   20.2659 N.pl3   1  UNL1       -0.3031
     19 H          -8.2303  -20.1287   19.4473 H       1  UNL1        0.1496
     20 N         -13.0320  -17.5212   23.0332 N.ar    1  UNL1       -0.2552
     21 N         -12.9269  -16.0759   22.6459 N.ar    1  UNL1       -0.1683
     22 C         -11.6998  -15.9111   21.7991 C.ar    1  UNL1        0.1170
     23 C         -11.0466  -17.2546   21.6630 C.ar    1  UNL1        0.0135
     24 C         -11.8700  -18.2497   22.4257 C.ar    1  UNL1        0.0532
     25 C         -11.4552  -19.6905   22.4686 C.3     1  UNL1        0.0469
     26 C         -10.2171  -20.1362   21.7486 C.3     1  UNL1        0.0262
     27 C          -9.3937  -19.1411   20.9859 C.3     1  UNL1        0.0766
     28 C          -9.8085  -17.7003   20.9430 C.3     1  UNL1        0.0487
     29 C         -13.8295  -18.4874   25.3094 C.3     1  UNL1        0.0284
     30 C         -14.1100  -18.1311   23.8795 C.3     1  UNL1        0.1271
@<TRIPOS>BOND
     1    29    30    1
     2    30    20    1
     3    20    21   ar
     4    21    22   ar
     5    22    23   ar
     6    23    24   ar
     7    24    25    1
     8    25    26    1
     9    26    27    1
    10    27    18    1
    11    18     1    1
    12     1     2   ar
    13     2     3   ar
    14     3     4   ar
    15     4    10    1
    16    10    11   ar
    17    11    12   ar
    18    12    13   ar
    19    13    14    1
    20    13    15   ar
    21    15    16   ar
    22    16    17    1
    23     4     5   ar
    24     5     6   ar
    25     6     7   ar
    26     7     8   ar
    27     8     9   ar
    28    27    28    1
    29    24    20   ar
    30     9     1   ar
    31    28    23    1
    32     8     3   ar
    33    16    10   ar
    34    18    19    1
@<TRIPOS>MOLECULE
*****
 30 34 0 0 0
SMALL
GASTEIGER

@<TRIPOS>ATOM
      1 C          -3.4215    3.1423   20.6084 C.ar    1  UNL1        0.2359
      2 N          -2.1055    2.4274   20.6928 N.ar    1  UNL1       -0.1935
      3 C          -1.1231    3.1611   19.8289 C.ar    1  UNL1        0.1667
      4 C           0.3253    2.9163   19.5253 C.ar    1  UNL1        0.0357
      5 C           1.0650    3.8398   18.6034 C.ar    1  UNL1        0.0046
      6 C           0.3562    5.0082   17.9850 C.ar    1  UNL1        0.0208
      7 C          -1.0923    5.2531   18.2885 C.ar    1  UNL1        0.1022
      8 N          -1.8319    4.3295   19.2104 N.ar    1  UNL1       -0.2081
      9 N          -3.2524    4.3179   19.6922 N.ar    1  UNL1       -0.1284
     10 C           1.0341    1.7479   20.1438 C.ar    1  UNL1       -0.0009
     11 C           0.9890    0.4049   19.4772 C.ar    1  UNL1        0.0021
     12 C           1.6978   -0.7636   20.0957 C.ar    1  UNL1        0.0296
     13 C           2.4516   -0.5889   21.3807 C.ar    1  UNL1        0.1398
     14 F           3.1604   -1.7573   21.9991 F       1  UNL1       -0.2042
     15 C           2.4967    0.7541   22.0472 C.ar    1  UNL1        0.0254
     16 C           1.7879    1.9225   21.4288 C.ar    1  UNL1       -0.0195
     17 C           1.8330    3.2655   22.0954 C.3     1  UNL1        0.0311
     18 N          -4.6848    2.7505   21.3159 N.pl3   1  UNL1       -0.3031
     19 H          -5.2585    2.0426   20.9430 H       1  UNL1        0.1496
     20 N          -5.9857    5.3573   26.5328 N.ar    1  UNL1       -0.2552
     21 N          -4.8428    4.8309   27.3494 N.ar    1  UNL1       -0.1683
     22 C          -4.0032    3.9589   26.4636 C.ar    1  UNL1        0.1170
     23 C          -4.6272    3.9464   25.0996 C.ar    1  UNL1        0.0135
     24 C          -5.8524    4.8107   25.1424 C.ar    1  UNL1        0.0532
     25 C          -6.6884    4.9883   23.9097 C.3     1  UNL1        0.0469
     26 C          -6.2992    4.3015   22.6342 C.3     1  UNL1        0.0262
     27 C          -5.0740    3.4373   22.5914 C.3     1  UNL1        0.0766
     28 C          -4.2380    3.2597   23.8241 C.3     1  UNL1        0.0487
     29 C          -7.4682    6.2569   28.4676 C.3     1  UNL1        0.0284
     30 C          -7.0712    6.2702   27.0210 C.3     1  UNL1        0.1271
@<TRIPOS>BOND
     1    29    30    1
     2    30    20    1
     3    20    21   ar
     4    21    22   ar
     5    22    23   ar
     6    23    24   ar
     7    24    25    1
     8    25    26    1
     9    26    27    1
    10    27    18    1
    11    18     1    1
    12     1     2   ar
    13     2     3   ar
    14     3     4   ar
    15     4    10    1
    16    10    11   ar
    17    11    12   ar
    18    12    13   ar
    19    13    14    1
    20    13    15   ar
    21    15    16   ar
    22    16    17    1
    23     4     5   ar
    24     5     6   ar
    25     6     7   ar
    26     7     8   ar
    27     8     9   ar
    28    27    28    1
    29    24    20   ar
    30     9     1   ar
    31    28    23    1
    32     8     3   ar
    33    16    10   ar
    34    18    19    1
@<TRIPOS>MOLECULE
*****
 30 34 0 0 0
SMALL
GASTEIGER

@<TRIPOS>ATOM
      1 C          -6.4646  -19.2798   20.7903 C.ar    1  UNL1        0.2359
      2 N          -6.1649  -18.4509   22.0040 N.ar    1  UNL1       -0.1935
      3 C          -4.6773  -18.2804   22.0930 C.ar    1  UNL1        0.1667
      4 C          -3.8068  -17.5598   23.0794 C.ar    1  UNL1        0.0357
      5 C          -2.3168  -17.5627   22.9072 C.ar    1  UNL1        0.0046
      6 C          -1.6971  -18.2862   21.7485 C.ar    1  UNL1        0.0208
      7 C          -2.5676  -19.0068   20.7620 C.ar    1  UNL1        0.1022
      8 N          -4.0576  -19.0039   20.9343 N.ar    1  UNL1       -0.2081
      9 N          -5.1623  -19.6216   20.1291 N.ar    1  UNL1       -0.1284
     10 C          -4.4265  -16.8363   24.2381 C.ar    1  UNL1       -0.0009
     11 C          -4.3383  -17.4166   25.6185 C.ar    1  UNL1        0.0021
     12 C          -4.9580  -16.6930   26.7772 C.ar    1  UNL1        0.0296
     13 C          -5.6658  -15.3893   26.5555 C.ar    1  UNL1        0.1398
     14 F          -6.2855  -14.6658   27.7142 F       1  UNL1       -0.2042
     15 C          -5.7540  -14.8091   25.1751 C.ar    1  UNL1        0.0254
     16 C          -5.1344  -15.5325   24.0164 C.ar    1  UNL1       -0.0195
     17 C          -5.2226  -14.9523   22.6360 C.3     1  UNL1        0.0311
     18 N          -7.8274  -19.6942   20.3202 N.pl3   1  UNL1       -0.3031
     19 H          -7.9261  -20.2001   19.4814 H       1  UNL1        0.1496
     20 N         -12.7424  -18.0795   23.3102 N.ar    1  UNL1       -0.2552
     21 N         -13.3062  -17.1004   22.3235 N.ar    1  UNL1       -0.1683
     22 C         -12.3771  -17.0409   21.1473 C.ar    1  UNL1        0.1170
     23 C         -11.2393  -17.9831   21.4072 C.ar    1  UNL1        0.0135
     24 C         -11.4650  -18.6250   22.7440 C.ar    1  UNL1        0.0532
     25 C         -10.4783  -19.6232   23.2728 C.3     1  UNL1        0.0469
     26 C          -9.2658  -19.9796   22.4649 C.3     1  UNL1        0.0262
     27 C          -9.0400  -19.3377   21.1281 C.3     1  UNL1        0.0766
     28 C         -10.0268  -18.3395   20.5992 C.3     1  UNL1        0.0487
     29 C         -14.8397  -18.4327   24.8026 C.3     1  UNL1        0.0284
     30 C         -13.3495  -18.4483   24.6314 C.3     1  UNL1        0.1271
@<TRIPOS>BOND
     1    29    30    1
     2    30    20    1
     3    20    21   ar
     4    21    22   ar
     5    22    23   ar
     6    23    24   ar
     7    24    25    1
     8    25    26    1
     9    26    27    1
    10    27    18    1
    11    18     1    1
    12     1     2   ar
    13     2     3   ar
    14     3     4   ar
    15     4    10    1
    16    10    11   ar
    17    11    12   ar
    18    12    13   ar
    19    13    14    1
    20    13    15   ar
    21    15    16   ar
    22    16    17    1
    23     4     5   ar
    24     5     6   ar
    25     6     7   ar
    26     7     8   ar
    27     8     9   ar
    28    27    28    1
    29    24    20   ar
    30     9     1   ar
    31    28    23    1
    32     8     3   ar
    33    16    10   ar
    34    18    19    1
@<TRIPOS>MOLECULE
*****
 30 34 0 0 0
SMALL
GASTEIGER

@<TRIPOS>ATOM
      1 C          -0.0048    3.3343   19.0710 C.ar    1  UNL1        0.2359
      2 N          -1.1815    3.5750   19.9696 N.ar    1  UNL1       -0.1935
      3 C          -2.3820    3.8225   19.1050 C.ar    1  UNL1        0.1667
      4 C          -3.8148    4.1165   19.4373 C.ar    1  UNL1        0.0357
      5 C          -4.8129    4.3228   18.3368 C.ar    1  UNL1        0.0046
      6 C          -4.3782    4.2351   16.9039 C.ar    1  UNL1        0.0208
      7 C          -2.9453    3.9411   16.5715 C.ar    1  UNL1        0.1022
      8 N          -1.9472    3.7348   17.6720 N.ar    1  UNL1       -0.2081
      9 N          -0.4780    3.4331   17.6511 N.ar    1  UNL1       -0.1284
     10 C          -4.2496    4.2042   20.8702 C.ar    1  UNL1       -0.0009
     11 C          -4.6507    2.9622   21.6097 C.ar    1  UNL1        0.0021
     12 C          -5.0854    3.0500   23.0426 C.ar    1  UNL1        0.0296
     13 C          -5.1191    4.3796   23.7361 C.ar    1  UNL1        0.1398
     14 F          -5.5538    4.4672   25.1690 F       1  UNL1       -0.2042
     15 C          -4.7180    5.6215   22.9967 C.ar    1  UNL1        0.0254
     16 C          -4.2832    5.5338   21.5638 C.ar    1  UNL1       -0.0195
     17 C          -3.8821    6.7757   20.8244 C.3     1  UNL1        0.0311
     18 N           1.3987    3.0454   19.5145 N.pl3   1  UNL1       -0.3031
     19 H           1.9449    3.7594   19.9160 H       1  UNL1        0.1496
     20 N           3.8658   -2.3238   18.6256 N.ar    1  UNL1       -0.2552
     21 N           4.8524   -1.9546   17.5578 N.ar    1  UNL1       -0.1683
     22 C           4.7094   -0.4872   17.2820 C.ar    1  UNL1        0.1170
     23 C           3.6344    0.0506   18.1793 C.ar    1  UNL1        0.0135
     24 C           3.1130   -1.0845   19.0098 C.ar    1  UNL1        0.0532
     25 C           2.0202   -0.8430   20.0085 C.3     1  UNL1        0.0469
     26 C           1.4488    0.5336   20.1767 C.3     1  UNL1        0.0262
     27 C           1.9702    1.6688   19.3462 C.3     1  UNL1        0.0766
     28 C           3.0630    1.4273   18.3476 C.3     1  UNL1        0.0487
     29 C           4.5659   -4.8200   18.7956 C.3     1  UNL1        0.0284
     30 C           3.6668   -3.6920   19.2073 C.3     1  UNL1        0.1271
@<TRIPOS>BOND
     1    29    30    1
     2    30    20    1
     3    20    21   ar
     4    21    22   ar
     5    22    23   ar
     6    23    24   ar
     7    24    25    1
     8    25    26    1
     9    26    27    1
    10    27    18    1
    11    18     1    1
    12     1     2   ar
    13     2     3   ar
    14     3     4   ar
    15     4    10    1
    16    10    11   ar
    17    11    12   ar
    18    12    13   ar
    19    13    14    1
    20    13    15   ar
    21    15    16   ar
    22    16    17    1
    23     4     5   ar
    24     5     6   ar
    25     6     7   ar
    26     7     8   ar
    27     8     9   ar
    28    27    28    1
    29    24    20   ar
    30     9     1   ar
    31    28    23    1
    32     8     3   ar
    33    16    10   ar
    34    18    19    1
@<TRIPOS>MOLECULE
*****
 30 34 0 0 0
SMALL
GASTEIGER

@<TRIPOS>ATOM
      1 C           4.7945   -1.3188   23.8236 C.ar    1  UNL1        0.2359
      2 N           3.9872   -0.7937   22.6736 N.ar    1  UNL1       -0.1935
      3 C           3.9056   -1.8718   21.6339 C.ar    1  UNL1        0.1667
      4 C           3.2400   -1.9226   20.2907 C.ar    1  UNL1        0.0357
      5 C           3.3311   -3.1649   19.4549 C.ar    1  UNL1        0.0046
      6 C           4.0880   -4.3564   19.9624 C.ar    1  UNL1        0.0208
      7 C           4.7537   -4.3056   21.3057 C.ar    1  UNL1        0.1022
      8 N           4.6625   -3.0634   22.1414 N.ar    1  UNL1       -0.2081
      9 N           5.2118   -2.7215   23.4947 N.ar    1  UNL1       -0.1284
     10 C           2.4831   -0.7312   19.7832 C.ar    1  UNL1       -0.0009
     11 C           1.0732   -0.4901   20.2350 C.ar    1  UNL1        0.0021
     12 C           0.3164    0.7014   19.7275 C.ar    1  UNL1        0.0296
     13 C           0.9695    1.6518   18.7682 C.ar    1  UNL1        0.1398
     14 F           0.2126    2.8433   18.2608 F       1  UNL1       -0.2042
     15 C           2.3794    1.4108   18.3165 C.ar    1  UNL1        0.0254
     16 C           3.1362    0.2193   18.8240 C.ar    1  UNL1       -0.0195
     17 C           4.5461   -0.0217   18.3722 C.3     1  UNL1        0.0311
     18 N           5.1261   -0.5723   25.0816 N.pl3   1  UNL1       -0.3031
     19 H           6.0461   -0.2598   25.2405 H       1  UNL1        0.1496
     20 N           1.0429    0.3647   29.3424 N.ar    1  UNL1       -0.2552
     21 N           1.7599   -0.2688   30.4977 N.ar    1  UNL1       -0.1683
     22 C           3.0763   -0.7864   29.9986 C.ar    1  UNL1        0.1170
     23 C           3.1730   -0.4728   28.5349 C.ar    1  UNL1        0.0135
     24 C           1.9162    0.2387   28.1294 C.ar    1  UNL1        0.0532
     25 C           1.7295    0.6798   26.7080 C.3     1  UNL1        0.0469
     26 C           2.7994    0.4094   25.6921 C.3     1  UNL1        0.0262
     27 C           4.0561   -0.3020   26.0976 C.3     1  UNL1        0.0766
     28 C           4.2429   -0.7431   27.5190 C.3     1  UNL1        0.0487
     29 C          -1.5362    0.2091   29.0696 C.3     1  UNL1        0.0284
     30 C          -0.3099    1.0109   29.3916 C.3     1  UNL1        0.1271
@<TRIPOS>BOND
     1    29    30    1
     2    30    20    1
     3    20    21   ar
     4    21    22   ar
     5    22    23   ar
     6    23    24   ar
     7    24    25    1
     8    25    26    1
     9    26    27    1
    10    27    18    1
    11    18     1    1
    12     1     2   ar
    13     2     3   ar
    14     3     4   ar
    15     4    10    1
    16    10    11   ar
    17    11    12   ar
    18    12    13   ar
    19    13    14    1
    20    13    15   ar
    21    15    16   ar
    22    16    17    1
    23     4     5   ar
    24     5     6   ar
    25     6     7   ar
    26     7     8   ar
    27     8     9   ar
    28    27    28    1
    29    24    20   ar
    30     9     1   ar
    31    28    23    1
    32     8     3   ar
    33    16    10   ar
    34    18    19    1
@<TRIPOS>MOLECULE
*****
 30 34 0 0 0
SMALL
GASTEIGER

@<TRIPOS>ATOM
      1 C           0.0137    3.0762   20.6847 C.ar    1  UNL1        0.2359
      2 N          -0.2126    3.2735   22.1544 N.ar    1  UNL1       -0.1935
      3 C          -1.6920    3.3533   22.3890 C.ar    1  UNL1        0.1667
      4 C          -2.5015    3.5415   23.6377 C.ar    1  UNL1        0.0357
      5 C          -3.9990    3.5818   23.5617 C.ar    1  UNL1        0.0046
      6 C          -4.6870    3.4339   22.2370 C.ar    1  UNL1        0.0208
      7 C          -3.8775    3.2457   20.9883 C.ar    1  UNL1        0.1022
      8 N          -2.3800    3.2054   21.0643 N.ar    1  UNL1       -0.2081
      9 N          -1.3258    3.0342   20.0110 N.ar    1  UNL1       -0.1284
     10 C          -1.8135    3.6894   24.9623 C.ar    1  UNL1       -0.0009
     11 C          -1.3377    2.4732   25.7003 C.ar    1  UNL1        0.0021
     12 C          -0.6497    2.6211   27.0250 C.ar    1  UNL1        0.0296
     13 C          -0.4374    3.9852   27.6116 C.ar    1  UNL1        0.1398
     14 F           0.2506    4.1331   28.9363 F       1  UNL1       -0.2042
     15 C          -0.9131    5.2014   26.8737 C.ar    1  UNL1        0.0254
     16 C          -1.6012    5.0535   25.5490 C.ar    1  UNL1       -0.0195
     17 C          -2.0769    6.2697   24.8111 C.3     1  UNL1        0.0311
     18 N           1.3457    2.9443   20.0076 N.pl3   1  UNL1       -0.3031
     19 H           1.8382    3.7499   19.7290 H       1  UNL1        0.1496
     20 N           3.7970   -2.3567   18.7444 N.ar    1  UNL1       -0.2552
     21 N           4.5177   -1.9869   17.4820 N.ar    1  UNL1       -0.1683
     22 C           4.2564   -0.5356   17.2072 C.ar    1  UNL1        0.1170
     23 C           3.3741   -0.0085   18.2999 C.ar    1  UNL1        0.0135
     24 C           3.0902   -1.1340   19.2499 C.ar    1  UNL1        0.0532
     25 C           2.2248   -0.9001   20.4525 C.3     1  UNL1        0.0469
     26 C           1.6433    0.4593   20.7051 C.3     1  UNL1        0.0262
     27 C           1.9272    1.5848   19.7550 C.3     1  UNL1        0.0766
     28 C           2.7926    1.3509   18.5524 C.3     1  UNL1        0.0487
     29 C           4.5142   -4.8539   18.7454 C.3     1  UNL1        0.0284
     30 C           3.7852   -3.7114   19.3884 C.3     1  UNL1        0.1271
@<TRIPOS>BOND
     1    29    30    1
     2    30    20    1
     3    20    21   ar
     4    21    22   ar
     5    22    23   ar
     6    23    24   ar
     7    24    25    1
     8    25    26    1
     9    26    27    1
    10    27    18    1
    11    18     1    1
    12     1     2   ar
    13     2     3   ar
    14     3     4   ar
    15     4    10    1
    16    10    11   ar
    17    11    12   ar
    18    12    13   ar
    19    13    14    1
    20    13    15   ar
    21    15    16   ar
    22    16    17    1
    23     4     5   ar
    24     5     6   ar
    25     6     7   ar
    26     7     8   ar
    27     8     9   ar
    28    27    28    1
    29    24    20   ar
    30     9     1   ar
    31    28    23    1
    32     8     3   ar
    33    16    10   ar
    34    18    19    1
@<TRIPOS>MOLECULE
*****
 30 34 0 0 0
SMALL
GASTEIGER

@<TRIPOS>ATOM
      1 C           0.3632    0.8254   19.8127 C.ar    1  UNL1        0.2359
      2 N          -0.5853    1.5128   20.7496 N.ar    1  UNL1       -0.1935
      3 C          -0.8809    2.8742   20.1935 C.ar    1  UNL1        0.1667
      4 C          -1.7485    3.9936   20.6877 C.ar    1  UNL1        0.0357
      5 C          -1.8503    5.2669   19.9014 C.ar    1  UNL1        0.0046
      6 C          -1.0845    5.4208   18.6208 C.ar    1  UNL1        0.0208
      7 C          -0.2169    4.3014   18.1265 C.ar    1  UNL1        0.1022
      8 N          -0.1151    3.0281   18.9129 N.ar    1  UNL1       -0.2081
      9 N           0.6538    1.7618   18.6776 N.ar    1  UNL1       -0.1284
     10 C          -2.5142    3.8397   21.9683 C.ar    1  UNL1       -0.0009
     11 C          -1.8379    4.0970   23.2822 C.ar    1  UNL1        0.0021
     12 C          -2.6037    3.9431   24.5628 C.ar    1  UNL1        0.0296
     13 C          -4.0458    3.5318   24.5294 C.ar    1  UNL1        0.1398
     14 F          -4.8116    3.3779   25.8100 F       1  UNL1       -0.2042
     15 C          -4.7222    3.2745   23.2155 C.ar    1  UNL1        0.0254
     16 C          -3.9564    3.4284   21.9350 C.ar    1  UNL1       -0.0195
     17 C          -4.6328    3.1711   20.6211 C.3     1  UNL1        0.0311
     18 N           0.9228   -0.5560   19.9813 N.pl3   1  UNL1       -0.3031
     19 H           0.3476   -1.2832   20.3123 H       1  UNL1        0.1496
     20 N           6.6101   -1.4671   18.3906 N.ar    1  UNL1       -0.2552
     21 N           6.6361   -0.6485   17.1340 N.ar    1  UNL1       -0.1683
     22 C           5.2734   -0.0521   16.9411 C.ar    1  UNL1        0.1170
     23 C           4.4051   -0.5021   18.0785 C.ar    1  UNL1        0.0135
     24 C           5.2313   -1.3767   18.9743 C.ar    1  UNL1        0.0532
     25 C           4.6213   -1.9777   20.2058 C.3     1  UNL1        0.0469
     26 C           3.1852   -1.7042   20.5415 C.3     1  UNL1        0.0262
     27 C           2.3590   -0.8296   19.6456 C.3     1  UNL1        0.0766
     28 C           2.9690   -0.2286   18.4141 C.3     1  UNL1        0.0487
     29 C           8.3724   -1.8202   20.2667 C.3     1  UNL1        0.0284
     30 C           7.7608   -2.2405   18.9631 C.3     1  UNL1        0.1271
@<TRIPOS>BOND
     1    29    30    1
     2    30    20    1
     3    20    21   ar
     4    21    22   ar
     5    22    23   ar
     6    23    24   ar
     7    24    25    1
     8    25    26    1
     9    26    27    1
    10    27    18    1
    11    18     1    1
    12     1     2   ar
    13     2     3   ar
    14     3     4   ar
    15     4    10    1
    16    10    11   ar
    17    11    12   ar
    18    12    13   ar
    19    13    14    1
    20    13    15   ar
    21    15    16   ar
    22    16    17    1
    23     4     5   ar
    24     5     6   ar
    25     6     7   ar
    26     7     8   ar
    27     8     9   ar
    28    27    28    1
    29    24    20   ar
    30     9     1   ar
    31    28    23    1
    32     8     3   ar
    33    16    10   ar
    34    18    19    1
