@<TRIPOS>MOLECULE
*****
 33 37 0 0 0
SMALL
GASTEIGER

@<TRIPOS>ATOM
      1 N         -10.4255  -19.1432   20.6876 N.3     1  UNL1       -0.2726
      2 C         -11.1669  -19.7610   21.8359 C.3     1  UNL1        0.0721
      3 C         -10.1560  -20.2671   22.8218 C.3     1  UNL1        0.0190
      4 C          -8.7898  -19.9622   22.2828 C.3     1  UNL1        0.0201
      5 C          -8.0314  -20.5581   23.4315 C.3     1  UNL1        0.0061
      6 C          -7.2900  -19.9404   22.2832 C.3     1  UNL1        0.0237
      7 C          -8.9564  -19.2676   20.9638 C.3     1  UNL1        0.0724
      8 C          -5.9960  -19.5711   21.6205 C.ar    1  UNL1       -0.0225
      9 C          -5.9716  -19.2317   20.1596 C.ar    1  UNL1       -0.0043
     10 C          -4.6777  -18.8625   19.4968 C.ar    1  UNL1        0.0035
     11 C          -3.4080  -18.8326   20.2950 C.ar    1  UNL1        0.0714
     12 C          -3.4324  -19.1720   21.7559 C.ar    1  UNL1        0.0035
     13 C          -4.7264  -19.5412   22.4187 C.ar    1  UNL1       -0.0043
     14 C          -2.1140  -18.4634   19.6323 C.3     1  UNL1        0.4186
     15 F          -0.8200  -18.0941   18.9695 F       1  UNL1       -0.1659
     16 F          -1.3806  -19.4074   20.5383 F       1  UNL1       -0.1659
     17 F          -2.8475  -17.5193   18.7263 F       1  UNL1       -0.1659
     18 C         -11.0444  -18.5120   19.4758 C.3     1  UNL1        0.0730
     19 C         -11.4524  -17.0689   19.5076 C.3     1  UNL1        0.0294
     20 C         -12.3299  -16.5616   20.6134 C.3     1  UNL1        0.0666
     21 S         -11.7244  -16.1504   21.9226 S.3     1  UNL1       -0.0756
     22 C          -7.9637  -15.7413   22.7917 C.ar    1  UNL1        0.2029
     23 N          -8.0410  -15.0071   21.4859 N.ar    1  UNL1       -0.1250
     24 N          -9.4592  -15.0710   21.0014 N.ar    1  UNL1       -0.1220
     25 C         -10.2584  -15.8447   22.0078 C.ar    1  UNL1        0.1933
     26 N          -9.3341  -16.2589   23.1142 N.ar    1  UNL1       -0.2860
     27 C          -9.7137  -17.0516   24.3298 C.3     1  UNL1        0.1341
     28 C          -7.7098  -15.1433   25.9897 C.3     1  UNL1        0.0556
     29 C          -6.6155  -15.6506   25.0980 C.ar    1  UNL1        0.1001
     30 N          -5.2123  -15.9721   25.5196 N.ar    1  UNL1       -0.2085
     31 C          -4.4618  -16.4456   24.3103 C.ar    1  UNL1        0.2849
     32 O          -5.4012  -16.4168   23.1412 O.2     1  UNL1       -0.4283
     33 C          -6.7322  -15.9254   23.6280 C.ar    1  UNL1        0.1964
@<TRIPOS>BOND
     1    28    29    1
     2    29    30   ar
     3    30    31   ar
     4    31    32   ar
     5    32    33   ar
     6    33    22    1
     7    22    23   ar
     8    23    24   ar
     9    24    25   ar
    10    25    21    1
    11    21    20    1
    12    20    19    1
    13    19    18    1
    14    18     1    1
    15     1     2    1
    16     2     3    1
    17     4     3    1
    18     4     5    1
    19     5     6    1
    20     6     8    1
    21     8     9   ar
    22     9    10   ar
    23    10    11   ar
    24    11    14    1
    25    14    15    1
    26    14    16    1
    27    14    17    1
    28    11    12   ar
    29    12    13   ar
    30     4     7    1
    31    25    26   ar
    32    26    27    1
    33    33    29   ar
    34    26    22   ar
    35     7     1    1
    36     6     4    1
    37    13     8   ar
@<TRIPOS>MOLECULE
*****
 33 37 0 0 0
SMALL
GASTEIGER

@<TRIPOS>ATOM
      1 N         -10.0760  -18.8252   20.0321 N.3     1  UNL1       -0.2726
      2 C         -11.5598  -18.7706   19.8191 C.3     1  UNL1        0.0721
      3 C         -12.1473  -17.8829   20.8758 C.3     1  UNL1        0.0190
      4 C         -11.0267  -17.3889   21.7419 C.3     1  UNL1        0.0201
      5 C         -11.8861  -16.5687   22.6577 C.3     1  UNL1        0.0061
      6 C         -10.4023  -16.6232   22.8706 C.3     1  UNL1        0.0237
      7 C          -9.7465  -17.9713   21.2204 C.3     1  UNL1        0.0724
      8 C          -9.1852  -16.2127   23.6452 C.ar    1  UNL1       -0.0225
      9 C          -8.0567  -15.5089   22.9515 C.ar    1  UNL1       -0.0043
     10 C          -6.8396  -15.0984   23.7260 C.ar    1  UNL1        0.0035
     11 C          -6.7509  -15.3917   25.1944 C.ar    1  UNL1        0.0714
     12 C          -7.8793  -16.0955   25.8882 C.ar    1  UNL1        0.0035
     13 C          -9.0964  -16.5061   25.1136 C.ar    1  UNL1       -0.0043
     14 C          -5.5337  -14.9812   25.9690 C.3     1  UNL1        0.4186
     15 F          -4.3165  -14.5706   26.7436 F       1  UNL1       -0.1659
     16 F          -6.3897  -14.7105   27.1706 F       1  UNL1       -0.1659
     17 F          -4.6777  -15.2519   24.7674 F       1  UNL1       -0.1659
     18 C          -9.0940  -19.5981   19.2023 C.3     1  UNL1        0.0730
     19 C          -7.6549  -19.6725   19.6189 C.3     1  UNL1        0.0294
     20 C          -7.2381  -20.6114   20.7120 C.3     1  UNL1        0.0666
     21 S          -6.6130  -20.0734   21.9649 S.3     1  UNL1       -0.0756
     22 C          -3.2138  -18.3537   21.2205 C.ar    1  UNL1        0.2029
     23 N          -3.7647  -17.4568   22.2893 N.ar    1  UNL1       -0.1250
     24 N          -5.1050  -17.9918   22.6982 N.ar    1  UNL1       -0.1220
     25 C          -5.3826  -19.2194   21.8822 C.ar    1  UNL1        0.1933
     26 N          -4.2139  -19.4431   20.9689 N.ar    1  UNL1       -0.2860
     27 C          -4.0703  -20.5601   19.9781 C.3     1  UNL1        0.1341
     28 C          -2.7726  -17.2744   18.1726 C.3     1  UNL1        0.0556
     29 C          -1.6919  -17.6938   19.1245 C.ar    1  UNL1        0.1001
     30 N          -0.2187  -17.6909   18.8426 N.ar    1  UNL1       -0.2085
     31 C           0.4891  -18.1851   20.0693 C.ar    1  UNL1        0.2849
     32 O          -0.5468  -18.4936   21.1094 O.2     1  UNL1       -0.4283
     33 C          -1.8947  -18.1899   20.5255 C.ar    1  UNL1        0.1964
@<TRIPOS>BOND
     1    28    29    1
     2    29    30   ar
     3    30    31   ar
     4    31    32   ar
     5    32    33   ar
     6    33    22    1
     7    22    23   ar
     8    23    24   ar
     9    24    25   ar
    10    25    21    1
    11    21    20    1
    12    20    19    1
    13    19    18    1
    14    18     1    1
    15     1     2    1
    16     2     3    1
    17     4     3    1
    18     4     5    1
    19     5     6    1
    20     6     8    1
    21     8     9   ar
    22     9    10   ar
    23    10    11   ar
    24    11    14    1
    25    14    15    1
    26    14    16    1
    27    14    17    1
    28    11    12   ar
    29    12    13   ar
    30     4     7    1
    31    25    26   ar
    32    26    27    1
    33    33    29   ar
    34    26    22   ar
    35     7     1    1
    36     6     4    1
    37    13     8   ar
@<TRIPOS>MOLECULE
*****
 33 37 0 0 0
SMALL
GASTEIGER

@<TRIPOS>ATOM
      1 N          -4.5588  -16.6132   24.0962 N.3     1  UNL1       -0.2726
      2 C          -4.2893  -16.3141   25.5411 C.3     1  UNL1        0.0721
      3 C          -5.5755  -15.8661   26.1695 C.3     1  UNL1        0.0190
      4 C          -6.6400  -15.8882   25.1129 C.3     1  UNL1        0.0201
      5 C          -7.7523  -15.4149   26.0010 C.3     1  UNL1        0.0061
      6 C          -8.0219  -15.7139   24.5561 C.3     1  UNL1        0.0237
      7 C          -6.0117  -16.3500   23.8315 C.3     1  UNL1        0.0724
      8 C          -8.9753  -15.7860   23.4003 C.ar    1  UNL1       -0.0225
      9 C          -8.5504  -15.3005   22.0461 C.ar    1  UNL1       -0.0043
     10 C          -9.5039  -15.3725   20.8904 C.ar    1  UNL1        0.0035
     11 C         -10.8822  -15.9300   21.0889 C.ar    1  UNL1        0.0714
     12 C         -11.3071  -16.4155   22.4431 C.ar    1  UNL1        0.0035
     13 C         -10.3536  -16.3435   23.5988 C.ar    1  UNL1       -0.0043
     14 C         -11.8356  -16.0021   19.9331 C.3     1  UNL1        0.4186
     15 F         -12.7891  -16.0741   18.7773 F       1  UNL1       -0.1659
     16 F         -12.7614  -16.8539   20.7500 F       1  UNL1       -0.1659
     17 F         -10.9098  -15.1503   19.1163 F       1  UNL1       -0.1659
     18 C          -3.5523  -17.0915   23.0921 C.3     1  UNL1        0.0730
     19 C          -3.2205  -18.5514   22.9998 C.3     1  UNL1        0.0294
     20 C          -2.8069  -19.1449   21.6857 C.3     1  UNL1        0.0666
     21 S          -3.8126  -19.8675   20.8394 S.3     1  UNL1       -0.0756
     22 C          -7.6147  -19.2934   21.3686 C.ar    1  UNL1        0.2029
     23 N          -7.3019  -18.2405   20.3470 N.ar    1  UNL1       -0.1250
     24 N          -5.8396  -18.3274   20.0244 N.ar    1  UNL1       -0.1220
     25 C          -5.2486  -19.4340   20.8467 C.ar    1  UNL1        0.1933
     26 N          -6.3456  -20.0310   21.6774 N.ar    1  UNL1       -0.2860
     27 C          -6.1993  -21.1663   22.6468 C.3     1  UNL1        0.1341
     28 C         -10.4493  -19.4409   19.7583 C.3     1  UNL1        0.0556
     29 C         -10.2632  -19.6293   21.2348 C.ar    1  UNL1        0.1001
     30 N         -11.3472  -19.9186   22.2303 N.ar    1  UNL1       -0.2085
     31 C         -10.7144  -20.0296   23.5857 C.ar    1  UNL1        0.2849
     32 O          -9.2391  -19.8089   23.4279 O.2     1  UNL1       -0.4283
     33 C          -8.9603  -19.5615   21.9749 C.ar    1  UNL1        0.1964
@<TRIPOS>BOND
     1    28    29    1
     2    29    30   ar
     3    30    31   ar
     4    31    32   ar
     5    32    33   ar
     6    33    22    1
     7    22    23   ar
     8    23    24   ar
     9    24    25   ar
    10    25    21    1
    11    21    20    1
    12    20    19    1
    13    19    18    1
    14    18     1    1
    15     1     2    1
    16     2     3    1
    17     4     3    1
    18     4     5    1
    19     5     6    1
    20     6     8    1
    21     8     9   ar
    22     9    10   ar
    23    10    11   ar
    24    11    14    1
    25    14    15    1
    26    14    16    1
    27    14    17    1
    28    11    12   ar
    29    12    13   ar
    30     4     7    1
    31    25    26   ar
    32    26    27    1
    33    33    29   ar
    34    26    22   ar
    35     7     1    1
    36     6     4    1
    37    13     8   ar
@<TRIPOS>MOLECULE
*****
 33 37 0 0 0
SMALL
GASTEIGER

@<TRIPOS>ATOM
      1 N          -5.1102  -16.2216   24.5531 N.3     1  UNL1       -0.2726
      2 C          -4.6428  -15.5555   25.8132 C.3     1  UNL1        0.0721
      3 C          -5.8512  -15.2225   26.6371 C.3     1  UNL1        0.0190
      4 C          -7.0654  -15.6828   25.8862 C.3     1  UNL1        0.0201
      5 C          -8.0636  -15.2339   26.9119 C.3     1  UNL1        0.0061
      6 C          -8.5310  -15.9000   25.6518 C.3     1  UNL1        0.0237
      7 C          -6.6074  -16.3002   24.5982 C.3     1  UNL1        0.0724
      8 C          -9.6470  -16.4100   24.7890 C.ar    1  UNL1       -0.0225
      9 C         -10.2702  -15.5129   23.7610 C.ar    1  UNL1       -0.0043
     10 C         -11.3861  -16.0229   22.8981 C.ar    1  UNL1        0.0035
     11 C         -11.8789  -17.4299   23.0633 C.ar    1  UNL1        0.0714
     12 C         -11.2557  -18.3270   24.0914 C.ar    1  UNL1        0.0035
     13 C         -10.1397  -17.8171   24.9542 C.ar    1  UNL1       -0.0043
     14 C         -12.9948  -17.9399   22.2005 C.3     1  UNL1        0.4186
     15 F         -14.1109  -18.4499   21.3376 F       1  UNL1       -0.1659
     16 F         -12.1680  -17.6786   20.9766 F       1  UNL1       -0.1659
     17 F         -13.8217  -18.2013   23.4244 F       1  UNL1       -0.1659
     18 C          -4.2341  -16.7213   23.4428 C.3     1  UNL1        0.0730
     19 C          -3.1934  -17.7652   23.7205 C.3     1  UNL1        0.0294
     20 C          -2.2232  -18.1613   22.6473 C.3     1  UNL1        0.0666
     21 S          -2.5886  -19.2340   21.6646 S.3     1  UNL1       -0.0756
     22 C          -6.0482  -19.1533   19.9067 C.ar    1  UNL1        0.2029
     23 N          -5.1965  -18.4330   18.9038 N.ar    1  UNL1       -0.1250
     24 N          -3.7969  -18.3756   19.4402 N.ar    1  UNL1       -0.1220
     25 C          -3.7835  -19.0604   20.7747 C.ar    1  UNL1        0.1933
     26 N          -5.1749  -19.5410   21.0631 N.ar    1  UNL1       -0.2860
     27 C          -5.6155  -20.2797   22.2919 C.3     1  UNL1        0.1341
     28 C          -8.4126  -17.9317   21.7955 C.3     1  UNL1        0.0556
     29 C          -8.6023  -18.8747   20.6444 C.ar    1  UNL1        0.1001
     30 N          -9.9120  -19.4217   20.1594 N.ar    1  UNL1       -0.2085
     31 C          -9.6348  -20.3212   18.9915 C.ar    1  UNL1        0.2849
     32 O          -8.1536  -20.3302   18.7547 O.2     1  UNL1       -0.4283
     33 C          -7.5155  -19.4361   19.7763 C.ar    1  UNL1        0.1964
@<TRIPOS>BOND
     1    28    29    1
     2    29    30   ar
     3    30    31   ar
     4    31    32   ar
     5    32    33   ar
     6    33    22    1
     7    22    23   ar
     8    23    24   ar
     9    24    25   ar
    10    25    21    1
    11    21    20    1
    12    20    19    1
    13    19    18    1
    14    18     1    1
    15     1     2    1
    16     2     3    1
    17     4     3    1
    18     4     5    1
    19     5     6    1
    20     6     8    1
    21     8     9   ar
    22     9    10   ar
    23    10    11   ar
    24    11    14    1
    25    14    15    1
    26    14    16    1
    27    14    17    1
    28    11    12   ar
    29    12    13   ar
    30     4     7    1
    31    25    26   ar
    32    26    27    1
    33    33    29   ar
    34    26    22   ar
    35     7     1    1
    36     6     4    1
    37    13     8   ar
@<TRIPOS>MOLECULE
*****
 33 37 0 0 0
SMALL
GASTEIGER

@<TRIPOS>ATOM
      1 N         -17.7561   -7.4172   19.3621 N.3     1  UNL1       -0.2726
      2 C         -18.3422   -8.7974   19.4021 C.3     1  UNL1        0.0721
      3 C         -17.2858   -9.7626   18.9521 C.3     1  UNL1        0.0190
      4 C         -16.0470   -8.9790   18.6340 C.3     1  UNL1        0.0201
      5 C         -15.2132  -10.1596   18.2329 C.3     1  UNL1        0.0061
      6 C         -14.6272   -8.7794   18.1930 C.3     1  UNL1        0.0237
      7 C         -16.3376   -7.5294   18.8874 C.3     1  UNL1        0.0724
      8 C         -13.4692   -7.8674   17.9153 C.ar    1  UNL1       -0.0225
      9 C         -12.8056   -7.8860   16.5702 C.ar    1  UNL1       -0.0043
     10 C         -11.6475   -6.9740   16.2926 C.ar    1  UNL1        0.0035
     11 C         -11.1532   -6.0433   17.3600 C.ar    1  UNL1        0.0714
     12 C         -11.8168   -6.0247   18.7051 C.ar    1  UNL1        0.0035
     13 C         -12.9748   -6.9367   18.9828 C.ar    1  UNL1       -0.0043
     14 C          -9.9951   -5.1312   17.0823 C.3     1  UNL1        0.4186
     15 F          -8.8370   -4.2191   16.8047 F       1  UNL1       -0.1659
     16 F         -10.7760   -4.4745   15.9828 F       1  UNL1       -0.1659
     17 F          -9.2143   -5.7879   18.1819 F       1  UNL1       -0.1659
     18 C         -18.4642   -6.1476   19.7320 C.3     1  UNL1        0.0730
     19 C         -19.5344   -5.5975   18.8364 C.3     1  UNL1        0.0294
     20 C         -19.2170   -5.2556   17.4108 C.3     1  UNL1        0.0666
     21 S         -18.4425   -4.0111   17.0926 S.3     1  UNL1       -0.0756
     22 C         -14.6157   -3.4725   17.4553 C.ar    1  UNL1        0.2029
     23 N         -14.6554   -4.7244   16.6299 N.ar    1  UNL1       -0.1250
     24 N         -16.0937   -5.0785   16.3935 N.ar    1  UNL1       -0.1220
     25 C         -16.9430   -4.0455   17.0729 C.ar    1  UNL1        0.1933
     26 N         -16.0297   -3.0529   17.7291 N.ar    1  UNL1       -0.2860
     27 C         -16.4554   -1.8517   18.5201 C.3     1  UNL1        0.1341
     28 C         -13.6353   -3.1739   20.5535 C.3     1  UNL1        0.0556
     29 C         -12.9287   -2.6273   19.3486 C.ar    1  UNL1        0.1001
     30 N         -11.6474   -1.8474   19.3561 N.ar    1  UNL1       -0.2085
     31 C         -11.3062   -1.5027   17.9367 C.ar    1  UNL1        0.2849
     32 O         -12.3766   -2.0695   17.0519 O.2     1  UNL1       -0.4283
     33 C         -13.3794   -2.7645   17.9245 C.ar    1  UNL1        0.1964
@<TRIPOS>BOND
     1    28    29    1
     2    29    30   ar
     3    30    31   ar
     4    31    32   ar
     5    32    33   ar
     6    33    22    1
     7    22    23   ar
     8    23    24   ar
     9    24    25   ar
    10    25    21    1
    11    21    20    1
    12    20    19    1
    13    19    18    1
    14    18     1    1
    15     1     2    1
    16     2     3    1
    17     4     3    1
    18     4     5    1
    19     5     6    1
    20     6     8    1
    21     8     9   ar
    22     9    10   ar
    23    10    11   ar
    24    11    14    1
    25    14    15    1
    26    14    16    1
    27    14    17    1
    28    11    12   ar
    29    12    13   ar
    30     4     7    1
    31    25    26   ar
    32    26    27    1
    33    33    29   ar
    34    26    22   ar
    35     7     1    1
    36     6     4    1
    37    13     8   ar
@<TRIPOS>MOLECULE
*****
 33 37 0 0 0
SMALL
GASTEIGER

@<TRIPOS>ATOM
      1 N         -16.9072   -1.7120   19.7924 N.3     1  UNL1       -0.2726
      2 C         -18.1815   -0.9777   20.0868 C.3     1  UNL1        0.0721
      3 C         -19.3074   -1.9680   20.0448 C.3     1  UNL1        0.0190
      4 C         -18.7289   -3.3143   19.7245 C.3     1  UNL1        0.0201
      5 C         -20.0327   -4.0555   19.7507 C.3     1  UNL1        0.0061
      6 C         -18.7583   -4.7899   19.4563 C.3     1  UNL1        0.0237
      7 C         -17.2454   -3.1561   19.5685 C.3     1  UNL1        0.0724
      8 C         -18.0395   -6.0657   19.1314 C.ar    1  UNL1       -0.0225
      9 C         -17.1151   -6.1263   17.9516 C.ar    1  UNL1       -0.0043
     10 C         -16.3963   -7.4022   17.6268 C.ar    1  UNL1        0.0035
     11 C         -16.6019   -8.6174   18.4818 C.ar    1  UNL1        0.0714
     12 C         -17.5263   -8.5568   19.6615 C.ar    1  UNL1        0.0035
     13 C         -18.2451   -7.2809   19.9864 C.ar    1  UNL1       -0.0043
     14 C         -15.8832   -9.8932   18.1569 C.3     1  UNL1        0.4186
     15 F         -15.1644  -11.1692   17.8321 F       1  UNL1       -0.1659
     16 F         -15.0293   -9.1598   17.1655 F       1  UNL1       -0.1659
     17 F         -16.7370  -10.6267   19.1483 F       1  UNL1       -0.1659
     18 C         -15.5353   -1.1083   19.7323 C.3     1  UNL1        0.0730
     19 C         -15.3014    0.1449   18.9419 C.3     1  UNL1        0.0294
     20 C         -13.9038    0.5568   18.5851 C.3     1  UNL1        0.0666
     21 S         -13.1572   -0.1762   17.5104 S.3     1  UNL1       -0.0756
     22 C         -11.9302   -3.8165   18.0659 C.ar    1  UNL1        0.2029
     23 N         -10.7622   -3.0339   18.5887 N.ar    1  UNL1       -0.1250
     24 N         -11.0796   -1.5750   18.4443 N.ar    1  UNL1       -0.1220
     25 C         -12.4439   -1.4560   17.8321 C.ar    1  UNL1        0.1933
     26 N         -12.9696   -2.8412   17.5983 N.ar    1  UNL1       -0.2860
     27 C         -14.3008   -3.1900   17.0016 C.3     1  UNL1        0.1341
     28 C         -13.9013   -5.6544   19.9061 C.3     1  UNL1        0.0556
     29 C         -12.9456   -6.1566   18.8647 C.ar    1  UNL1        0.1001
     30 N         -12.7281   -7.5917   18.4864 N.ar    1  UNL1       -0.2085
     31 C         -11.6877   -7.6339   17.4066 C.ar    1  UNL1        0.2849
     32 O         -11.2622   -6.2248   17.1177 O.2     1  UNL1       -0.4283
     33 C         -12.0396   -5.3118   18.0189 C.ar    1  UNL1        0.1964
@<TRIPOS>BOND
     1    28    29    1
     2    29    30   ar
     3    30    31   ar
     4    31    32   ar
     5    32    33   ar
     6    33    22    1
     7    22    23   ar
     8    23    24   ar
     9    24    25   ar
    10    25    21    1
    11    21    20    1
    12    20    19    1
    13    19    18    1
    14    18     1    1
    15     1     2    1
    16     2     3    1
    17     4     3    1
    18     4     5    1
    19     5     6    1
    20     6     8    1
    21     8     9   ar
    22     9    10   ar
    23    10    11   ar
    24    11    14    1
    25    14    15    1
    26    14    16    1
    27    14    17    1
    28    11    12   ar
    29    12    13   ar
    30     4     7    1
    31    25    26   ar
    32    26    27    1
    33    33    29   ar
    34    26    22   ar
    35     7     1    1
    36     6     4    1
    37    13     8   ar
@<TRIPOS>MOLECULE
*****
 33 37 0 0 0
SMALL
GASTEIGER

@<TRIPOS>ATOM
      1 N          -2.1966    4.0657   18.0535 N.3     1  UNL1       -0.2726
      2 C          -2.9486    3.8125   16.7806 C.3     1  UNL1        0.0721
      3 C          -4.4009    3.6593   17.1229 C.3     1  UNL1        0.0190
      4 C          -4.5465    3.8178   18.6074 C.3     1  UNL1        0.0201
      5 C          -6.0334    3.6229   18.6408 C.3     1  UNL1        0.0061
      6 C          -5.2814    3.8761   19.9137 C.3     1  UNL1        0.0237
      7 C          -3.1841    4.0689   19.1825 C.3     1  UNL1        0.0724
      8 C          -5.2715    4.0559   21.4029 C.ar    1  UNL1       -0.0225
      9 C          -4.7933    2.9444   22.2894 C.ar    1  UNL1       -0.0043
     10 C          -4.7834    3.1242   23.7785 C.ar    1  UNL1        0.0035
     11 C          -5.2517    4.4155   24.3811 C.ar    1  UNL1        0.0714
     12 C          -5.7299    5.5271   23.4946 C.ar    1  UNL1        0.0035
     13 C          -5.7398    5.3473   22.0055 C.ar    1  UNL1       -0.0043
     14 C          -5.2418    4.5954   25.8703 C.3     1  UNL1        0.4186
     15 F          -5.2319    4.7752   27.3595 F       1  UNL1       -0.1659
     16 F          -4.2484    3.4788   25.9985 F       1  UNL1       -0.1659
     17 F          -6.2352    5.7119   25.7420 F       1  UNL1       -0.1659
     18 C          -0.7168    4.2783   18.1760 C.3     1  UNL1        0.0730
     19 C           0.2129    3.1011   18.1718 C.3     1  UNL1        0.0294
     20 C           0.7351    2.5531   19.4669 C.3     1  UNL1        0.0666
     21 S           0.7420    1.0724   19.7061 S.3     1  UNL1       -0.0756
     22 C           3.7778   -1.2975   19.2226 C.ar    1  UNL1        0.2029
     23 N           3.5984   -0.7684   17.8305 N.ar    1  UNL1       -0.1250
     24 N           2.4394    0.1837   17.8422 N.ar    1  UNL1       -0.1220
     25 C           1.9024    0.2431   19.2415 C.ar    1  UNL1        0.1933
     26 N           2.7296   -0.6723   20.0947 N.ar    1  UNL1       -0.2860
     27 C           2.5415   -0.9192   21.5623 C.3     1  UNL1        0.1341
     28 C           3.4736   -4.5467   19.2333 C.3     1  UNL1        0.0556
     29 C           4.6822   -3.7728   19.6699 C.ar    1  UNL1        0.1001
     30 N           5.9631   -4.3565   20.1881 N.ar    1  UNL1       -0.2085
     31 C           6.8946   -3.2238   20.5034 C.ar    1  UNL1        0.2849
     32 O           6.1893   -1.9400   20.1801 O.2     1  UNL1       -0.4283
     33 C           4.8220   -2.2793   19.6650 C.ar    1  UNL1        0.1964
@<TRIPOS>BOND
     1    28    29    1
     2    29    30   ar
     3    30    31   ar
     4    31    32   ar
     5    32    33   ar
     6    33    22    1
     7    22    23   ar
     8    23    24   ar
     9    24    25   ar
    10    25    21    1
    11    21    20    1
    12    20    19    1
    13    19    18    1
    14    18     1    1
    15     1     2    1
    16     2     3    1
    17     4     3    1
    18     4     5    1
    19     5     6    1
    20     6     8    1
    21     8     9   ar
    22     9    10   ar
    23    10    11   ar
    24    11    14    1
    25    14    15    1
    26    14    16    1
    27    14    17    1
    28    11    12   ar
    29    12    13   ar
    30     4     7    1
    31    25    26   ar
    32    26    27    1
    33    33    29   ar
    34    26    22   ar
    35     7     1    1
    36     6     4    1
    37    13     8   ar
@<TRIPOS>MOLECULE
*****
 33 37 0 0 0
SMALL
GASTEIGER

@<TRIPOS>ATOM
      1 N          -4.6908  -16.2951   24.1627 N.3     1  UNL1       -0.2726
      2 C          -4.4727  -16.0946   25.6332 C.3     1  UNL1        0.0721
      3 C          -5.8045  -15.8198   26.2661 C.3     1  UNL1        0.0190
      4 C          -6.8458  -15.8504   25.1868 C.3     1  UNL1        0.0201
      5 C          -8.0109  -15.5563   26.0845 C.3     1  UNL1        0.0061
      6 C          -8.2290  -15.7567   24.6141 C.3     1  UNL1        0.0237
      7 C          -6.1574  -16.1441   23.8868 C.3     1  UNL1        0.0724
      8 C          -9.1535  -15.8184   23.4345 C.ar    1  UNL1       -0.0225
      9 C         -10.5616  -16.3049   23.6097 C.ar    1  UNL1       -0.0043
     10 C         -11.4861  -16.3665   22.4301 C.ar    1  UNL1        0.0035
     11 C         -11.0025  -15.9417   21.0752 C.ar    1  UNL1        0.0714
     12 C          -9.5944  -15.4552   20.9000 C.ar    1  UNL1        0.0035
     13 C          -8.6699  -15.3936   22.0796 C.ar    1  UNL1       -0.0043
     14 C         -11.9270  -16.0034   19.8956 C.3     1  UNL1        0.4186
     15 F         -12.8515  -16.0651   18.7160 F       1  UNL1       -0.1659
     16 F         -10.9146  -15.2728   19.0641 F       1  UNL1       -0.1659
     17 F         -12.9393  -16.7339   20.7272 F       1  UNL1       -0.1659
     18 C          -3.6287  -16.5940   23.1465 C.3     1  UNL1        0.0730
     19 C          -2.7049  -17.7586   23.3475 C.3     1  UNL1        0.0294
     20 C          -1.9959  -18.3650   22.1730 C.3     1  UNL1        0.0666
     21 S          -2.6987  -19.3710   21.3103 S.3     1  UNL1       -0.0756
     22 C          -6.5622  -19.7205   21.1803 C.ar    1  UNL1        0.2029
     23 N          -6.2525  -20.4069   22.4776 N.ar    1  UNL1       -0.1250
     24 N          -4.7675  -20.3595   22.6842 N.ar    1  UNL1       -0.1220
     25 C          -4.1595  -19.6438   21.5146 C.ar    1  UNL1        0.1933
     26 N          -5.2685  -19.2489   20.5851 N.ar    1  UNL1       -0.2860
     27 C          -5.1116  -18.5118   19.2881 C.3     1  UNL1        0.1341
     28 C          -9.3723  -19.5518   22.8309 C.3     1  UNL1        0.0556
     29 C          -9.2176  -19.4603   21.3417 C.ar    1  UNL1        0.1001
     30 N         -10.3274  -19.2752   20.3498 N.ar    1  UNL1       -0.2085
     31 C          -9.7217  -19.2383   18.9780 C.ar    1  UNL1        0.2849
     32 O          -8.2375  -19.4007   19.1221 O.2     1  UNL1       -0.4283
     33 C          -7.9260  -19.5378   20.5830 C.ar    1  UNL1        0.1964
@<TRIPOS>BOND
     1    28    29    1
     2    29    30   ar
     3    30    31   ar
     4    31    32   ar
     5    32    33   ar
     6    33    22    1
     7    22    23   ar
     8    23    24   ar
     9    24    25   ar
    10    25    21    1
    11    21    20    1
    12    20    19    1
    13    19    18    1
    14    18     1    1
    15     1     2    1
    16     2     3    1
    17     4     3    1
    18     4     5    1
    19     5     6    1
    20     6     8    1
    21     8     9   ar
    22     9    10   ar
    23    10    11   ar
    24    11    14    1
    25    14    15    1
    26    14    16    1
    27    14    17    1
    28    11    12   ar
    29    12    13   ar
    30     4     7    1
    31    25    26   ar
    32    26    27    1
    33    33    29   ar
    34    26    22   ar
    35     7     1    1
    36     6     4    1
    37    13     8   ar
@<TRIPOS>MOLECULE
*****
 33 37 0 0 0
SMALL
GASTEIGER

@<TRIPOS>ATOM
      1 N          -2.6146    4.5601   17.9576 N.3     1  UNL1       -0.2726
      2 C          -3.3327    4.0891   16.7277 C.3     1  UNL1        0.0721
      3 C          -4.6886    3.5994   17.1418 C.3     1  UNL1        0.0190
      4 C          -4.8086    3.7677   18.6275 C.3     1  UNL1        0.0201
      5 C          -6.2004    3.2188   18.7356 C.3     1  UNL1        0.0061
      6 C          -5.4823    3.6897   19.9654 C.3     1  UNL1        0.0237
      7 C          -3.5267    4.3614   19.1317 C.3     1  UNL1        0.0724
      8 C          -5.4566    3.9166   21.4479 C.ar    1  UNL1       -0.0225
      9 C          -4.5246    3.1203   22.3125 C.ar    1  UNL1       -0.0043
     10 C          -4.4989    3.3472   23.7950 C.ar    1  UNL1        0.0035
     11 C          -5.4052    4.3704   24.4129 C.ar    1  UNL1        0.0714
     12 C          -6.3371    5.1667   23.5484 C.ar    1  UNL1        0.0035
     13 C          -6.3628    4.9398   22.0659 C.ar    1  UNL1       -0.0043
     14 C          -5.3795    4.5973   25.8954 C.3     1  UNL1        0.4186
     15 F          -5.3538    4.8242   27.3780 F       1  UNL1       -0.1659
     16 F          -6.3566    5.7247   25.7398 F       1  UNL1       -0.1659
     17 F          -4.4024    3.4699   26.0511 F       1  UNL1       -0.1659
     18 C          -1.2277    5.1297   18.0050 C.3     1  UNL1        0.0730
     19 C          -0.0556    4.2845   17.6029 C.3     1  UNL1        0.0294
     20 C           0.1051    2.9057   18.1713 C.3     1  UNL1        0.0666
     21 S           1.4562    2.4314   18.6182 S.3     1  UNL1       -0.0756
     22 C           2.5233   -1.1284   19.7381 C.ar    1  UNL1        0.2029
     23 N           1.1966   -0.9938   20.4252 N.ar    1  UNL1       -0.1250
     24 N           0.6354    0.3561   20.0892 N.ar    1  UNL1       -0.1220
     25 C           1.6152    1.0558   19.1946 C.ar    1  UNL1        0.1933
     26 N           2.7819    0.1384   18.9775 N.ar    1  UNL1       -0.2860
     27 C           3.9945    0.4355   18.1460 C.3     1  UNL1        0.1341
     28 C           4.1024   -2.2000   22.3853 C.3     1  UNL1        0.0556
     29 C           4.1575   -2.8130   21.0174 C.ar    1  UNL1        0.1001
     30 N           4.9481   -4.0262   20.6261 N.ar    1  UNL1       -0.2085
     31 C           4.7109   -4.2834   19.1674 C.ar    1  UNL1        0.2849
     32 O           3.7737   -3.2292   18.6573 O.2     1  UNL1       -0.4283
     33 C           3.4317   -2.3205   19.8006 C.ar    1  UNL1        0.1964
@<TRIPOS>BOND
     1    28    29    1
     2    29    30   ar
     3    30    31   ar
     4    31    32   ar
     5    32    33   ar
     6    33    22    1
     7    22    23   ar
     8    23    24   ar
     9    24    25   ar
    10    25    21    1
    11    21    20    1
    12    20    19    1
    13    19    18    1
    14    18     1    1
    15     1     2    1
    16     2     3    1
    17     4     3    1
    18     4     5    1
    19     5     6    1
    20     6     8    1
    21     8     9   ar
    22     9    10   ar
    23    10    11   ar
    24    11    14    1
    25    14    15    1
    26    14    16    1
    27    14    17    1
    28    11    12   ar
    29    12    13   ar
    30     4     7    1
    31    25    26   ar
    32    26    27    1
    33    33    29   ar
    34    26    22   ar
    35     7     1    1
    36     6     4    1
    37    13     8   ar
