@<TRIPOS>MOLECULE
*****
 28 31 0 0 0
SMALL
GASTEIGER

@<TRIPOS>ATOM
      1 C          -5.0072  -20.3835   19.4370 C.3     1  UNL1        0.0324
      2 C          -5.3826  -19.6074   20.6645 C.ar    1  UNL1       -0.0020
      3 C          -4.3324  -19.2429   21.6716 C.ar    1  UNL1        0.0960
      4 C          -4.7078  -18.4669   22.8992 C.ar    1  UNL1        0.1347
      5 N          -3.6576  -18.1023   23.9064 N.pl3   1  UNL1       -0.3421
      6 N          -6.1333  -18.0553   23.1196 N.ar    1  UNL1       -0.2302
      7 C          -7.1834  -18.4198   22.1125 C.ar    1  UNL1        0.0864
      8 C          -8.6588  -18.1541   22.0598 C.ar    1  UNL1        0.0199
      9 C          -9.1953  -18.7659   20.7998 C.ar    1  UNL1        0.0784
     10 S          -8.0515  -19.4098   20.0737 S.2     1  UNL1       -0.0712
     11 C          -6.8081  -19.1958   20.8850 C.ar    1  UNL1        0.0448
     12 N         -10.6560  -18.6578   20.4764 N.am    1  UNL1       -0.2791
     13 C         -11.5801  -17.9378   21.4130 C.2     1  UNL1        0.2271
     14 O         -13.0409  -17.8296   21.0896 O.2     1  UNL1       -0.2747
     15 C         -11.0437  -17.3259   22.6731 C.3     1  UNL1        0.0942
     16 C          -9.5830  -17.4340   22.9965 C.3     1  UNL1        0.0577
     17 H          -2.7220  -18.3725   23.7617 H       1  UNL1        0.1437
     18 H          -3.9039  -17.5930   24.7120 H       1  UNL1        0.1437
     19 H         -11.0081  -19.0594   19.6493 H       1  UNL1        0.1553
     20 C          -9.0465  -16.8222   24.2566 C.ar    1  UNL1       -0.0073
     21 C          -8.3137  -15.5145   24.2024 C.ar    1  UNL1       -0.0031
     22 C          -7.7772  -14.9026   25.4625 C.ar    1  UNL1       -0.0003
     23 C          -7.9735  -15.5984   26.7767 C.ar    1  UNL1        0.0008
     24 C          -8.7063  -16.9061   26.8309 C.ar    1  UNL1        0.0111
     25 C          -9.2428  -17.5180   25.5708 C.ar    1  UNL1        0.0540
     26 CL         -9.9756  -18.8257   25.6251 Cl      1  UNL1       -0.0826
     27 C          -2.9069  -19.6545   21.4512 C.1     1  UNL1        0.1029
     28 N          -1.4814  -20.0661   21.2308 N.1     1  UNL1       -0.1907
@<TRIPOS>BOND
     1     1     2    1
     2     2     3   ar
     3     3    27    1
     4    27    28    3
     5     3     4   ar
     6     4     5    1
     7     4     6   ar
     8     6     7   ar
     9     7     8   ar
    10     8     9   ar
    11     9    10   ar
    12    10    11   ar
    13     9    12    1
    14    12    13   am
    15    13    14    2
    16    13    15    1
    17    15    16    1
    18    16    20    1
    19    20    21   ar
    20    21    22   ar
    21    22    23   ar
    22    23    24   ar
    23    24    25   ar
    24    25    26    1
    25    11     2   ar
    26    25    20   ar
    27    11     7   ar
    28    16     8    1
    29     5    17    1
    30     5    18    1
    31    12    19    1
@<TRIPOS>MOLECULE
*****
 28 31 0 0 0
SMALL
GASTEIGER

@<TRIPOS>ATOM
      1 C          -4.1286  -17.5838   23.4505 C.3     1  UNL1        0.0324
      2 C          -5.5842  -17.3349   23.1875 C.ar    1  UNL1       -0.0020
      3 C          -6.3138  -16.2720   23.9543 C.ar    1  UNL1        0.0960
      4 C          -7.7695  -16.0231   23.6912 C.ar    1  UNL1        0.1347
      5 N          -8.4991  -14.9602   24.4581 N.pl3   1  UNL1       -0.3421
      6 N          -8.4955  -16.8370   22.6614 N.ar    1  UNL1       -0.2302
      7 C          -7.7659  -17.8999   21.8946 C.ar    1  UNL1        0.0864
      8 C          -8.2137  -18.8534   20.8269 C.ar    1  UNL1        0.0199
      9 C          -7.0349  -19.6918   20.4299 C.ar    1  UNL1        0.0784
     10 S          -5.8585  -19.2563   21.2524 S.2     1  UNL1       -0.0712
     11 C          -6.3102  -18.1488   22.1577 C.ar    1  UNL1        0.0448
     12 N          -7.1849  -20.7433   19.3709 N.am    1  UNL1       -0.2791
     13 C          -8.5138  -20.9566   18.7088 C.2     1  UNL1        0.2271
     14 O          -8.6640  -22.0082   17.6497 O.2     1  UNL1       -0.2747
     15 C          -9.6927  -20.1183   19.1057 C.3     1  UNL1        0.0942
     16 C          -9.5426  -19.0667   20.1647 C.3     1  UNL1        0.0577
     17 H          -8.0227  -14.4260   25.1340 H       1  UNL1        0.1437
     18 H          -9.4545  -14.7968   24.2854 H       1  UNL1        0.1437
     19 H          -6.4112  -21.2935   19.1104 H       1  UNL1        0.1553
     20 C         -10.7215  -18.2284   20.5617 C.ar    1  UNL1       -0.0073
     21 C         -11.0696  -17.0018   19.7716 C.ar    1  UNL1       -0.0031
     22 C         -12.2484  -16.1635   20.1685 C.ar    1  UNL1       -0.0003
     23 C         -13.0792  -16.5518   21.3555 C.ar    1  UNL1        0.0008
     24 C         -12.7311  -17.7784   22.1456 C.ar    1  UNL1        0.0111
     25 C         -11.5523  -18.6167   21.7487 C.ar    1  UNL1        0.0540
     26 CL        -11.2042  -19.8434   22.5388 Cl      1  UNL1       -0.0826
     27 C          -5.5878  -15.4581   24.9841 C.1     1  UNL1        0.1029
     28 N          -4.8618  -14.6442   26.0139 N.1     1  UNL1       -0.1907
@<TRIPOS>BOND
     1     1     2    1
     2     2     3   ar
     3     3    27    1
     4    27    28    3
     5     3     4   ar
     6     4     5    1
     7     4     6   ar
     8     6     7   ar
     9     7     8   ar
    10     8     9   ar
    11     9    10   ar
    12    10    11   ar
    13     9    12    1
    14    12    13   am
    15    13    14    2
    16    13    15    1
    17    15    16    1
    18    16    20    1
    19    20    21   ar
    20    21    22   ar
    21    22    23   ar
    22    23    24   ar
    23    24    25   ar
    24    25    26    1
    25    11     2   ar
    26    25    20   ar
    27    11     7   ar
    28    16     8    1
    29     5    17    1
    30     5    18    1
    31    12    19    1
@<TRIPOS>MOLECULE
*****
 28 31 0 0 0
SMALL
GASTEIGER

@<TRIPOS>ATOM
      1 C          -2.1907  -16.8654   22.6448 C.3     1  UNL1        0.0324
      2 C          -3.5807  -17.3852   22.4267 C.ar    1  UNL1       -0.0020
      3 C          -3.8555  -18.3443   21.3066 C.ar    1  UNL1        0.0960
      4 C          -5.2455  -18.8642   21.0885 C.ar    1  UNL1        0.1347
      5 N          -5.5204  -19.8233   19.9683 N.pl3   1  UNL1       -0.3421
      6 N          -6.3607  -18.4250   21.9904 N.ar    1  UNL1       -0.2302
      7 C          -6.0859  -17.4659   23.1105 C.ar    1  UNL1        0.0864
      8 C          -6.9769  -16.8588   24.1534 C.ar    1  UNL1        0.0199
      9 C          -6.1375  -15.9637   25.0161 C.ar    1  UNL1        0.0784
     10 S          -4.7278  -16.0176   24.5064 S.2     1  UNL1       -0.0712
     11 C          -4.6959  -16.9460   23.3287 C.ar    1  UNL1        0.0448
     12 N          -6.7653  -15.2152   26.1543 N.am    1  UNL1       -0.2791
     13 C          -8.2324  -15.3618   26.4298 C.2     1  UNL1        0.2271
     14 O          -8.8602  -14.6133   27.5681 O.2     1  UNL1       -0.2747
     15 C          -9.0718  -16.2569   25.5671 C.3     1  UNL1        0.0942
     16 C          -8.4440  -17.0054   24.4289 C.3     1  UNL1        0.0577
     17 H          -4.7885  -20.1115   19.3763 H       1  UNL1        0.1437
     18 H          -6.4327  -20.1645   19.8251 H       1  UNL1        0.1437
     19 H          -6.2144  -14.6277   26.7205 H       1  UNL1        0.1553
     20 C          -9.2834  -17.9005   23.5662 C.ar    1  UNL1       -0.0073
     21 C          -9.5871  -19.3006   24.0104 C.ar    1  UNL1       -0.0031
     22 C         -10.4265  -20.1957   23.1477 C.ar    1  UNL1       -0.0003
     23 C         -10.9621  -19.6907   21.8408 C.ar    1  UNL1        0.0008
     24 C         -10.6584  -18.2906   21.3966 C.ar    1  UNL1        0.0111
     25 C          -9.8190  -17.3955   22.2593 C.ar    1  UNL1        0.0540
     26 CL         -9.5152  -15.9953   21.8151 Cl      1  UNL1       -0.0826
     27 C          -2.7403  -18.7835   20.4046 C.1     1  UNL1        0.1029
     28 N          -1.6252  -19.2227   19.5027 N.1     1  UNL1       -0.1907
@<TRIPOS>BOND
     1     1     2    1
     2     2     3   ar
     3     3    27    1
     4    27    28    3
     5     3     4   ar
     6     4     5    1
     7     4     6   ar
     8     6     7   ar
     9     7     8   ar
    10     8     9   ar
    11     9    10   ar
    12    10    11   ar
    13     9    12    1
    14    12    13   am
    15    13    14    2
    16    13    15    1
    17    15    16    1
    18    16    20    1
    19    20    21   ar
    20    21    22   ar
    21    22    23   ar
    22    23    24   ar
    23    24    25   ar
    24    25    26    1
    25    11     2   ar
    26    25    20   ar
    27    11     7   ar
    28    16     8    1
    29     5    17    1
    30     5    18    1
    31    12    19    1
@<TRIPOS>MOLECULE
*****
 28 31 0 0 0
SMALL
GASTEIGER

@<TRIPOS>ATOM
      1 C          -2.7560  -17.6345   22.5116 C.3     1  UNL1        0.0324
      2 C          -4.2386  -17.7795   22.3361 C.ar    1  UNL1       -0.0020
      3 C          -4.7845  -18.5291   21.1570 C.ar    1  UNL1        0.0960
      4 C          -6.2671  -18.6741   20.9815 C.ar    1  UNL1        0.1347
      5 N          -6.8130  -19.4237   19.8024 N.pl3   1  UNL1       -0.3421
      6 N          -7.2039  -18.0695   21.9849 N.ar    1  UNL1       -0.2302
      7 C          -6.6580  -17.3199   23.1640 C.ar    1  UNL1        0.0864
      8 C          -7.3308  -16.6211   24.3081 C.ar    1  UNL1        0.0199
      9 C          -6.2640  -16.0443   25.1908 C.ar    1  UNL1        0.0784
     10 S          -4.9319  -16.3865   24.5922 S.2     1  UNL1       -0.0712
     11 C          -5.1754  -17.1749   23.3395 C.ar    1  UNL1        0.0448
     12 N          -6.6434  -15.2819   26.4256 N.am    1  UNL1       -0.2791
     13 C          -8.0897  -15.0963   26.7777 C.2     1  UNL1        0.2271
     14 O          -8.4691  -14.3339   28.0126 O.2     1  UNL1       -0.2747
     15 C          -9.1565  -15.6732   25.8950 C.3     1  UNL1        0.0942
     16 C          -8.7771  -16.4356   24.6602 C.3     1  UNL1        0.0577
     17 H          -6.1982  -19.8205   19.1437 H       1  UNL1        0.1437
     18 H          -7.7861  -19.5188   19.6871 H       1  UNL1        0.1437
     19 H          -5.9433  -14.9033   27.0050 H       1  UNL1        0.1553
     20 C          -9.8439  -17.0124   23.7775 C.ar    1  UNL1       -0.0073
     21 C         -10.3438  -16.2327   22.5977 C.ar    1  UNL1       -0.0031
     22 C         -11.4106  -16.8096   21.7150 C.ar    1  UNL1       -0.0003
     23 C         -11.9775  -18.1662   22.0121 C.ar    1  UNL1        0.0008
     24 C         -11.4775  -18.9459   23.1919 C.ar    1  UNL1        0.0111
     25 C         -10.4107  -18.3690   24.0746 C.ar    1  UNL1        0.0540
     26 CL         -9.9108  -19.1488   25.2545 Cl      1  UNL1       -0.0826
     27 C          -3.8477  -19.1337   20.1535 C.1     1  UNL1        0.1029
     28 N          -2.9109  -19.7383   19.1501 N.1     1  UNL1       -0.1907
@<TRIPOS>BOND
     1     1     2    1
     2     2     3   ar
     3     3    27    1
     4    27    28    3
     5     3     4   ar
     6     4     5    1
     7     4     6   ar
     8     6     7   ar
     9     7     8   ar
    10     8     9   ar
    11     9    10   ar
    12    10    11   ar
    13     9    12    1
    14    12    13   am
    15    13    14    2
    16    13    15    1
    17    15    16    1
    18    16    20    1
    19    20    21   ar
    20    21    22   ar
    21    22    23   ar
    22    23    24   ar
    23    24    25   ar
    24    25    26    1
    25    11     2   ar
    26    25    20   ar
    27    11     7   ar
    28    16     8    1
    29     5    17    1
    30     5    18    1
    31    12    19    1
@<TRIPOS>MOLECULE
*****
 28 31 0 0 0
SMALL
GASTEIGER

@<TRIPOS>ATOM
      1 C           1.2116    1.7539   24.5112 C.3     1  UNL1        0.0324
      2 C           1.6934    0.8118   23.4480 C.ar    1  UNL1       -0.0020
      3 C           1.1216    0.8879   22.0634 C.ar    1  UNL1        0.0960
      4 C           1.6034   -0.0541   21.0002 C.ar    1  UNL1        0.1347
      5 N           1.0316    0.0219   19.6155 N.pl3   1  UNL1       -0.3421
      6 N           2.6570   -1.0723   21.3217 N.ar    1  UNL1       -0.2302
      7 C           3.2288   -1.1484   22.7063 C.ar    1  UNL1        0.0864
      8 C           4.2702   -2.0403   23.3145 C.ar    1  UNL1        0.0199
      9 C           4.4320   -1.6495   24.7536 C.ar    1  UNL1        0.0784
     10 S           3.4906   -0.5160   25.0348 S.2     1  UNL1       -0.0712
     11 C           2.7470   -0.2063   23.7695 C.ar    1  UNL1        0.0448
     12 N           5.4157   -2.3762   25.6221 N.am    1  UNL1       -0.2791
     13 C           6.2375   -3.4938   25.0514 C.2     1  UNL1        0.2271
     14 O           7.2212   -4.2206   25.9199 O.2     1  UNL1       -0.2747
     15 C           6.0756   -3.8846   23.6123 C.3     1  UNL1        0.0942
     16 C           5.0920   -3.1578   22.7438 C.3     1  UNL1        0.0577
     17 H           0.3400    0.6902   19.4045 H       1  UNL1        0.1437
     18 H           1.3478   -0.5964   18.9177 H       1  UNL1        0.1437
     19 H           5.5219   -2.1198   26.5667 H       1  UNL1        0.1553
     20 C           4.9302   -3.5486   21.3047 C.ar    1  UNL1       -0.0073
     21 C           3.9422   -4.6106   20.9225 C.ar    1  UNL1       -0.0031
     22 C           3.7804   -5.0014   19.4833 C.ar    1  UNL1       -0.0003
     23 C           4.6065   -4.3302   18.4265 C.ar    1  UNL1        0.0008
     24 C           5.5945   -3.2683   18.8087 C.ar    1  UNL1        0.0111
     25 C           5.7563   -2.8775   20.2479 C.ar    1  UNL1        0.0540
     26 CL          6.7443   -1.8155   20.6301 Cl      1  UNL1       -0.0826
     27 C           0.0679    1.9061   21.7420 C.1     1  UNL1        0.1029
     28 N          -0.9857    2.9242   21.4205 N.1     1  UNL1       -0.1907
@<TRIPOS>BOND
     1     1     2    1
     2     2     3   ar
     3     3    27    1
     4    27    28    3
     5     3     4   ar
     6     4     5    1
     7     4     6   ar
     8     6     7   ar
     9     7     8   ar
    10     8     9   ar
    11     9    10   ar
    12    10    11   ar
    13     9    12    1
    14    12    13   am
    15    13    14    2
    16    13    15    1
    17    15    16    1
    18    16    20    1
    19    20    21   ar
    20    21    22   ar
    21    22    23   ar
    22    23    24   ar
    23    24    25   ar
    24    25    26    1
    25    11     2   ar
    26    25    20   ar
    27    11     7   ar
    28    16     8    1
    29     5    17    1
    30     5    18    1
    31    12    19    1
@<TRIPOS>MOLECULE
*****
 28 31 0 0 0
SMALL
GASTEIGER

@<TRIPOS>ATOM
      1 C         -12.5863    0.2304   18.2389 C.3     1  UNL1        0.0324
      2 C         -13.3705   -1.0474   18.1921 C.ar    1  UNL1       -0.0020
      3 C         -14.8530   -1.0096   17.9673 C.ar    1  UNL1        0.0960
      4 C         -15.6372   -2.2874   17.9205 C.ar    1  UNL1        0.1347
      5 N         -17.1199   -2.2497   17.6957 N.pl3   1  UNL1       -0.3421
      6 N         -14.9389   -3.6030   18.0983 N.ar    1  UNL1       -0.2302
      7 C         -13.4563   -3.6408   18.3231 C.ar    1  UNL1        0.0864
      8 C         -12.5011   -4.7787   18.5296 C.ar    1  UNL1        0.0199
      9 C         -11.1265   -4.2042   18.7042 C.ar    1  UNL1        0.0784
     10 S         -11.2322   -2.7112   18.6055 S.2     1  UNL1       -0.0712
     11 C         -12.6721   -2.3629   18.3699 C.ar    1  UNL1        0.0448
     12 N          -9.9563   -5.1148   18.9304 N.am    1  UNL1       -0.2791
     13 C         -10.1605   -6.5999   18.9822 C.2     1  UNL1        0.2271
     14 O          -8.9902   -7.5105   19.2084 O.2     1  UNL1       -0.2747
     15 C         -11.5351   -7.1744   18.8076 C.3     1  UNL1        0.0942
     16 C         -12.7054   -6.2638   18.5814 C.3     1  UNL1        0.0577
     17 H         -17.5783   -1.3863   17.5790 H       1  UNL1        0.1437
     18 H         -17.6346   -3.0884   17.6650 H       1  UNL1        0.1437
     19 H          -9.0541   -4.7377   19.0450 H       1  UNL1        0.1553
     20 C         -14.0800   -6.8383   18.4068 C.ar    1  UNL1       -0.0073
     21 C         -15.0697   -6.7704   19.5319 C.ar    1  UNL1       -0.0031
     22 C         -16.4442   -7.3449   19.3574 C.ar    1  UNL1       -0.0003
     23 C         -16.8291   -7.9874   18.0578 C.ar    1  UNL1        0.0008
     24 C         -15.8395   -8.0553   16.9327 C.ar    1  UNL1        0.0111
     25 C         -14.4649   -7.4808   17.1072 C.ar    1  UNL1        0.0540
     26 CL        -13.4752   -7.5487   15.9820 Cl      1  UNL1       -0.0826
     27 C         -15.5514    0.3059   17.7895 C.1     1  UNL1        0.1029
     28 N         -16.2498    1.6215   17.6116 N.1     1  UNL1       -0.1907
@<TRIPOS>BOND
     1     1     2    1
     2     2     3   ar
     3     3    27    1
     4    27    28    3
     5     3     4   ar
     6     4     5    1
     7     4     6   ar
     8     6     7   ar
     9     7     8   ar
    10     8     9   ar
    11     9    10   ar
    12    10    11   ar
    13     9    12    1
    14    12    13   am
    15    13    14    2
    16    13    15    1
    17    15    16    1
    18    16    20    1
    19    20    21   ar
    20    21    22   ar
    21    22    23   ar
    22    23    24   ar
    23    24    25   ar
    24    25    26    1
    25    11     2   ar
    26    25    20   ar
    27    11     7   ar
    28    16     8    1
    29     5    17    1
    30     5    18    1
    31    12    19    1
@<TRIPOS>MOLECULE
*****
 28 31 0 0 0
SMALL
GASTEIGER

@<TRIPOS>ATOM
      1 C           2.4253    0.7077   26.1133 C.3     1  UNL1        0.0324
      2 C           2.9563   -0.1117   24.9746 C.ar    1  UNL1       -0.0020
      3 C           3.9359   -1.2166   25.2385 C.ar    1  UNL1        0.0960
      4 C           4.4669   -2.0360   24.0999 C.ar    1  UNL1        0.1347
      5 N           5.4466   -3.1409   24.3638 N.pl3   1  UNL1       -0.3421
      6 N           4.0183   -1.7505   22.6972 N.ar    1  UNL1       -0.2302
      7 C           3.0387   -0.6457   22.4333 C.ar    1  UNL1        0.0864
      8 C           2.4186   -0.1355   21.1663 C.ar    1  UNL1        0.0199
      9 C           1.5043    0.9992   21.5220 C.ar    1  UNL1        0.0784
     10 S           1.5594    1.1903   23.0088 S.2     1  UNL1       -0.0712
     11 C           2.5077    0.1737   23.5720 C.ar    1  UNL1        0.0448
     12 N           0.7398    1.7119   20.4461 N.am    1  UNL1       -0.2791
     13 C           0.8895    1.2898   19.0146 C.2     1  UNL1        0.2271
     14 O           0.1250    2.0024   17.9386 O.2     1  UNL1       -0.2747
     15 C           1.8038    0.1550   18.6589 C.3     1  UNL1        0.0942
     16 C           2.5684   -0.5576   19.7348 C.3     1  UNL1        0.0577
     17 H           5.7410   -3.3282   25.2843 H       1  UNL1        0.1437
     18 H           5.7951   -3.6787   23.6164 H       1  UNL1        0.1437
     19 H           0.1397    2.4566   20.6795 H       1  UNL1        0.1553
     20 C           3.4826   -1.6923   19.3791 C.ar    1  UNL1       -0.0073
     21 C           2.9896   -3.1066   19.4608 C.ar    1  UNL1       -0.0031
     22 C           3.9039   -4.2413   19.1051 C.ar    1  UNL1       -0.0003
     23 C           5.3112   -3.9618   18.6678 C.ar    1  UNL1        0.0008
     24 C           5.8042   -2.5475   18.5862 C.ar    1  UNL1        0.0111
     25 C           4.8899   -1.4128   18.9419 C.ar    1  UNL1        0.0540
     26 CL          5.3831    0.0015   18.8602 Cl      1  UNL1       -0.0826
     27 C           4.3845   -1.5020   26.6412 C.1     1  UNL1        0.1029
     28 N           4.8331   -1.7875   28.0438 N.1     1  UNL1       -0.1907
@<TRIPOS>BOND
     1     1     2    1
     2     2     3   ar
     3     3    27    1
     4    27    28    3
     5     3     4   ar
     6     4     5    1
     7     4     6   ar
     8     6     7   ar
     9     7     8   ar
    10     8     9   ar
    11     9    10   ar
    12    10    11   ar
    13     9    12    1
    14    12    13   am
    15    13    14    2
    16    13    15    1
    17    15    16    1
    18    16    20    1
    19    20    21   ar
    20    21    22   ar
    21    22    23   ar
    22    23    24   ar
    23    24    25   ar
    24    25    26    1
    25    11     2   ar
    26    25    20   ar
    27    11     7   ar
    28    16     8    1
    29     5    17    1
    30     5    18    1
    31    12    19    1
@<TRIPOS>MOLECULE
*****
 28 31 0 0 0
SMALL
GASTEIGER

@<TRIPOS>ATOM
      1 C         -12.8468    1.4552   17.3614 C.3     1  UNL1        0.0324
      2 C         -13.5427    0.1297   17.4551 C.ar    1  UNL1       -0.0020
      3 C         -15.0054    0.0266   17.1394 C.ar    1  UNL1        0.0960
      4 C         -15.7013   -1.2989   17.2330 C.ar    1  UNL1        0.1347
      5 N         -17.1641   -1.4020   16.9173 N.pl3   1  UNL1       -0.3421
      6 N         -14.9344   -2.5213   17.6424 N.ar    1  UNL1       -0.2302
      7 C         -13.4716   -2.4182   17.9581 C.ar    1  UNL1        0.0864
      8 C         -12.4624   -3.4425   18.3852 C.ar    1  UNL1        0.0199
      9 C         -11.1428   -2.7499   18.5555 C.ar    1  UNL1        0.0784
     10 S         -11.3365   -1.2977   18.2337 S.2     1  UNL1       -0.0712
     11 C         -12.7758   -1.0927   17.8645 C.ar    1  UNL1        0.0448
     12 N          -9.9353   -3.5312   18.9816 N.am    1  UNL1       -0.2791
     13 C         -10.0474   -5.0049   19.2375 C.2     1  UNL1        0.2271
     14 O          -8.8399   -5.7862   19.6636 O.2     1  UNL1       -0.2747
     15 C         -11.3671   -5.6974   19.0671 C.3     1  UNL1        0.0942
     16 C         -12.5746   -4.9162   18.6410 C.3     1  UNL1        0.0577
     17 H         -17.6675   -0.5997   16.6486 H       1  UNL1        0.1437
     18 H         -17.6208   -2.2720   16.9788 H       1  UNL1        0.1437
     19 H          -9.0692   -3.0766   19.0934 H       1  UNL1        0.1553
     20 C         -13.8942   -5.6087   18.4707 C.ar    1  UNL1       -0.0073
     21 C         -14.1583   -6.4279   17.2423 C.ar    1  UNL1       -0.0031
     22 C         -15.4779   -7.1204   17.0720 C.ar    1  UNL1       -0.0003
     23 C         -16.5335   -6.9937   18.1301 C.ar    1  UNL1        0.0008
     24 C         -16.2694   -6.1745   19.3586 C.ar    1  UNL1        0.0111
     25 C         -14.9497   -5.4820   19.5289 C.ar    1  UNL1        0.0540
     26 CL        -14.6857   -4.6628   20.7574 Cl      1  UNL1       -0.0826
     27 C         -15.7723    1.2491   16.7300 C.1     1  UNL1        0.1029
     28 N         -16.5392    2.4715   16.3206 N.1     1  UNL1       -0.1907
@<TRIPOS>BOND
     1     1     2    1
     2     2     3   ar
     3     3    27    1
     4    27    28    3
     5     3     4   ar
     6     4     5    1
     7     4     6   ar
     8     6     7   ar
     9     7     8   ar
    10     8     9   ar
    11     9    10   ar
    12    10    11   ar
    13     9    12    1
    14    12    13   am
    15    13    14    2
    16    13    15    1
    17    15    16    1
    18    16    20    1
    19    20    21   ar
    20    21    22   ar
    21    22    23   ar
    22    23    24   ar
    23    24    25   ar
    24    25    26    1
    25    11     2   ar
    26    25    20   ar
    27    11     7   ar
    28    16     8    1
    29     5    17    1
    30     5    18    1
    31    12    19    1
@<TRIPOS>MOLECULE
*****
 28 31 0 0 0
SMALL
GASTEIGER

@<TRIPOS>ATOM
      1 C         -10.3517   -5.5375   17.0862 C.3     1  UNL1        0.0324
      2 C         -11.7410   -5.0346   17.3448 C.ar    1  UNL1       -0.0020
      3 C         -12.0707   -3.5896   17.1139 C.ar    1  UNL1        0.0960
      4 C         -13.4600   -3.0868   17.3725 C.ar    1  UNL1        0.1347
      5 N         -13.7898   -1.6417   17.1416 N.pl3   1  UNL1       -0.3421
      6 N         -14.5197   -4.0289   17.8620 N.ar    1  UNL1       -0.2302
      7 C         -14.1900   -5.4739   18.0929 C.ar    1  UNL1        0.0864
      8 C         -15.0202   -6.6292   18.5684 C.ar    1  UNL1        0.0199
      9 C         -14.1439   -7.8461   18.6036 C.ar    1  UNL1        0.0784
     10 S         -12.7722   -7.4428   18.1499 S.2     1  UNL1       -0.0712
     11 C         -12.8007   -5.9767   17.8343 C.ar    1  UNL1        0.0448
     12 N         -14.7082   -9.1641   19.0443 N.am    1  UNL1       -0.2791
     13 C         -16.1488   -9.2653   19.4497 C.2     1  UNL1        0.2271
     14 O         -16.7132  -10.5834   19.8904 O.2     1  UNL1       -0.2747
     15 C         -17.0251   -8.0484   19.4145 C.3     1  UNL1        0.0942
     16 C         -16.4608   -6.7303   18.9738 C.3     1  UNL1        0.0577
     17 H         -13.0943   -1.0234   16.8203 H       1  UNL1        0.1437
     18 H         -14.7016   -1.3117   17.3113 H       1  UNL1        0.1437
     19 H         -14.1331   -9.9629   19.0674 H       1  UNL1        0.1553
     20 C         -17.3370   -5.5134   18.9385 C.ar    1  UNL1       -0.0073
     21 C         -17.3020   -4.5309   20.0714 C.ar    1  UNL1       -0.0031
     22 C         -18.1783   -3.3139   20.0361 C.ar    1  UNL1       -0.0003
     23 C         -19.0896   -3.0795   18.8680 C.ar    1  UNL1        0.0008
     24 C         -19.1246   -4.0621   17.7352 C.ar    1  UNL1        0.0111
     25 C         -18.2483   -5.2790   17.7704 C.ar    1  UNL1        0.0540
     26 CL        -18.2834   -6.2615   16.6375 Cl      1  UNL1       -0.0826
     27 C         -11.0111   -2.6475   16.6244 C.1     1  UNL1        0.1029
     28 N          -9.9514   -1.7054   16.1349 N.1     1  UNL1       -0.1907
@<TRIPOS>BOND
     1     1     2    1
     2     2     3   ar
     3     3    27    1
     4    27    28    3
     5     3     4   ar
     6     4     5    1
     7     4     6   ar
     8     6     7   ar
     9     7     8   ar
    10     8     9   ar
    11     9    10   ar
    12    10    11   ar
    13     9    12    1
    14    12    13   am
    15    13    14    2
    16    13    15    1
    17    15    16    1
    18    16    20    1
    19    20    21   ar
    20    21    22   ar
    21    22    23   ar
    22    23    24   ar
    23    24    25   ar
    24    25    26    1
    25    11     2   ar
    26    25    20   ar
    27    11     7   ar
    28    16     8    1
    29     5    17    1
    30     5    18    1
    31    12    19    1
