@<TRIPOS>MOLECULE
*****
 39 43 0 0 0
SMALL
GASTEIGER

@<TRIPOS>ATOM
      1 C           1.2581    1.4266   31.2292 C.ar    1  UNL1        0.0655
      2 C           0.4869    1.3455   29.9452 C.ar    1  UNL1        0.0337
      3 C           0.9607    0.4475   28.8410 C.ar    1  UNL1        0.0862
      4 C           2.2058   -0.3694   29.0209 C.ar    1  UNL1        0.1534
      5 C           2.9771   -0.2883   30.3049 C.ar    1  UNL1        0.0539
      6 C           2.5032    0.6096   31.4091 C.ar    1  UNL1        0.0647
      7 C           0.8670    3.8140   32.1763 C.2     1  UNL1        0.2497
      8 O           1.2209    4.4755   31.3807 O.2     1  UNL1       -0.2698
      9 N           0.7843    2.3246   32.3333 N.am    1  UNL1       -0.2794
     10 H           0.4190    1.9364   33.1610 H       1  UNL1        0.1552
     11 C          -0.8996    5.4591   33.1369 C.2     1  UNL1        0.0048
     12 C           0.3932    4.7121   33.2803 C.2     1  UNL1        0.0580
     13 N           3.2745    0.6906   32.6930 N.pl3   1  UNL1       -0.3036
     14 C           3.7282    1.8044   33.5894 C.3     1  UNL1        0.1085
     15 C           4.3653    0.8051   34.5088 C.3     1  UNL1        0.0973
     16 C           3.9116   -0.3087   33.6125 C.3     1  UNL1        0.1085
     17 N           5.1366    0.8860   35.7928 N.3     1  UNL1       -0.2686
     18 C           6.5773    1.3035   35.7772 C.3     1  UNL1        0.0897
     19 C           4.4674    0.5493   37.0922 C.3     1  UNL1        0.0897
     20 N           0.1895    0.3665   27.5571 N.pl3   1  UNL1       -0.2801
     21 H          -0.1145   -0.5070   27.2197 H       1  UNL1        0.1552
     22 C          -0.1187    1.6164   26.7871 C.ar    1  UNL1        0.2208
     23 N           0.9693    2.3181   26.0296 N.ar    1  UNL1       -0.2111
     24 C           0.6611    3.5679   25.2596 C.ar    1  UNL1        0.1147
     25 C          -0.7351    4.1161   25.2472 C.ar    1  UNL1        0.0946
     26 CL         -1.0433    5.3659   24.4772 Cl      1  UNL1       -0.0790
     27 C          -1.8232    3.4143   26.0047 C.ar    1  UNL1        0.0992
     28 N          -1.5149    2.1645   26.7747 N.ar    1  UNL1       -0.2126
     29 C          -3.2194    3.9625   25.9923 C.ar    1  UNL1        0.0572
     30 C          -3.8910    4.6901   27.1190 C.ar    1  UNL1        0.1235
     31 N          -5.2758    5.0566   26.6739 N.ar    1  UNL1       -0.1634
     32 N          -5.4600    4.5554   25.2721 N.ar    1  UNL1       -0.2281
     33 C          -6.6208    4.6274   24.3249 C.ar    1  UNL1        0.1004
     34 C          -6.5107    4.0232   22.9565 C.ar    1  UNL1        0.0207
     35 C          -5.2398    3.3470   22.5352 C.ar    1  UNL1        0.0031
     36 C          -4.0790    3.2750   23.4824 C.ar    1  UNL1        0.0193
     37 C          -4.1891    3.8792   24.8509 C.ar    1  UNL1        0.0858
     38 O           2.6797   -1.2674   27.9168 O.3     1  UNL1       -0.4701
     39 C           4.1366   -1.3165   27.5631 C.3     1  UNL1        0.2525
@<TRIPOS>BOND
     1    11    12    2
     2    12     7    1
     3     7     8    2
     4     7     9   am
     5     9     1    1
     6     1     2   ar
     7     2     3   ar
     8     3    20    1
     9    20    22    1
    10    22    23   ar
    11    23    24   ar
    12    24    25   ar
    13    25    26    1
    14    25    27   ar
    15    27    29    1
    16    29    30   ar
    17    30    31   ar
    18    31    32   ar
    19    32    33   ar
    20    33    34   ar
    21    34    35   ar
    22    35    36   ar
    23    36    37   ar
    24    27    28   ar
    25     3     4   ar
    26     4    38    1
    27    38    39    1
    28     4     5   ar
    29     5     6   ar
    30     6    13    1
    31    13    14    1
    32    14    15    1
    33    15    17    1
    34    17    18    1
    35    17    19    1
    36    15    16    1
    37     6     1   ar
    38    16    13    1
    39    28    22   ar
    40    37    29   ar
    41    37    32   ar
    42     9    10    1
    43    20    21    1
@<TRIPOS>MOLECULE
*****
 39 43 0 0 0
SMALL
GASTEIGER

@<TRIPOS>ATOM
      1 C           5.1194   -1.0446   30.5338 C.ar    1  UNL1        0.0655
      2 C           4.7413   -1.2308   29.0943 C.ar    1  UNL1        0.0337
      3 C           3.3503   -0.9060   28.6360 C.ar    1  UNL1        0.0862
      4 C           2.3376   -0.3950   29.6174 C.ar    1  UNL1        0.1534
      5 C           2.7157   -0.2088   31.0571 C.ar    1  UNL1        0.0539
      6 C           4.1066   -0.5336   31.5152 C.ar    1  UNL1        0.0647
      7 C           6.7938   -2.6853   31.6537 C.2     1  UNL1        0.2497
      8 O           6.1811   -3.5535   31.9118 O.2     1  UNL1       -0.2698
      9 N           6.5103   -1.3694   30.9920 N.am    1  UNL1       -0.2794
     10 H           7.2371   -0.7188   30.8584 H       1  UNL1        0.1552
     11 C           8.9838   -4.0596   31.3977 C.2     1  UNL1        0.0048
     12 C           8.1847   -3.0102   32.1119 C.2     1  UNL1        0.0580
     13 N           4.4846   -0.3474   32.9548 N.pl3   1  UNL1       -0.3036
     14 C           5.0287    0.7879   33.7703 C.3     1  UNL1        0.1085
     15 C           5.0192   -0.0841   34.9907 C.3     1  UNL1        0.0973
     16 C           4.4751   -1.2194   34.1752 C.3     1  UNL1        0.1085
     17 N           5.3972    0.1020   36.4303 N.3     1  UNL1       -0.2686
     18 C           4.3904    0.6328   37.4075 C.3     1  UNL1        0.0897
     19 C           6.7818   -0.2426   36.8928 C.3     1  UNL1        0.0897
     20 N           2.9723   -1.0922   27.1965 N.pl3   1  UNL1       -0.2801
     21 H           2.0743   -1.4205   26.9619 H       1  UNL1        0.1552
     22 C           3.9625   -0.7783   26.1143 C.ar    1  UNL1        0.2208
     23 N           4.6350    0.5620   26.0789 N.ar    1  UNL1       -0.2111
     24 C           5.6251    0.8759   24.9967 C.ar    1  UNL1        0.1147
     25 C           5.9428   -0.1505   23.9500 C.ar    1  UNL1        0.0946
     26 CL          6.9329    0.1634   22.8679 Cl      1  UNL1       -0.0790
     27 C           5.2702   -1.4909   23.9855 C.ar    1  UNL1        0.0992
     28 N           4.2801   -1.8047   25.0676 N.ar    1  UNL1       -0.2126
     29 C           5.5878   -2.5173   22.9387 C.ar    1  UNL1        0.0572
     30 C           6.6702   -3.5527   23.0190 C.ar    1  UNL1        0.1235
     31 N           6.6301   -4.3638   21.7578 N.ar    1  UNL1       -0.1634
     32 N           5.5230   -3.8297   20.8981 N.ar    1  UNL1       -0.2281
     33 C           5.0183   -4.2350   19.5451 C.ar    1  UNL1        0.1004
     34 C           3.8693   -3.4992   18.9218 C.ar    1  UNL1        0.0207
     35 C           3.2252   -2.3579   19.6517 C.ar    1  UNL1        0.0031
     36 C           3.7299   -1.9526   21.0048 C.ar    1  UNL1        0.0193
     37 C           4.8788   -2.6885   21.6280 C.ar    1  UNL1        0.0858
     38 O           0.9467   -0.0702   29.1592 O.3     1  UNL1       -0.4701
     39 C           0.3078    1.2258   29.5618 C.3     1  UNL1        0.2525
@<TRIPOS>BOND
     1    11    12    2
     2    12     7    1
     3     7     8    2
     4     7     9   am
     5     9     1    1
     6     1     2   ar
     7     2     3   ar
     8     3    20    1
     9    20    22    1
    10    22    23   ar
    11    23    24   ar
    12    24    25   ar
    13    25    26    1
    14    25    27   ar
    15    27    29    1
    16    29    30   ar
    17    30    31   ar
    18    31    32   ar
    19    32    33   ar
    20    33    34   ar
    21    34    35   ar
    22    35    36   ar
    23    36    37   ar
    24    27    28   ar
    25     3     4   ar
    26     4    38    1
    27    38    39    1
    28     4     5   ar
    29     5     6   ar
    30     6    13    1
    31    13    14    1
    32    14    15    1
    33    15    17    1
    34    17    18    1
    35    17    19    1
    36    15    16    1
    37     6     1   ar
    38    16    13    1
    39    28    22   ar
    40    37    29   ar
    41    37    32   ar
    42     9    10    1
    43    20    21    1
@<TRIPOS>MOLECULE
*****
 39 43 0 0 0
SMALL
GASTEIGER

@<TRIPOS>ATOM
      1 C         -14.5816   -5.1546   18.6522 C.ar    1  UNL1        0.0655
      2 C         -13.6568   -3.9775   18.7477 C.ar    1  UNL1        0.0337
      3 C         -12.1853   -4.1937   18.9428 C.ar    1  UNL1        0.0862
      4 C         -11.6387   -5.5870   19.0424 C.ar    1  UNL1        0.1534
      5 C         -12.5636   -6.7642   18.9469 C.ar    1  UNL1        0.0539
      6 C         -14.0351   -6.5479   18.7518 C.ar    1  UNL1        0.0647
      7 C         -16.8751   -4.3367   19.5581 C.2     1  UNL1        0.2497
      8 O         -16.6494   -3.9808   20.5672 O.2     1  UNL1       -0.2698
      9 N         -16.0531   -4.9383   18.4571 N.am    1  UNL1       -0.2794
     10 H         -16.4793   -5.1913   17.6065 H       1  UNL1        0.1552
     11 C         -19.0710   -3.1005   20.1907 C.2     1  UNL1        0.0048
     12 C         -18.3466   -4.1204   19.3631 C.2     1  UNL1        0.0580
     13 N         -14.9599   -7.7250   18.6563 N.pl3   1  UNL1       -0.3036
     14 C         -16.0388   -8.2995   19.5256 C.3     1  UNL1        0.1085
     15 C         -16.2677   -9.3898   18.5211 C.3     1  UNL1        0.0973
     16 C         -15.1888   -8.8152   17.6518 C.3     1  UNL1        0.1085
     17 N         -17.1925  -10.5669   18.4255 N.3     1  UNL1       -0.2686
     18 C         -18.5266  -10.4200   17.7556 C.3     1  UNL1        0.0897
     19 C         -16.7832  -11.8907   18.9997 C.3     1  UNL1        0.0897
     20 N         -11.2605   -3.0166   19.0383 N.pl3   1  UNL1       -0.2801
     21 H         -10.3936   -3.1076   19.4960 H       1  UNL1        0.1552
     22 C         -11.6564   -1.7009   18.4365 C.ar    1  UNL1        0.2208
     23 N         -10.7085   -0.9765   17.5274 N.ar    1  UNL1       -0.2111
     24 C         -11.1044    0.3392   16.9256 C.ar    1  UNL1        0.1147
     25 C         -12.4483    0.9305   17.2330 C.ar    1  UNL1        0.0946
     26 CL        -12.8442    2.2461   16.6312 Cl      1  UNL1       -0.0790
     27 C         -13.3963    0.2059   18.1422 C.ar    1  UNL1        0.0992
     28 N         -13.0003   -1.1097   18.7439 N.ar    1  UNL1       -0.2126
     29 C         -14.7401    0.7972   18.4495 C.ar    1  UNL1        0.0572
     30 C         -14.9924    2.0646   19.2110 C.ar    1  UNL1        0.1235
     31 N         -16.4759    2.2755   19.2814 N.ar    1  UNL1       -0.1634
     32 N         -17.1404    1.1384   18.5635 N.ar    1  UNL1       -0.2281
     33 C         -18.5836    0.8169   18.3115 C.ar    1  UNL1        0.1004
     34 C         -18.9541   -0.4183   17.5453 C.ar    1  UNL1        0.0207
     35 C         -17.8814   -1.3319   17.0312 C.ar    1  UNL1        0.0031
     36 C         -16.4381   -1.0104   17.2832 C.ar    1  UNL1        0.0193
     37 C         -16.0676    0.2247   18.0493 C.ar    1  UNL1        0.0858
     38 O         -10.1672   -5.8033   19.2375 O.3     1  UNL1       -0.4701
     39 C          -9.5707   -7.1593   19.0020 C.3     1  UNL1        0.2525
@<TRIPOS>BOND
     1    11    12    2
     2    12     7    1
     3     7     8    2
     4     7     9   am
     5     9     1    1
     6     1     2   ar
     7     2     3   ar
     8     3    20    1
     9    20    22    1
    10    22    23   ar
    11    23    24   ar
    12    24    25   ar
    13    25    26    1
    14    25    27   ar
    15    27    29    1
    16    29    30   ar
    17    30    31   ar
    18    31    32   ar
    19    32    33   ar
    20    33    34   ar
    21    34    35   ar
    22    35    36   ar
    23    36    37   ar
    24    27    28   ar
    25     3     4   ar
    26     4    38    1
    27    38    39    1
    28     4     5   ar
    29     5     6   ar
    30     6    13    1
    31    13    14    1
    32    14    15    1
    33    15    17    1
    34    17    18    1
    35    17    19    1
    36    15    16    1
    37     6     1   ar
    38    16    13    1
    39    28    22   ar
    40    37    29   ar
    41    37    32   ar
    42     9    10    1
    43    20    21    1
@<TRIPOS>MOLECULE
*****
 39 43 0 0 0
SMALL
GASTEIGER

@<TRIPOS>ATOM
      1 C          -0.0266    2.4860   24.1630 C.ar    1  UNL1        0.0655
      2 C           1.0064    1.6108   24.8088 C.ar    1  UNL1        0.0337
      3 C           0.8530    1.2034   26.2443 C.ar    1  UNL1        0.0862
      4 C          -0.3334    1.6712   27.0339 C.ar    1  UNL1        0.1534
      5 C          -1.3664    2.5464   26.3881 C.ar    1  UNL1        0.0539
      6 C          -1.2130    2.9538   24.9527 C.ar    1  UNL1        0.0647
      7 C           0.1516    1.8497   21.6504 C.2     1  UNL1        0.2497
      8 O           0.0788    0.7587   21.6479 O.2     1  UNL1       -0.2698
      9 N           0.1269    2.8933   22.7275 N.am    1  UNL1       -0.2794
     10 H           0.2113    3.8456   22.4924 H       1  UNL1        0.1552
     11 C           0.8237    1.2740   19.2076 C.2     1  UNL1        0.0048
     12 C           0.3051    2.2570   20.2149 C.2     1  UNL1        0.0580
     13 N          -2.2459    3.8289   24.3070 N.pl3   1  UNL1       -0.3036
     14 C          -2.4617    5.3090   24.1941 C.3     1  UNL1        0.1085
     15 C          -3.7069    5.0666   23.3938 C.3     1  UNL1        0.0973
     16 C          -3.4912    3.5865   23.5066 C.3     1  UNL1        0.1085
     17 N          -4.7400    5.9417   22.7481 N.3     1  UNL1       -0.2686
     18 C          -5.9350    6.3956   23.5329 C.3     1  UNL1        0.0897
     19 C          -4.5781    6.3629   21.3176 C.3     1  UNL1        0.0897
     20 N           1.8860    0.3282   26.8899 N.pl3   1  UNL1       -0.2801
     21 H           1.6896   -0.1150   27.7468 H       1  UNL1        0.1552
     22 C           3.2182    0.1283   26.2302 C.ar    1  UNL1        0.2208
     23 N           4.3685    1.0269   26.5756 N.ar    1  UNL1       -0.2111
     24 C           5.7007    0.8270   25.9158 C.ar    1  UNL1        0.1147
     25 C           5.8826   -0.2715   24.9106 C.ar    1  UNL1        0.0946
     26 CL          7.2148   -0.4714   24.2509 Cl      1  UNL1       -0.0790
     27 C           4.7322   -1.1701   24.5652 C.ar    1  UNL1        0.0992
     28 N           3.4001   -0.9701   25.2250 N.ar    1  UNL1       -0.2126
     29 C           4.9140   -2.2685   23.5600 C.ar    1  UNL1        0.0572
     30 C           5.7318   -3.5114   23.7505 C.ar    1  UNL1        0.1235
     31 N           5.6332   -4.3279   22.4961 N.ar    1  UNL1       -0.1634
     32 N           4.7544   -3.5897   21.5304 N.ar    1  UNL1       -0.2281
     33 C           4.3015   -3.9120   20.1372 C.ar    1  UNL1        0.1004
     34 C           3.4042   -2.9614   19.4016 C.ar    1  UNL1        0.0207
     35 C           2.9597   -1.6886   20.0591 C.ar    1  UNL1        0.0031
     36 C           3.4125   -1.3663   21.4523 C.ar    1  UNL1        0.0193
     37 C           4.3099   -2.3169   22.1879 C.ar    1  UNL1        0.0858
     38 O          -0.4868    1.2638   28.4694 O.3     1  UNL1       -0.4701
     39 C          -1.4005    0.1315   28.8341 C.3     1  UNL1        0.2525
@<TRIPOS>BOND
     1    11    12    2
     2    12     7    1
     3     7     8    2
     4     7     9   am
     5     9     1    1
     6     1     2   ar
     7     2     3   ar
     8     3    20    1
     9    20    22    1
    10    22    23   ar
    11    23    24   ar
    12    24    25   ar
    13    25    26    1
    14    25    27   ar
    15    27    29    1
    16    29    30   ar
    17    30    31   ar
    18    31    32   ar
    19    32    33   ar
    20    33    34   ar
    21    34    35   ar
    22    35    36   ar
    23    36    37   ar
    24    27    28   ar
    25     3     4   ar
    26     4    38    1
    27    38    39    1
    28     4     5   ar
    29     5     6   ar
    30     6    13    1
    31    13    14    1
    32    14    15    1
    33    15    17    1
    34    17    18    1
    35    17    19    1
    36    15    16    1
    37     6     1   ar
    38    16    13    1
    39    28    22   ar
    40    37    29   ar
    41    37    32   ar
    42     9    10    1
    43    20    21    1
@<TRIPOS>MOLECULE
*****
 39 43 0 0 0
SMALL
GASTEIGER

@<TRIPOS>ATOM
      1 C           6.1464   -3.2332   25.1218 C.ar    1  UNL1        0.0655
      2 C           6.1082   -3.0914   23.6290 C.ar    1  UNL1        0.0337
      3 C           6.8452   -4.0700   22.7635 C.ar    1  UNL1        0.0862
      4 C           7.6205   -5.1905   23.3908 C.ar    1  UNL1        0.1534
      5 C           7.6587   -5.3323   24.8837 C.ar    1  UNL1        0.0539
      6 C           6.9216   -4.3537   25.7491 C.ar    1  UNL1        0.0647
      7 C           4.2269   -1.5116   25.4399 C.2     1  UNL1        0.2497
      8 O           3.7163   -1.5029   24.4729 O.2     1  UNL1       -0.2698
      9 N           5.4094   -2.2545   25.9873 N.am    1  UNL1       -0.2794
     10 H           5.7017   -2.0999   26.9146 H       1  UNL1        0.1552
     11 C           3.3267   -0.8028   27.7717 C.2     1  UNL1        0.0048
     12 C           3.4898   -0.5329   26.3053 C.2     1  UNL1        0.0580
     13 N           6.9599   -4.4956   27.2419 N.pl3   1  UNL1       -0.3036
     14 C           6.1343   -5.2255   28.2595 C.3     1  UNL1        0.1085
     15 C           7.0140   -4.6962   29.3530 C.3     1  UNL1        0.0973
     16 C           7.8396   -3.9663   28.3354 C.3     1  UNL1        0.1085
     17 N           7.0524   -4.8380   30.8458 N.3     1  UNL1       -0.2686
     18 C           6.5138   -3.7423   31.7173 C.3     1  UNL1        0.0897
     19 C           7.6292   -6.0754   31.4671 C.3     1  UNL1        0.0897
     20 N           6.8070   -3.9281   21.2707 N.pl3   1  UNL1       -0.2801
     21 H           6.8929   -4.7244   20.6982 H       1  UNL1        0.1552
     22 C           6.6379   -2.5730   20.6502 C.ar    1  UNL1        0.2208
     23 N           7.8402   -1.7212   20.3696 N.ar    1  UNL1       -0.2111
     24 C           7.6711   -0.3661   19.7491 C.ar    1  UNL1        0.1147
     25 C           6.2995    0.1372   19.4091 C.ar    1  UNL1        0.0946
     26 CL          6.1304    1.4923   18.7886 Cl      1  UNL1       -0.0790
     27 C           5.0971   -0.7146   19.6897 C.ar    1  UNL1        0.0992
     28 N           5.2663   -2.0697   20.3102 N.ar    1  UNL1       -0.2126
     29 C           3.7256   -0.2113   19.3498 C.ar    1  UNL1        0.0572
     30 C           3.1312   -0.1319   17.9748 C.ar    1  UNL1        0.1235
     31 N           1.7459    0.4294   18.1005 N.ar    1  UNL1       -0.1634
     32 N           1.4841    0.6970   19.5530 N.ar    1  UNL1       -0.2281
     33 C           0.2897    1.2500   20.2723 C.ar    1  UNL1        0.1004
     34 C           0.3187    1.4071   21.7637 C.ar    1  UNL1        0.0207
     35 C           1.5422    1.0111   22.5359 C.ar    1  UNL1        0.0031
     36 C           2.7367    0.4580   21.8166 C.ar    1  UNL1        0.0193
     37 C           2.7076    0.3010   20.3251 C.ar    1  UNL1        0.0858
     38 O           8.3575   -6.1691   22.5253 O.3     1  UNL1       -0.4701
     39 C           9.1264   -7.2941   23.1524 C.3     1  UNL1        0.2525
@<TRIPOS>BOND
     1    11    12    2
     2    12     7    1
     3     7     8    2
     4     7     9   am
     5     9     1    1
     6     1     2   ar
     7     2     3   ar
     8     3    20    1
     9    20    22    1
    10    22    23   ar
    11    23    24   ar
    12    24    25   ar
    13    25    26    1
    14    25    27   ar
    15    27    29    1
    16    29    30   ar
    17    30    31   ar
    18    31    32   ar
    19    32    33   ar
    20    33    34   ar
    21    34    35   ar
    22    35    36   ar
    23    36    37   ar
    24    27    28   ar
    25     3     4   ar
    26     4    38    1
    27    38    39    1
    28     4     5   ar
    29     5     6   ar
    30     6    13    1
    31    13    14    1
    32    14    15    1
    33    15    17    1
    34    17    18    1
    35    17    19    1
    36    15    16    1
    37     6     1   ar
    38    16    13    1
    39    28    22   ar
    40    37    29   ar
    41    37    32   ar
    42     9    10    1
    43    20    21    1
@<TRIPOS>MOLECULE
*****
 39 43 0 0 0
SMALL
GASTEIGER

@<TRIPOS>ATOM
      1 C           6.0435   -1.6156   25.3943 C.ar    1  UNL1        0.0655
      2 C           6.6046   -1.4086   26.7699 C.ar    1  UNL1        0.0337
      3 C           7.3280   -2.5262   27.4610 C.ar    1  UNL1        0.0862
      4 C           7.4902   -3.8510   26.7764 C.ar    1  UNL1        0.1534
      5 C           6.9291   -4.0580   25.4007 C.ar    1  UNL1        0.0539
      6 C           6.2057   -2.9403   24.7097 C.ar    1  UNL1        0.0647
      7 C           3.9262   -0.1348   25.1219 C.2     1  UNL1        0.2497
      8 O           3.2363   -0.5177   25.8790 O.2     1  UNL1       -0.2698
      9 N           5.3201   -0.4979   24.7033 N.am    1  UNL1       -0.2794
     10 H           5.7601   -0.0026   23.9751 H       1  UNL1        0.1552
     11 C           1.8006    1.3313   24.8342 C.2     1  UNL1        0.0048
     12 C           3.2027    0.9829   24.4310 C.2     1  UNL1        0.0580
     13 N           5.6447   -3.1475   23.3342 N.pl3   1  UNL1       -0.3036
     14 C           6.2141   -3.5483   22.0056 C.3     1  UNL1        0.1085
     15 C           4.8511   -3.4404   21.3888 C.3     1  UNL1        0.0973
     16 C           4.2817   -3.0396   22.7173 C.3     1  UNL1        0.1085
     17 N           4.2899   -3.6475   20.0132 N.3     1  UNL1       -0.2686
     18 C           3.6902   -4.9706   19.6393 C.3     1  UNL1        0.0897
     19 C           4.3285   -2.5316   19.0116 C.3     1  UNL1        0.0897
     20 N           7.8890   -2.3191   28.8366 N.pl3   1  UNL1       -0.2801
     21 H           8.8479   -2.1292   28.9536 H       1  UNL1        0.1552
     22 C           6.9892   -2.4013   30.0339 C.ar    1  UNL1        0.2208
     23 N           7.1173   -3.5490   30.9910 N.ar    1  UNL1       -0.2111
     24 C           6.2174   -3.6312   32.1883 C.ar    1  UNL1        0.1147
     25 C           5.1894   -2.5656   32.4284 C.ar    1  UNL1        0.0946
     26 CL          4.2896   -2.6477   33.6257 Cl      1  UNL1       -0.0790
     27 C           5.0613   -1.4177   31.4712 C.ar    1  UNL1        0.0992
     28 N           5.9612   -1.3356   30.2740 N.ar    1  UNL1       -0.2126
     29 C           4.0333   -0.3521   31.7114 C.ar    1  UNL1        0.0572
     30 C           3.9822    0.5740   32.8903 C.ar    1  UNL1        0.1235
     31 N           2.7932    1.4729   32.7222 N.ar    1  UNL1       -0.1634
     32 N           2.1096    1.1025   31.4395 N.ar    1  UNL1       -0.2281
     33 C           0.8882    1.6465   30.7596 C.ar    1  UNL1        0.1004
     34 C           0.4333    1.0626   29.4550 C.ar    1  UNL1        0.0207
     35 C           1.1997   -0.0653   28.8303 C.ar    1  UNL1        0.0031
     36 C           2.4211   -0.6094   29.5101 C.ar    1  UNL1        0.0193
     37 C           2.8760   -0.0254   30.8147 C.ar    1  UNL1        0.0858
     38 O           8.2136   -4.9687   27.4674 O.3     1  UNL1       -0.4701
     39 C           7.4400   -6.0120   28.2178 C.3     1  UNL1        0.2525
@<TRIPOS>BOND
     1    11    12    2
     2    12     7    1
     3     7     8    2
     4     7     9   am
     5     9     1    1
     6     1     2   ar
     7     2     3   ar
     8     3    20    1
     9    20    22    1
    10    22    23   ar
    11    23    24   ar
    12    24    25   ar
    13    25    26    1
    14    25    27   ar
    15    27    29    1
    16    29    30   ar
    17    30    31   ar
    18    31    32   ar
    19    32    33   ar
    20    33    34   ar
    21    34    35   ar
    22    35    36   ar
    23    36    37   ar
    24    27    28   ar
    25     3     4   ar
    26     4    38    1
    27    38    39    1
    28     4     5   ar
    29     5     6   ar
    30     6    13    1
    31    13    14    1
    32    14    15    1
    33    15    17    1
    34    17    18    1
    35    17    19    1
    36    15    16    1
    37     6     1   ar
    38    16    13    1
    39    28    22   ar
    40    37    29   ar
    41    37    32   ar
    42     9    10    1
    43    20    21    1
@<TRIPOS>MOLECULE
*****
 39 43 0 0 0
SMALL
GASTEIGER

@<TRIPOS>ATOM
      1 C           3.1692   -0.8036   29.8904 C.ar    1  UNL1        0.0655
      2 C           3.3099   -1.0909   31.3559 C.ar    1  UNL1        0.0337
      3 C           4.6595   -1.3984   31.9339 C.ar    1  UNL1        0.0862
      4 C           5.8685   -1.4185   31.0463 C.ar    1  UNL1        0.1534
      5 C           5.7279   -1.1312   29.5807 C.ar    1  UNL1        0.0539
      6 C           4.3782   -0.8237   29.0028 C.ar    1  UNL1        0.0647
      7 C           0.9724    0.5831   29.9188 C.2     1  UNL1        0.2497
      8 O           1.1040    1.2702   30.7593 O.2     1  UNL1       -0.2698
      9 N           1.8196   -0.4961   29.3126 N.am    1  UNL1       -0.2794
     10 H           1.4898   -1.0026   28.5354 H       1  UNL1        0.1552
     11 C          -1.3383   -0.2227   29.0461 C.2     1  UNL1        0.0048
     12 C          -0.3773    0.8906   29.3410 C.2     1  UNL1        0.0580
     13 N           4.2377   -0.5364   27.5374 N.pl3   1  UNL1       -0.3036
     14 C           4.3048   -1.3579   26.2842 C.3     1  UNL1        0.1085
     15 C           4.0389   -0.1299   25.4648 C.3     1  UNL1        0.0973
     16 C           3.9718    0.6916   26.7180 C.3     1  UNL1        0.1085
     17 N           3.8984    0.1576   23.9994 N.3     1  UNL1       -0.2686
     18 C           5.1058    0.5225   23.1875 C.3     1  UNL1        0.0897
     19 C           2.5506    0.0801   23.3458 C.3     1  UNL1        0.0897
     20 N           4.8000   -1.6857   33.3993 N.pl3   1  UNL1       -0.2801
     21 H           4.6659   -2.6009   33.7366 H       1  UNL1        0.1552
     22 C           5.1450   -0.5788   34.3510 C.ar    1  UNL1        0.2208
     23 N           6.5795   -0.3009   34.6898 N.ar    1  UNL1       -0.2111
     24 C           6.9245    0.8061   35.6415 C.ar    1  UNL1        0.1147
     25 C           5.8349    1.6350   36.2544 C.ar    1  UNL1        0.0946
     26 CL          6.1799    2.7420   37.2060 Cl      1  UNL1       -0.0790
     27 C           4.4003    1.3570   35.9155 C.ar    1  UNL1        0.0992
     28 N           4.0554    0.2501   34.9639 N.ar    1  UNL1       -0.2126
     29 C           3.3107    2.1860   36.5284 C.ar    1  UNL1        0.0572
     30 C           2.8635    3.5393   36.0609 C.ar    1  UNL1        0.1235
     31 N           1.7535    3.9968   36.9600 N.ar    1  UNL1       -0.1634
     32 N           1.5145    2.9263   37.9832 N.ar    1  UNL1       -0.2281
     33 C           0.5450    2.8260   39.1233 C.ar    1  UNL1        0.1004
     34 C           0.5379    1.6066   39.9966 C.ar    1  UNL1        0.0207
     35 C           1.5003    0.4874   39.7299 C.ar    1  UNL1        0.0031
     36 C           2.4699    0.5877   38.5898 C.ar    1  UNL1        0.0193
     37 C           2.4770    1.8071   37.7165 C.ar    1  UNL1        0.0858
     38 O           7.2182   -1.7260   31.6241 O.3     1  UNL1       -0.4701
     39 C           8.3887   -1.9561   30.7148 C.3     1  UNL1        0.2525
@<TRIPOS>BOND
     1    11    12    2
     2    12     7    1
     3     7     8    2
     4     7     9   am
     5     9     1    1
     6     1     2   ar
     7     2     3   ar
     8     3    20    1
     9    20    22    1
    10    22    23   ar
    11    23    24   ar
    12    24    25   ar
    13    25    26    1
    14    25    27   ar
    15    27    29    1
    16    29    30   ar
    17    30    31   ar
    18    31    32   ar
    19    32    33   ar
    20    33    34   ar
    21    34    35   ar
    22    35    36   ar
    23    36    37   ar
    24    27    28   ar
    25     3     4   ar
    26     4    38    1
    27    38    39    1
    28     4     5   ar
    29     5     6   ar
    30     6    13    1
    31    13    14    1
    32    14    15    1
    33    15    17    1
    34    17    18    1
    35    17    19    1
    36    15    16    1
    37     6     1   ar
    38    16    13    1
    39    28    22   ar
    40    37    29   ar
    41    37    32   ar
    42     9    10    1
    43    20    21    1
@<TRIPOS>MOLECULE
*****
 39 43 0 0 0
SMALL
GASTEIGER

@<TRIPOS>ATOM
      1 C         -15.1621   -5.0441   19.3742 C.ar    1  UNL1        0.0655
      2 C         -14.3484   -3.8000   19.5743 C.ar    1  UNL1        0.0337
      3 C         -12.8504   -3.8700   19.5409 C.ar    1  UNL1        0.0862
      4 C         -12.1661   -5.1842   19.3074 C.ar    1  UNL1        0.1534
      5 C         -12.9799   -6.4284   19.1073 C.ar    1  UNL1        0.0539
      6 C         -14.4779   -6.3583   19.1407 C.ar    1  UNL1        0.0647
      7 C         -17.4374   -4.9264   18.1256 C.2     1  UNL1        0.2497
      8 O         -17.1594   -4.9303   17.0680 O.2     1  UNL1       -0.2698
      9 N         -16.6601   -4.9740   19.4076 N.am    1  UNL1       -0.2794
     10 H         -17.1331   -4.9592   20.2709 H       1  UNL1        0.1552
     11 C         -19.6469   -4.6282   19.4596 C.2     1  UNL1        0.0048
     12 C         -18.9354   -4.8563   18.1589 C.2     1  UNL1        0.0580
     13 N         -15.2915   -7.6025   18.9407 N.pl3   1  UNL1       -0.3036
     14 C         -15.5215   -8.5471   17.7985 C.3     1  UNL1        0.1085
     15 C         -16.4422   -9.3620   18.6578 C.3     1  UNL1        0.0973
     16 C         -16.2121   -8.4173   19.8000 C.3     1  UNL1        0.1085
     17 N         -17.2558  -10.6062   18.4578 N.3     1  UNL1       -0.2686
     18 C         -16.7083  -11.9367   18.8824 C.3     1  UNL1        0.0897
     19 C         -18.6168  -10.5199   17.8334 C.3     1  UNL1        0.0897
     20 N         -12.0368   -2.6259   19.7410 N.pl3   1  UNL1       -0.2801
     21 H         -11.3982   -2.5702   20.4882 H       1  UNL1        0.1552
     22 C         -12.1960   -1.4665   18.8026 C.ar    1  UNL1        0.2208
     23 N         -11.0082   -0.9391   18.0537 N.ar    1  UNL1       -0.2111
     24 C         -11.1674    0.2202   17.1154 C.ar    1  UNL1        0.1147
     25 C         -12.5145    0.8521   16.9258 C.ar    1  UNL1        0.0946
     26 CL        -12.6738    2.0115   15.9874 Cl      1  UNL1       -0.0790
     27 C         -13.7025    0.3247   17.6747 C.ar    1  UNL1        0.0992
     28 N         -13.5432   -0.8346   18.6130 N.ar    1  UNL1       -0.2126
     29 C         -15.0496    0.9566   17.4851 C.ar    1  UNL1        0.0572
     30 C         -16.0029    0.6799   16.3605 C.ar    1  UNL1        0.1235
     31 N         -17.2224    1.5285   16.5673 N.ar    1  UNL1       -0.1634
     32 N         -17.0228    2.3296   17.8196 N.ar    1  UNL1       -0.2281
     33 C         -17.8903    3.3353   18.5168 C.ar    1  UNL1        0.1004
     34 C         -17.4150    3.9874   19.7811 C.ar    1  UNL1        0.0207
     35 C         -16.0721    3.6340   20.3484 C.ar    1  UNL1        0.0031
     36 C         -15.2046    2.6283   19.6513 C.ar    1  UNL1        0.0193
     37 C         -15.6799    1.9762   18.3869 C.ar    1  UNL1        0.0858
     38 O         -10.6681   -5.2544   19.2740 O.3     1  UNL1       -0.4701
     39 C          -9.9383   -5.0874   17.9742 C.3     1  UNL1        0.2525
@<TRIPOS>BOND
     1    11    12    2
     2    12     7    1
     3     7     8    2
     4     7     9   am
     5     9     1    1
     6     1     2   ar
     7     2     3   ar
     8     3    20    1
     9    20    22    1
    10    22    23   ar
    11    23    24   ar
    12    24    25   ar
    13    25    26    1
    14    25    27   ar
    15    27    29    1
    16    29    30   ar
    17    30    31   ar
    18    31    32   ar
    19    32    33   ar
    20    33    34   ar
    21    34    35   ar
    22    35    36   ar
    23    36    37   ar
    24    27    28   ar
    25     3     4   ar
    26     4    38    1
    27    38    39    1
    28     4     5   ar
    29     5     6   ar
    30     6    13    1
    31    13    14    1
    32    14    15    1
    33    15    17    1
    34    17    18    1
    35    17    19    1
    36    15    16    1
    37     6     1   ar
    38    16    13    1
    39    28    22   ar
    40    37    29   ar
    41    37    32   ar
    42     9    10    1
    43    20    21    1
@<TRIPOS>MOLECULE
*****
 39 43 0 0 0
SMALL
GASTEIGER

@<TRIPOS>ATOM
      1 C           3.8686   -1.9564   21.9050 C.ar    1  UNL1        0.0655
      2 C           4.7500   -2.8507   22.7254 C.ar    1  UNL1        0.0337
      3 C           4.9423   -2.5778   24.1878 C.ar    1  UNL1        0.0862
      4 C           4.2530   -1.4104   24.8298 C.ar    1  UNL1        0.1534
      5 C           3.3715   -0.5160   24.0093 C.ar    1  UNL1        0.0539
      6 C           3.1793   -0.7890   22.5469 C.ar    1  UNL1        0.0647
      7 C           4.5317   -1.5274   19.4299 C.2     1  UNL1        0.2497
      8 O           5.3401   -0.7940   19.4959 O.2     1  UNL1       -0.2698
      9 N           3.6764   -2.2294   20.4426 N.am    1  UNL1       -0.2794
     10 H           2.9889   -2.8693   20.1475 H       1  UNL1        0.1552
     11 C           3.7532   -0.7444   17.0781 C.2     1  UNL1        0.0048
     12 C           4.3395   -1.8003   17.9675 C.2     1  UNL1        0.0580
     13 N           2.2978    0.1054   21.7266 N.pl3   1  UNL1       -0.3036
     14 C           0.9511   -0.0350   21.0811 C.3     1  UNL1        0.1085
     15 C           1.0512    1.3704   20.5664 C.3     1  UNL1        0.0973
     16 C           2.3979    1.5108   21.2120 C.3     1  UNL1        0.1085
     17 N           0.1698    2.2649   19.7461 N.3     1  UNL1       -0.2686
     18 C          -1.0024    2.9512   20.3826 C.3     1  UNL1        0.0897
     19 C           0.4604    2.4731   18.2894 C.3     1  UNL1        0.0897
     20 N           5.8238   -3.4721   25.0081 N.pl3   1  UNL1       -0.2801
     21 H           5.8802   -4.4328   24.8002 H       1  UNL1        0.1552
     22 C           6.6193   -2.9030   26.1453 C.ar    1  UNL1        0.2208
     23 N           7.7935   -2.0119   25.8672 N.ar    1  UNL1       -0.2111
     24 C           8.5890   -1.4428   27.0043 C.ar    1  UNL1        0.1147
     25 C           8.2104   -1.7647   28.4196 C.ar    1  UNL1        0.0946
     26 CL          9.0060   -1.1955   29.5568 Cl      1  UNL1       -0.0790
     27 C           7.0362   -2.6558   28.6978 C.ar    1  UNL1        0.0992
     28 N           6.2407   -3.2249   27.5606 N.ar    1  UNL1       -0.2126
     29 C           6.6576   -2.9777   30.1131 C.ar    1  UNL1        0.0572
     30 C           7.1206   -4.1673   30.9008 C.ar    1  UNL1        0.1235
     31 N           6.4986   -4.0913   32.2636 N.ar    1  UNL1       -0.1634
     32 N           5.6513   -2.8547   32.3182 N.ar    1  UNL1       -0.2281
     33 C           4.8030   -2.2665   33.4065 C.ar    1  UNL1        0.1004
     34 C           4.0530   -0.9901   33.1656 C.ar    1  UNL1        0.0207
     35 C           4.1512   -0.3018   31.8364 C.ar    1  UNL1        0.0031
     36 C           4.9995   -0.8900   30.7482 C.ar    1  UNL1        0.0193
     37 C           5.7496   -2.1665   30.9891 C.ar    1  UNL1        0.0858
     38 O           4.4452   -1.1374   26.2921 O.3     1  UNL1       -0.4701
     39 C           3.2631   -1.1299   27.2154 C.3     1  UNL1        0.2525
@<TRIPOS>BOND
     1    11    12    2
     2    12     7    1
     3     7     8    2
     4     7     9   am
     5     9     1    1
     6     1     2   ar
     7     2     3   ar
     8     3    20    1
     9    20    22    1
    10    22    23   ar
    11    23    24   ar
    12    24    25   ar
    13    25    26    1
    14    25    27   ar
    15    27    29    1
    16    29    30   ar
    17    30    31   ar
    18    31    32   ar
    19    32    33   ar
    20    33    34   ar
    21    34    35   ar
    22    35    36   ar
    23    36    37   ar
    24    27    28   ar
    25     3     4   ar
    26     4    38    1
    27    38    39    1
    28     4     5   ar
    29     5     6   ar
    30     6    13    1
    31    13    14    1
    32    14    15    1
    33    15    17    1
    34    17    18    1
    35    17    19    1
    36    15    16    1
    37     6     1   ar
    38    16    13    1
    39    28    22   ar
    40    37    29   ar
    41    37    32   ar
    42     9    10    1
    43    20    21    1
