@<TRIPOS>MOLECULE
*****
 23 25 0 0 0
SMALL
GASTEIGER

@<TRIPOS>ATOM
      1 O          -5.2830  -16.7576   23.4291 O.2     1  UNL1       -0.2907
      2 C          -6.2297  -17.7148   22.7677 C.2     1  UNL1        0.1819
      3 C          -7.6965  -17.4053   22.7185 C.3     1  UNL1        0.0746
      4 C          -8.6432  -18.3626   22.0571 C.3     1  UNL1        0.0375
      5 C          -8.1231  -19.6293   21.4449 C.3     1  UNL1        0.0690
      6 C          -6.6562  -19.9388   21.4942 C.2     1  UNL1        0.1201
      7 O          -6.1359  -21.2056   20.8820 O.2     1  UNL1       -0.5092
      8 C          -5.7095  -18.9816   22.1556 C.2     1  UNL1        0.0936
      9 H          -6.7273  -21.8036   20.4689 H       1  UNL1        0.2917
     10 C         -10.1102  -18.0530   22.0079 C.ar    1  UNL1       -0.0216
     11 C         -10.9912  -18.4094   23.1684 C.ar    1  UNL1       -0.0043
     12 C         -12.4581  -18.0999   23.1192 C.ar    1  UNL1       -0.0003
     13 C         -13.0440  -17.4340   21.9094 C.ar    1  UNL1       -0.0000
     14 C         -12.1629  -17.0776   20.7489 C.ar    1  UNL1       -0.0003
     15 C         -10.6960  -17.3872   20.7982 C.ar    1  UNL1       -0.0043
     16 S          -4.2426  -19.2911   22.2048 S.3     1  UNL1       -0.0806
     17 C          -3.3206  -18.7212   21.1678 C.ar    1  UNL1        0.0402
     18 C          -3.4851  -19.1034   19.7266 C.ar    1  UNL1        0.0073
     19 C          -2.5632  -18.5336   18.6897 C.ar    1  UNL1        0.0006
     20 C          -1.4767  -17.5815   19.0939 C.ar    1  UNL1        0.0009
     21 C          -1.3122  -17.1994   20.5350 C.ar    1  UNL1        0.0119
     22 C          -2.2342  -17.7693   21.5720 C.ar    1  UNL1        0.0636
     23 CL         -2.0696  -17.3871   23.0132 Cl      1  UNL1       -0.0817
@<TRIPOS>BOND
     1     1     2    2
     2     2     3    1
     3     3     4    1
     4     4    10    1
     5    10    11   ar
     6    11    12   ar
     7    12    13   ar
     8    13    14   ar
     9    14    15   ar
    10     4     5    1
    11     5     6    1
    12     6     7    1
    13     6     8    2
    14     8    16    1
    15    16    17    1
    16    17    18   ar
    17    18    19   ar
    18    19    20   ar
    19    20    21   ar
    20    21    22   ar
    21    22    23    1
    22     8     2    1
    23    22    17   ar
    24    15    10   ar
    25     7     9    1
@<TRIPOS>MOLECULE
*****
 23 25 0 0 0
SMALL
GASTEIGER

@<TRIPOS>ATOM
      1 O          -8.4635  -18.7377   23.6623 O.2     1  UNL1       -0.2907
      2 C          -7.8204  -18.9973   22.3323 C.2     1  UNL1        0.1819
      3 C          -6.3386  -18.8305   22.1703 C.3     1  UNL1        0.0746
      4 C          -5.6955  -19.0902   20.8403 C.3     1  UNL1        0.0375
      5 C          -6.5343  -19.5167   19.6722 C.3     1  UNL1        0.0690
      6 C          -8.0161  -19.6835   19.8341 C.2     1  UNL1        0.1201
      7 O          -8.8550  -20.1101   18.6660 O.2     1  UNL1       -0.5092
      8 C          -8.6592  -19.4239   21.1642 C.2     1  UNL1        0.0936
      9 H          -8.4533  -20.2723   17.8352 H       1  UNL1        0.2917
     10 C          -4.2136  -18.9233   20.6784 C.ar    1  UNL1       -0.0216
     11 C          -3.3092  -19.0594   21.8673 C.ar    1  UNL1       -0.0043
     12 C          -1.8274  -18.8925   21.7054 C.ar    1  UNL1       -0.0003
     13 C          -1.2498  -18.5896   20.3546 C.ar    1  UNL1       -0.0000
     14 C          -2.1542  -18.4535   19.1656 C.ar    1  UNL1       -0.0003
     15 C          -3.6361  -18.6204   19.3276 C.ar    1  UNL1       -0.0043
     16 S         -10.1411  -19.5907   21.3261 S.3     1  UNL1       -0.0806
     17 C         -11.0299  -18.3838   21.3833 C.ar    1  UNL1        0.0402
     18 C         -11.1298  -17.4691   20.1986 C.ar    1  UNL1        0.0073
     19 C         -12.0186  -16.2621   20.2557 C.ar    1  UNL1        0.0006
     20 C         -12.8075  -15.9698   21.4976 C.ar    1  UNL1        0.0009
     21 C         -12.7077  -16.8845   22.6822 C.ar    1  UNL1        0.0119
     22 C         -11.8189  -18.0915   22.6251 C.ar    1  UNL1        0.0636
     23 CL        -11.7190  -19.0061   23.8098 Cl      1  UNL1       -0.0817
@<TRIPOS>BOND
     1     1     2    2
     2     2     3    1
     3     3     4    1
     4     4    10    1
     5    10    11   ar
     6    11    12   ar
     7    12    13   ar
     8    13    14   ar
     9    14    15   ar
    10     4     5    1
    11     5     6    1
    12     6     7    1
    13     6     8    2
    14     8    16    1
    15    16    17    1
    16    17    18   ar
    17    18    19   ar
    18    19    20   ar
    19    20    21   ar
    20    21    22   ar
    21    22    23    1
    22     8     2    1
    23    22    17   ar
    24    15    10   ar
    25     7     9    1
@<TRIPOS>MOLECULE
*****
 23 25 0 0 0
SMALL
GASTEIGER

@<TRIPOS>ATOM
      1 O          -9.0357  -17.0464   22.5680 O.2     1  UNL1       -0.2907
      2 C          -8.3426  -17.9507   21.5924 C.2     1  UNL1        0.1819
      3 C          -6.8453  -18.0398   21.5857 C.3     1  UNL1        0.0746
      4 C          -6.1521  -18.9441   20.6101 C.3     1  UNL1        0.0375
      5 C          -6.9562  -19.7593   19.6413 C.3     1  UNL1        0.0690
      6 C          -8.4535  -19.6702   19.6480 C.2     1  UNL1        0.1201
      7 O          -9.2578  -20.4855   18.6791 O.2     1  UNL1       -0.5092
      8 C          -9.1467  -18.7659   20.6236 C.2     1  UNL1        0.0936
      9 H          -8.8248  -21.0504   18.0697 H       1  UNL1        0.2917
     10 C          -4.6547  -19.0332   20.6034 C.ar    1  UNL1       -0.0216
     11 C          -3.9266  -19.5145   21.8233 C.ar    1  UNL1       -0.0043
     12 C          -2.4293  -19.6036   21.8167 C.ar    1  UNL1       -0.0003
     13 C          -1.6600  -19.2113   20.5901 C.ar    1  UNL1       -0.0000
     14 C          -2.3881  -18.7300   19.3702 C.ar    1  UNL1       -0.0003
     15 C          -3.8855  -18.6409   19.3769 C.ar    1  UNL1       -0.0043
     16 S         -10.6441  -18.6769   20.6302 S.3     1  UNL1       -0.0806
     17 C         -11.3858  -18.6131   21.9325 C.ar    1  UNL1        0.0402
     18 C         -11.0397  -19.5637   23.0400 C.ar    1  UNL1        0.0073
     19 C         -11.7814  -19.5000   24.3423 C.ar    1  UNL1        0.0006
     20 C         -12.8692  -18.4856   24.5370 C.ar    1  UNL1        0.0009
     21 C         -13.2152  -17.5350   23.4294 C.ar    1  UNL1        0.0119
     22 C         -12.4735  -17.5988   22.1272 C.ar    1  UNL1        0.0636
     23 CL        -12.8196  -16.6482   21.0196 Cl      1  UNL1       -0.0817
@<TRIPOS>BOND
     1     1     2    2
     2     2     3    1
     3     3     4    1
     4     4    10    1
     5    10    11   ar
     6    11    12   ar
     7    12    13   ar
     8    13    14   ar
     9    14    15   ar
    10     4     5    1
    11     5     6    1
    12     6     7    1
    13     6     8    2
    14     8    16    1
    15    16    17    1
    16    17    18   ar
    17    18    19   ar
    18    19    20   ar
    19    20    21   ar
    20    21    22   ar
    21    22    23    1
    22     8     2    1
    23    22    17   ar
    24    15    10   ar
    25     7     9    1
@<TRIPOS>MOLECULE
*****
 23 25 0 0 0
SMALL
GASTEIGER

@<TRIPOS>ATOM
      1 O          -9.2822  -20.4324   18.6810 O.2     1  UNL1       -0.2907
      2 C          -8.4744  -19.6388   19.6647 C.2     1  UNL1        0.1819
      3 C          -6.9779  -19.7408   19.6617 C.3     1  UNL1        0.0746
      4 C          -6.1701  -18.9472   20.6453 C.3     1  UNL1        0.0375
      5 C          -6.8587  -18.0516   21.6320 C.3     1  UNL1        0.0690
      6 C          -8.3552  -17.9496   21.6350 C.2     1  UNL1        0.1201
      7 O          -9.0439  -17.0540   22.6218 O.2     1  UNL1       -0.5092
      8 C          -9.1630  -18.7432   20.6514 C.2     1  UNL1        0.0936
      9 H          -8.5393  -16.5582   23.2362 H       1  UNL1        0.2917
     10 C          -4.6735  -19.0493   20.6423 C.ar    1  UNL1       -0.0216
     11 C          -3.9010  -18.7075   19.4028 C.ar    1  UNL1       -0.0043
     12 C          -2.4045  -18.8095   19.3997 C.ar    1  UNL1       -0.0003
     13 C          -1.6804  -19.2534   20.6362 C.ar    1  UNL1       -0.0000
     14 C          -2.4529  -19.5953   21.8757 C.ar    1  UNL1       -0.0003
     15 C          -3.9495  -19.4932   21.8787 C.ar    1  UNL1       -0.0043
     16 S         -10.6596  -18.6411   20.6544 S.3     1  UNL1       -0.0806
     17 C         -11.4056  -18.5960   21.9550 C.ar    1  UNL1        0.0402
     18 C         -11.0644  -19.5636   23.0493 C.ar    1  UNL1        0.0073
     19 C         -11.8104  -19.5185   24.3498 C.ar    1  UNL1        0.0006
     20 C         -12.8976  -18.5057   24.5561 C.ar    1  UNL1        0.0009
     21 C         -13.2387  -17.5382   23.4618 C.ar    1  UNL1        0.0119
     22 C         -12.4927  -17.5833   22.1613 C.ar    1  UNL1        0.0636
     23 CL        -12.8339  -16.6157   21.0670 Cl      1  UNL1       -0.0817
@<TRIPOS>BOND
     1     1     2    2
     2     2     3    1
     3     3     4    1
     4     4    10    1
     5    10    11   ar
     6    11    12   ar
     7    12    13   ar
     8    13    14   ar
     9    14    15   ar
    10     4     5    1
    11     5     6    1
    12     6     7    1
    13     6     8    2
    14     8    16    1
    15    16    17    1
    16    17    18   ar
    17    18    19   ar
    18    19    20   ar
    19    20    21   ar
    20    21    22   ar
    21    22    23    1
    22     8     2    1
    23    22    17   ar
    24    15    10   ar
    25     7     9    1
@<TRIPOS>MOLECULE
*****
 23 25 0 0 0
SMALL
GASTEIGER

@<TRIPOS>ATOM
      1 O         -13.7180   -4.8992   20.7509 O.2     1  UNL1       -0.2907
      2 C         -13.7303   -5.8931   19.6275 C.2     1  UNL1        0.1819
      3 C         -14.9559   -6.7186   19.3699 C.3     1  UNL1        0.0746
      4 C         -14.9682   -7.7125   18.2464 C.3     1  UNL1        0.0375
      5 C         -13.7550   -7.8808   17.3806 C.3     1  UNL1        0.0690
      6 C         -12.5294   -7.0552   17.6382 C.2     1  UNL1        0.1201
      7 O         -11.3161   -7.2234   16.7723 O.2     1  UNL1       -0.5092
      8 C         -12.5171   -6.0613   18.7616 C.2     1  UNL1        0.0936
      9 H         -11.3238   -7.8443   16.0705 H       1  UNL1        0.2917
     10 C         -16.1939   -8.5381   17.9889 C.ar    1  UNL1       -0.0216
     11 C         -16.3311   -9.8931   18.6175 C.ar    1  UNL1       -0.0043
     12 C         -17.5567  -10.7187   18.3599 C.ar    1  UNL1       -0.0003
     13 C         -18.6451  -10.1892   17.4738 C.ar    1  UNL1       -0.0000
     14 C         -18.5078   -8.8343   16.8451 C.ar    1  UNL1       -0.0003
     15 C         -17.2821   -8.0087   17.1027 C.ar    1  UNL1       -0.0043
     16 S         -11.2914   -5.2358   19.0192 S.3     1  UNL1       -0.0806
     17 C         -11.1766   -3.8603   18.4319 C.ar    1  UNL1        0.0402
     18 C         -12.0487   -2.7517   18.9423 C.ar    1  UNL1        0.0073
     19 C         -11.9339   -1.3762   18.3550 C.ar    1  UNL1        0.0006
     20 C         -10.9470   -1.1094   17.2573 C.ar    1  UNL1        0.0009
     21 C         -10.0750   -2.2180   16.7469 C.ar    1  UNL1        0.0119
     22 C         -10.1898   -3.5934   17.3342 C.ar    1  UNL1        0.0636
     23 CL         -9.3177   -4.7021   16.8238 Cl      1  UNL1       -0.0817
@<TRIPOS>BOND
     1     1     2    2
     2     2     3    1
     3     3     4    1
     4     4    10    1
     5    10    11   ar
     6    11    12   ar
     7    12    13   ar
     8    13    14   ar
     9    14    15   ar
    10     4     5    1
    11     5     6    1
    12     6     7    1
    13     6     8    2
    14     8    16    1
    15    16    17    1
    16    17    18   ar
    17    18    19   ar
    18    19    20   ar
    19    20    21   ar
    20    21    22   ar
    21    22    23    1
    22     8     2    1
    23    22    17   ar
    24    15    10   ar
    25     7     9    1
@<TRIPOS>MOLECULE
*****
 23 25 0 0 0
SMALL
GASTEIGER

@<TRIPOS>ATOM
      1 O         -11.1776   -7.3696   17.6743 O.2     1  UNL1       -0.2907
      2 C         -12.4043   -6.8972   18.3969 C.2     1  UNL1        0.1819
      3 C         -13.6630   -7.7115   18.3494 C.3     1  UNL1        0.0746
      4 C         -14.8897   -7.2391   19.0720 C.3     1  UNL1        0.0375
      5 C         -14.8576   -5.9523   19.8420 C.3     1  UNL1        0.0690
      6 C         -13.5988   -5.1379   19.8895 C.2     1  UNL1        0.1201
      7 O         -13.5667   -3.8510   20.6596 O.2     1  UNL1       -0.5092
      8 C         -12.3722   -5.6103   19.1669 C.2     1  UNL1        0.0936
      9 H         -14.3329   -3.5559   21.1110 H       1  UNL1        0.2917
     10 C         -16.1485   -8.0536   19.0245 C.ar    1  UNL1       -0.0216
     11 C         -17.3652   -7.5980   19.7741 C.ar    1  UNL1       -0.0043
     12 C         -18.6240   -8.4123   19.7266 C.ar    1  UNL1       -0.0003
     13 C         -18.6660   -9.6824   18.9295 C.ar    1  UNL1       -0.0000
     14 C         -17.4492  -10.1380   18.1799 C.ar    1  UNL1       -0.0003
     15 C         -16.1904   -9.3235   18.2274 C.ar    1  UNL1       -0.0043
     16 S         -11.1134   -4.7959   19.2144 S.3     1  UNL1       -0.0806
     17 C         -10.9617   -3.5972   18.3256 C.ar    1  UNL1        0.0402
     18 C         -11.7861   -2.3691   18.5755 C.ar    1  UNL1        0.0073
     19 C         -11.6344   -1.1704   17.6866 C.ar    1  UNL1        0.0006
     20 C         -10.6584   -1.1997   16.5479 C.ar    1  UNL1        0.0009
     21 C          -9.8341   -2.4277   16.2981 C.ar    1  UNL1        0.0119
     22 C          -9.9858   -3.6265   17.1869 C.ar    1  UNL1        0.0636
     23 CL         -9.1614   -4.8545   16.9370 Cl      1  UNL1       -0.0817
@<TRIPOS>BOND
     1     1     2    2
     2     2     3    1
     3     3     4    1
     4     4    10    1
     5    10    11   ar
     6    11    12   ar
     7    12    13   ar
     8    13    14   ar
     9    14    15   ar
    10     4     5    1
    11     5     6    1
    12     6     7    1
    13     6     8    2
    14     8    16    1
    15    16    17    1
    16    17    18   ar
    17    18    19   ar
    18    19    20   ar
    19    20    21   ar
    20    21    22   ar
    21    22    23    1
    22     8     2    1
    23    22    17   ar
    24    15    10   ar
    25     7     9    1
@<TRIPOS>MOLECULE
*****
 23 25 0 0 0
SMALL
GASTEIGER

@<TRIPOS>ATOM
      1 O         -11.2003   -5.2361   19.2196 O.2     1  UNL1       -0.2907
      2 C         -12.6908   -5.3391   19.3523 C.2     1  UNL1        0.1819
      3 C         -13.3734   -6.6578   19.1404 C.3     1  UNL1        0.0746
      4 C         -14.8639   -6.7608   19.2732 C.3     1  UNL1        0.0375
      5 C         -15.6720   -5.5450   19.6178 C.3     1  UNL1        0.0690
      6 C         -14.9894   -4.2262   19.8296 C.2     1  UNL1        0.1201
      7 O         -15.7974   -3.0103   20.1742 O.2     1  UNL1       -0.5092
      8 C         -13.4988   -4.1232   19.6969 C.2     1  UNL1        0.0936
      9 H         -16.7286   -3.0745   20.2571 H       1  UNL1        0.2917
     10 C         -15.5465   -8.0797   19.0613 C.ar    1  UNL1       -0.0216
     11 C         -16.8439   -8.3726   19.7547 C.ar    1  UNL1       -0.0043
     12 C         -17.5264   -9.6914   19.5429 C.ar    1  UNL1       -0.0003
     13 C         -16.9115  -10.7173   18.6376 C.ar    1  UNL1       -0.0000
     14 C         -15.6141  -10.4243   17.9441 C.ar    1  UNL1       -0.0003
     15 C         -14.9316   -9.1054   18.1560 C.ar    1  UNL1       -0.0043
     16 S         -12.8163   -2.8044   19.9088 S.3     1  UNL1       -0.0806
     17 C         -12.3570   -1.9996   18.7292 C.ar    1  UNL1        0.0402
     18 C         -11.0398   -2.3051   18.0799 C.ar    1  UNL1        0.0073
     19 C         -10.5805   -1.5003   16.9003 C.ar    1  UNL1        0.0006
     20 C         -11.4385   -0.3899   16.3701 C.ar    1  UNL1        0.0009
     21 C         -12.7557   -0.0844   17.0195 C.ar    1  UNL1        0.0119
     22 C         -13.2149   -0.8892   18.1990 C.ar    1  UNL1        0.0636
     23 CL        -14.5322   -0.5837   18.8484 Cl      1  UNL1       -0.0817
@<TRIPOS>BOND
     1     1     2    2
     2     2     3    1
     3     3     4    1
     4     4    10    1
     5    10    11   ar
     6    11    12   ar
     7    12    13   ar
     8    13    14   ar
     9    14    15   ar
    10     4     5    1
    11     5     6    1
    12     6     7    1
    13     6     8    2
    14     8    16    1
    15    16    17    1
    16    17    18   ar
    17    18    19   ar
    18    19    20   ar
    19    20    21   ar
    20    21    22   ar
    21    22    23    1
    22     8     2    1
    23    22    17   ar
    24    15    10   ar
    25     7     9    1
@<TRIPOS>MOLECULE
*****
 23 25 0 0 0
SMALL
GASTEIGER

@<TRIPOS>ATOM
      1 O         -11.9700   -5.8231   19.3331 O.2     1  UNL1       -0.2907
      2 C         -13.4408   -5.5600   19.4648 C.2     1  UNL1        0.1819
      3 C         -14.4234   -6.6745   19.2595 C.3     1  UNL1        0.0746
      4 C         -15.8943   -6.4114   19.3912 C.3     1  UNL1        0.0375
      5 C         -16.3825   -5.0337   19.7283 C.3     1  UNL1        0.0690
      6 C         -15.3999   -3.9192   19.9337 C.2     1  UNL1        0.1201
      7 O         -15.8881   -2.5415   20.2708 O.2     1  UNL1       -0.5092
      8 C         -13.9291   -4.1823   19.8019 C.2     1  UNL1        0.0936
      9 H         -16.8069   -2.3771   20.3531 H       1  UNL1        0.2917
     10 C         -16.8769   -7.5260   19.1858 C.ar    1  UNL1       -0.0216
     11 C         -16.6849   -8.4969   18.0586 C.ar    1  UNL1       -0.0043
     12 C         -17.6675   -9.6115   17.8532 C.ar    1  UNL1       -0.0003
     13 C         -18.8421   -9.7552   18.7749 C.ar    1  UNL1       -0.0000
     14 C         -19.0342   -8.7843   19.9021 C.ar    1  UNL1       -0.0003
     15 C         -18.0515   -7.6697   20.1075 C.ar    1  UNL1       -0.0043
     16 S         -12.9464   -3.0677   20.0073 S.3     1  UNL1       -0.0806
     17 C         -12.5239   -2.2170   18.8464 C.ar    1  UNL1        0.0402
     18 C         -13.4496   -1.1648   18.3115 C.ar    1  UNL1        0.0073
     19 C         -13.0270   -0.3140   17.1506 C.ar    1  UNL1        0.0006
     20 C         -11.6788   -0.5155   16.5246 C.ar    1  UNL1        0.0009
     21 C         -10.7532   -1.5676   17.0595 C.ar    1  UNL1        0.0119
     22 C         -11.1757   -2.4184   18.2205 C.ar    1  UNL1        0.0636
     23 CL        -10.2500   -3.4706   18.7554 Cl      1  UNL1       -0.0817
@<TRIPOS>BOND
     1     1     2    2
     2     2     3    1
     3     3     4    1
     4     4    10    1
     5    10    11   ar
     6    11    12   ar
     7    12    13   ar
     8    13    14   ar
     9    14    15   ar
    10     4     5    1
    11     5     6    1
    12     6     7    1
    13     6     8    2
    14     8    16    1
    15    16    17    1
    16    17    18   ar
    17    18    19   ar
    18    19    20   ar
    19    20    21   ar
    20    21    22   ar
    21    22    23    1
    22     8     2    1
    23    22    17   ar
    24    15    10   ar
    25     7     9    1
@<TRIPOS>MOLECULE
*****
 23 25 0 0 0
SMALL
GASTEIGER

@<TRIPOS>ATOM
      1 O           6.5085   -4.5829   21.1096 O.2     1  UNL1       -0.2907
      2 C           5.9272   -3.4803   21.9440 C.2     1  UNL1        0.1819
      3 C           4.7063   -2.7472   21.4730 C.3     1  UNL1        0.0746
      4 C           4.1249   -1.6446   22.3074 C.3     1  UNL1        0.0375
      5 C           4.7645   -1.2750   23.6129 C.3     1  UNL1        0.0690
      6 C           5.9854   -2.0081   24.0840 C.2     1  UNL1        0.1201
      7 O           6.6250   -1.6386   25.3895 O.2     1  UNL1       -0.5092
      8 C           6.5667   -3.1107   23.2495 C.2     1  UNL1        0.0936
      9 H           6.2619   -0.9498   25.9108 H       1  UNL1        0.2917
     10 C           2.9039   -0.9115   21.8363 C.ar    1  UNL1       -0.0216
     11 C           2.3046    0.1703   22.6850 C.ar    1  UNL1       -0.0043
     12 C           1.0837    0.9034   22.2140 C.ar    1  UNL1       -0.0003
     13 C           0.4620    0.5546   20.8941 C.ar    1  UNL1       -0.0000
     14 C           1.0614   -0.5272   20.0453 C.ar    1  UNL1       -0.0003
     15 C           2.2824   -1.2603   20.5165 C.ar    1  UNL1       -0.0043
     16 S           7.7877   -3.8438   23.7207 S.3     1  UNL1       -0.0806
     17 C           7.6436   -5.1098   24.5122 C.ar    1  UNL1        0.0402
     18 C           6.9268   -5.0930   25.8298 C.ar    1  UNL1        0.0073
     19 C           6.7827   -6.3589   26.6214 C.ar    1  UNL1        0.0006
     20 C           7.3554   -7.6417   26.0953 C.ar    1  UNL1        0.0009
     21 C           8.0721   -7.6584   24.7777 C.ar    1  UNL1        0.0119
     22 C           8.2162   -6.3925   23.9862 C.ar    1  UNL1        0.0636
     23 CL          8.9329   -6.4093   22.6686 Cl      1  UNL1       -0.0817
@<TRIPOS>BOND
     1     1     2    2
     2     2     3    1
     3     3     4    1
     4     4    10    1
     5    10    11   ar
     6    11    12   ar
     7    12    13   ar
     8    13    14   ar
     9    14    15   ar
    10     4     5    1
    11     5     6    1
    12     6     7    1
    13     6     8    2
    14     8    16    1
    15    16    17    1
    16    17    18   ar
    17    18    19   ar
    18    19    20   ar
    19    20    21   ar
    20    21    22   ar
    21    22    23    1
    22     8     2    1
    23    22    17   ar
    24    15    10   ar
    25     7     9    1
