@<TRIPOS>MOLECULE
*****
 42 46 0 0 0
SMALL
GASTEIGER

@<TRIPOS>ATOM
      1 C          -0.7941    3.5379   22.4880 C.3     1  UNL1        0.0373
      2 C          -2.0028    4.0545   21.7654 C.3     1  UNL1        0.0075
      3 C          -3.2693    4.3269   22.5216 C.3     1  UNL1        0.0219
      4 C          -3.3271    4.0825   24.0005 C.3     1  UNL1        0.0937
      5 N          -2.1184    3.5659   24.7231 N.am    1  UNL1       -0.2758
      6 C          -2.1762    3.3216   26.2019 C.2     1  UNL1        0.2490
      7 O          -3.4427    3.5939   26.9582 O.2     1  UNL1       -0.2699
      8 C          -0.8519    3.2936   23.9669 C.3     1  UNL1        0.0976
      9 C           0.6031    3.0469   22.7257 C.ar    1  UNL1       -0.0203
     10 C           1.7596    3.7172   22.0451 C.ar    1  UNL1       -0.0033
     11 C           3.1569    3.2263   22.2827 C.ar    1  UNL1        0.0119
     12 C           3.3978    2.0648   23.2010 C.ar    1  UNL1        0.0682
     13 CL          4.7950    1.5737   23.4387 Cl      1  UNL1       -0.0814
     14 C           2.2413    1.3944   23.8816 C.ar    1  UNL1        0.0679
     15 CL          2.4821    0.2331   24.7998 Cl      1  UNL1       -0.0814
     16 C           0.8440    1.8855   23.6439 C.ar    1  UNL1        0.0080
     17 C          -0.9675    2.8050   26.9246 C.ar    1  UNL1        0.0536
     18 C           0.0523    3.7649   27.4620 C.ar    1  UNL1        0.0045
     19 C           1.2609    3.2483   28.1846 C.ar    1  UNL1        0.0001
     20 C           1.4499    1.7718   28.3698 C.ar    1  UNL1        0.0000
     21 C           0.4301    0.8119   27.8325 C.ar    1  UNL1        0.0001
     22 C          -0.7786    1.3285   27.1098 C.ar    1  UNL1        0.0045
     23 C          -0.2511    3.6117   21.0917 C.3     1  UNL1        0.0071
     24 C          -1.0142    2.9954   19.9567 C.3     1  UNL1        0.0177
     25 C          -0.2772    2.3548   18.8180 C.3     1  UNL1        0.0721
     26 C           3.3094   -0.2377   19.6335 C.3     1  UNL1        0.0819
     27 C           1.9739   -0.6016   20.2115 C.3     1  UNL1        0.0398
     28 C           0.7784    0.2625   19.9397 C.3     1  UNL1        0.0741
     29 N           0.9183    1.4907   19.0898 N.3     1  UNL1       -0.2725
     30 C           2.2538    1.8546   18.5119 C.3     1  UNL1        0.0741
     31 C           3.4493    0.9905   18.7837 C.3     1  UNL1        0.0398
     32 C           3.6777   -1.4905   20.3717 C.ar    1  UNL1       -0.0060
     33 C           3.9258   -1.4444   21.8503 C.ar    1  UNL1       -0.0027
     34 C           4.2941   -2.6973   22.5883 C.ar    1  UNL1       -0.0003
     35 C           4.4143   -3.9962   21.8478 C.ar    1  UNL1       -0.0000
     36 C           4.1661   -4.0423   20.3692 C.ar    1  UNL1       -0.0003
     37 C           3.7978   -2.7894   19.6311 C.ar    1  UNL1       -0.0027
     38 C           6.6844   -0.8265   17.6303 C.3     1  UNL1        0.0948
     39 C           5.2209   -0.7554   17.9519 C.2     1  UNL1        0.2263
     40 O           4.2057   -1.1308   16.9135 O.2     1  UNL1       -0.2748
     41 N           4.7728   -0.3088   19.3119 N.am    1  UNL1       -0.2774
     42 C           5.7880    0.0666   20.3504 C.3     1  UNL1        0.1150
@<TRIPOS>BOND
     1    38    39    1
     2    39    40    2
     3    39    41   am
     4    41    42    1
     5    41    26    1
     6    26    32    1
     7    32    33   ar
     8    33    34   ar
     9    34    35   ar
    10    35    36   ar
    11    36    37   ar
    12    26    27    1
    13    27    28    1
    14    28    29    1
    15    29    25    1
    16    25    24    1
    17    24    23    1
    18     1    23    1
    19     1     9    1
    20     9    10   ar
    21    10    11   ar
    22    11    12   ar
    23    12    13    1
    24    12    14   ar
    25    14    15    1
    26    14    16   ar
    27     1     2    1
    28     2     3    1
    29     3     4    1
    30     4     5    1
    31     5     6   am
    32     6     7    2
    33     6    17    1
    34    17    18   ar
    35    18    19   ar
    36    19    20   ar
    37    20    21   ar
    38    21    22   ar
    39     5     8    1
    40    29    30    1
    41    30    31    1
    42    31    26    1
    43    37    32   ar
    44     8     1    1
    45    16     9   ar
    46    22    17   ar
@<TRIPOS>MOLECULE
*****
 42 46 0 0 0
SMALL
GASTEIGER

@<TRIPOS>ATOM
      1 C           0.2006    1.8185   24.7681 C.3     1  UNL1        0.0373
      2 C           0.6657    1.3917   26.1288 C.3     1  UNL1        0.0075
      3 C          -0.1589    1.7160   27.3392 C.3     1  UNL1        0.0219
      4 C          -1.4486    2.4671   27.1888 C.3     1  UNL1        0.0937
      5 N          -1.9136    2.8939   25.8281 N.am    1  UNL1       -0.2758
      6 C          -3.2033    3.6451   25.6777 C.2     1  UNL1        0.2490
      7 O          -4.0279    3.9693   26.8881 O.2     1  UNL1       -0.2699
      8 C          -1.0891    2.5696   24.6178 C.3     1  UNL1        0.0976
      9 C           0.1811    2.0072   23.2802 C.ar    1  UNL1       -0.0203
     10 C          -0.1644    3.3458   22.6983 C.ar    1  UNL1       -0.0033
     11 C          -0.1839    3.5345   21.2104 C.ar    1  UNL1        0.0119
     12 C           0.1422    2.3844   20.3042 C.ar    1  UNL1        0.0682
     13 CL          0.1227    2.5730   18.8162 Cl      1  UNL1       -0.0814
     14 C           0.4878    1.0457   20.8861 C.ar    1  UNL1        0.0679
     15 CL          0.8138   -0.1043   19.9800 Cl      1  UNL1       -0.0814
     16 C           0.5072    0.8571   22.3740 C.ar    1  UNL1        0.0080
     17 C          -3.6684    4.0719   24.3170 C.ar    1  UNL1        0.0536
     18 C          -4.6228    3.2091   23.5458 C.ar    1  UNL1        0.0045
     19 C          -5.0879    3.6359   22.1851 C.ar    1  UNL1        0.0001
     20 C          -4.5986    4.9255   21.5956 C.ar    1  UNL1        0.0000
     21 C          -3.6442    5.7882   22.3667 C.ar    1  UNL1        0.0001
     22 C          -3.1791    5.3615   23.7275 C.ar    1  UNL1        0.0045
     23 C           1.4835    1.1329   24.4018 C.3     1  UNL1        0.0071
     24 C           2.7725    1.5655   25.0355 C.3     1  UNL1        0.0177
     25 C           4.0018    1.7369   24.1932 C.3     1  UNL1        0.0721
     26 C           4.4821   -0.6416   20.4035 C.3     1  UNL1        0.0819
     27 C           4.2691   -1.3472   21.7099 C.3     1  UNL1        0.0398
     28 C           4.1090   -0.5543   22.9731 C.3     1  UNL1        0.0741
     29 N           4.1619    0.9441   22.9299 N.3     1  UNL1       -0.2725
     30 C           4.3749    1.6497   21.6235 C.3     1  UNL1        0.0741
     31 C           4.5350    0.8569   20.3603 C.3     1  UNL1        0.0398
     32 C           4.5061   -2.0669   19.9366 C.ar    1  UNL1       -0.0060
     33 C           5.8060   -2.8124   19.8695 C.ar    1  UNL1       -0.0027
     34 C           5.8299   -4.2376   19.4027 C.ar    1  UNL1       -0.0003
     35 C           4.5539   -4.9174   19.0029 C.ar    1  UNL1       -0.0000
     36 C           3.2541   -4.1720   19.0700 C.ar    1  UNL1       -0.0003
     37 C           3.2301   -2.7467   19.5368 C.ar    1  UNL1       -0.0027
     38 C           6.2915    0.1284   16.9562 C.3     1  UNL1        0.0948
     39 C           6.0702   -0.0822   18.4248 C.2     1  UNL1        0.2263
     40 O           7.2157    0.0560   19.3833 O.2     1  UNL1       -0.2748
     41 N           4.7034   -0.4310   18.9349 N.am    1  UNL1       -0.2774
     42 C           3.5579   -0.5691   17.9764 C.3     1  UNL1        0.1150
@<TRIPOS>BOND
     1    38    39    1
     2    39    40    2
     3    39    41   am
     4    41    42    1
     5    41    26    1
     6    26    32    1
     7    32    33   ar
     8    33    34   ar
     9    34    35   ar
    10    35    36   ar
    11    36    37   ar
    12    26    27    1
    13    27    28    1
    14    28    29    1
    15    29    25    1
    16    25    24    1
    17    24    23    1
    18     1    23    1
    19     1     9    1
    20     9    10   ar
    21    10    11   ar
    22    11    12   ar
    23    12    13    1
    24    12    14   ar
    25    14    15    1
    26    14    16   ar
    27     1     2    1
    28     2     3    1
    29     3     4    1
    30     4     5    1
    31     5     6   am
    32     6     7    2
    33     6    17    1
    34    17    18   ar
    35    18    19   ar
    36    19    20   ar
    37    20    21   ar
    38    21    22   ar
    39     5     8    1
    40    29    30    1
    41    30    31    1
    42    31    26    1
    43    37    32   ar
    44     8     1    1
    45    16     9   ar
    46    22    17   ar
@<TRIPOS>MOLECULE
*****
 42 46 0 0 0
SMALL
GASTEIGER

@<TRIPOS>ATOM
      1 C          -2.3242    3.8916   22.0893 C.3     1  UNL1        0.0373
      2 C          -1.0321    3.3307   22.6047 C.3     1  UNL1        0.0075
      3 C          -0.8891    2.9904   24.0587 C.3     1  UNL1        0.0219
      4 C          -2.0384    3.2110   24.9970 C.3     1  UNL1        0.0937
      5 N          -3.3306    3.7719   24.4815 N.am    1  UNL1       -0.2758
      6 C          -4.4798    3.9926   25.4198 C.2     1  UNL1        0.2490
      7 O          -4.3369    3.6522   26.8738 O.2     1  UNL1       -0.2699
      8 C          -3.4734    4.1122   23.0276 C.3     1  UNL1        0.0976
      9 C          -3.3396    4.4423   21.1324 C.ar    1  UNL1       -0.0203
     10 C          -3.3175    5.8979   20.7708 C.ar    1  UNL1       -0.0033
     11 C          -4.3329    6.4486   19.8140 C.ar    1  UNL1        0.0119
     12 C          -5.3706    5.5436   19.2186 C.ar    1  UNL1        0.0682
     13 CL         -6.3861    6.0942   18.2617 Cl      1  UNL1       -0.0814
     14 C          -5.3927    4.0880   19.5801 C.ar    1  UNL1        0.0679
     15 CL         -6.4303    3.1830   18.9848 Cl      1  UNL1       -0.0814
     16 C          -4.3772    3.5373   20.5370 C.ar    1  UNL1        0.0080
     17 C          -5.7720    4.5534   24.9043 C.ar    1  UNL1        0.0536
     18 C          -6.4279    5.7006   25.6142 C.ar    1  UNL1        0.0045
     19 C          -7.7200    6.2615   25.0988 C.ar    1  UNL1        0.0001
     20 C          -8.3563    5.6753   23.8734 C.ar    1  UNL1        0.0000
     21 C          -7.7004    4.5282   23.1634 C.ar    1  UNL1        0.0001
     22 C          -6.4082    3.9673   23.6789 C.ar    1  UNL1        0.0045
     23 C          -1.5275    3.8623   20.8186 C.3     1  UNL1        0.0071
     24 C          -1.0306    2.5554   20.2751 C.3     1  UNL1        0.0177
     25 C           0.0445    2.5385   19.2291 C.3     1  UNL1        0.0721
     26 C           3.4064   -0.4399   19.5061 C.3     1  UNL1        0.0819
     27 C           2.0303   -0.8170   19.9687 C.3     1  UNL1        0.0398
     28 C           0.9097    0.1758   19.8764 C.3     1  UNL1        0.0741
     29 N           1.1652    1.5457   19.3214 N.3     1  UNL1       -0.2725
     30 C           2.5412    1.9229   18.8587 C.3     1  UNL1        0.0741
     31 C           3.6619    0.9301   18.9511 C.3     1  UNL1        0.0398
     32 C           3.6594   -1.8488   19.9545 C.ar    1  UNL1       -0.0060
     33 C           4.0360   -2.1261   21.3797 C.ar    1  UNL1       -0.0027
     34 C           4.2890   -3.5349   21.8281 C.ar    1  UNL1       -0.0003
     35 C           4.1654   -4.6665   20.8512 C.ar    1  UNL1       -0.0000
     36 C           3.7887   -4.3892   19.4260 C.ar    1  UNL1       -0.0003
     37 C           3.5357   -2.9804   18.9777 C.ar    1  UNL1       -0.0027
     38 C           6.7892   -0.9018   17.4827 C.3     1  UNL1        0.0948
     39 C           5.3251   -0.7896   17.7897 C.2     1  UNL1        0.2263
     40 O           4.3159   -0.9151   16.6871 O.2     1  UNL1       -0.2748
     41 N           4.8704   -0.5520   19.1991 N.am    1  UNL1       -0.2774
     42 C           5.8796   -0.4265   20.3017 C.3     1  UNL1        0.1150
@<TRIPOS>BOND
     1    38    39    1
     2    39    40    2
     3    39    41   am
     4    41    42    1
     5    41    26    1
     6    26    32    1
     7    32    33   ar
     8    33    34   ar
     9    34    35   ar
    10    35    36   ar
    11    36    37   ar
    12    26    27    1
    13    27    28    1
    14    28    29    1
    15    29    25    1
    16    25    24    1
    17    24    23    1
    18     1    23    1
    19     1     9    1
    20     9    10   ar
    21    10    11   ar
    22    11    12   ar
    23    12    13    1
    24    12    14   ar
    25    14    15    1
    26    14    16   ar
    27     1     2    1
    28     2     3    1
    29     3     4    1
    30     4     5    1
    31     5     6   am
    32     6     7    2
    33     6    17    1
    34    17    18   ar
    35    18    19   ar
    36    19    20   ar
    37    20    21   ar
    38    21    22   ar
    39     5     8    1
    40    29    30    1
    41    30    31    1
    42    31    26    1
    43    37    32   ar
    44     8     1    1
    45    16     9   ar
    46    22    17   ar
@<TRIPOS>MOLECULE
*****
 42 46 0 0 0
SMALL
GASTEIGER

@<TRIPOS>ATOM
      1 C           4.1968   -2.4398   21.2751 C.3     1  UNL1        0.0373
      2 C           4.9230   -3.6919   20.8816 C.3     1  UNL1        0.0075
      3 C           5.2302   -3.9585   19.4377 C.3     1  UNL1        0.0219
      4 C           4.8111   -2.9730   18.3874 C.3     1  UNL1        0.0937
      5 N           4.0849   -1.7208   18.7810 N.am    1  UNL1       -0.2758
      6 C           3.6658   -0.7353   17.7307 C.2     1  UNL1        0.2490
      7 O           3.9730   -1.0019   16.2868 O.2     1  UNL1       -0.2699
      8 C           3.7778   -1.4543   20.2248 C.3     1  UNL1        0.0976
      9 C           3.5365   -1.4053   22.1374 C.ar    1  UNL1       -0.0203
     10 C           2.5612   -0.4380   21.5349 C.ar    1  UNL1       -0.0033
     11 C           1.9009    0.5965   22.3972 C.ar    1  UNL1        0.0119
     12 C           2.2159    0.6638   23.8623 C.ar    1  UNL1        0.0682
     13 CL          1.5557    1.6984   24.7247 Cl      1  UNL1       -0.0814
     14 C           3.1913   -0.3034   24.4649 C.ar    1  UNL1        0.0679
     15 CL          3.5064   -0.2362   25.9298 Cl      1  UNL1       -0.0814
     16 C           3.8516   -1.3380   23.6025 C.ar    1  UNL1        0.0080
     17 C           2.9396    0.5168   18.1242 C.ar    1  UNL1        0.0536
     18 C           3.7124    1.7567   18.4640 C.ar    1  UNL1        0.0045
     19 C           2.9862    3.0088   18.8575 C.ar    1  UNL1        0.0001
     20 C           1.4872    3.0210   18.9112 C.ar    1  UNL1        0.0000
     21 C           0.7144    1.7811   18.5714 C.ar    1  UNL1        0.0001
     22 C           1.4406    0.5290   18.1779 C.ar    1  UNL1        0.0045
     23 C           4.3866   -3.0661   22.6248 C.3     1  UNL1        0.0071
     24 C           5.5898   -3.9210   22.8924 C.3     1  UNL1        0.0177
     25 C           6.8482   -3.2999   23.4223 C.3     1  UNL1        0.0721
     26 C           7.6612   -3.2891   27.8482 C.3     1  UNL1        0.0819
     27 C           7.5408   -4.5898   27.1110 C.3     1  UNL1        0.0398
     28 C           7.2698   -4.5934   25.6357 C.3     1  UNL1        0.0741
     29 N           7.1192   -3.2962   24.8976 N.3     1  UNL1       -0.2725
     30 C           7.2397   -1.9955   25.6348 C.3     1  UNL1        0.0741
     31 C           7.5107   -1.9919   27.1101 C.3     1  UNL1        0.0398
     32 C           7.8800   -4.2505   28.9787 C.ar    1  UNL1       -0.0060
     33 C           9.2075   -4.9303   29.1388 C.ar    1  UNL1       -0.0027
     34 C           9.4262   -5.8916   30.2693 C.ar    1  UNL1       -0.0003
     35 C           8.3175   -6.1731   31.2396 C.ar    1  UNL1       -0.0000
     36 C           6.9901   -5.4933   31.0795 C.ar    1  UNL1       -0.0003
     37 C           6.7713   -4.5320   29.9490 C.ar    1  UNL1       -0.0027
     38 C           6.8801   -0.6092   30.6693 C.3     1  UNL1        0.0948
     39 C           6.6837   -1.5761   29.5394 C.2     1  UNL1        0.2263
     40 O           5.3133   -1.7968   28.9708 O.2     1  UNL1       -0.2748
     41 N           7.8577   -2.3222   28.9781 N.am    1  UNL1       -0.2774
     42 C           9.2281   -2.1015   29.5466 C.3     1  UNL1        0.1150
@<TRIPOS>BOND
     1    38    39    1
     2    39    40    2
     3    39    41   am
     4    41    42    1
     5    41    26    1
     6    26    32    1
     7    32    33   ar
     8    33    34   ar
     9    34    35   ar
    10    35    36   ar
    11    36    37   ar
    12    26    27    1
    13    27    28    1
    14    28    29    1
    15    29    25    1
    16    25    24    1
    17    24    23    1
    18     1    23    1
    19     1     9    1
    20     9    10   ar
    21    10    11   ar
    22    11    12   ar
    23    12    13    1
    24    12    14   ar
    25    14    15    1
    26    14    16   ar
    27     1     2    1
    28     2     3    1
    29     3     4    1
    30     4     5    1
    31     5     6   am
    32     6     7    2
    33     6    17    1
    34    17    18   ar
    35    18    19   ar
    36    19    20   ar
    37    20    21   ar
    38    21    22   ar
    39     5     8    1
    40    29    30    1
    41    30    31    1
    42    31    26    1
    43    37    32   ar
    44     8     1    1
    45    16     9   ar
    46    22    17   ar
@<TRIPOS>MOLECULE
*****
 42 46 0 0 0
SMALL
GASTEIGER

@<TRIPOS>ATOM
      1 C           4.9572   -1.1602   27.0813 C.3     1  UNL1        0.0373
      2 C           6.0878   -1.7644   27.8602 C.3     1  UNL1        0.0075
      3 C           6.0334   -1.7960   29.3589 C.3     1  UNL1        0.0219
      4 C           4.8484   -1.2235   30.0787 C.3     1  UNL1        0.0937
      5 N           3.7178   -0.6193   29.2997 N.am    1  UNL1       -0.2758
      6 C           2.5328   -0.0468   30.0195 C.2     1  UNL1        0.2490
      7 O           2.4785   -0.0785   31.5182 O.2     1  UNL1       -0.2699
      8 C           3.7722   -0.5877   27.8010 C.3     1  UNL1        0.0976
      9 C           4.1395   -0.6993   25.9112 C.ar    1  UNL1       -0.0203
     10 C           3.9634   -1.5940   24.7203 C.ar    1  UNL1       -0.0033
     11 C           3.1458   -1.1331   23.5502 C.ar    1  UNL1        0.0119
     12 C           2.5041    0.2227   23.5712 C.ar    1  UNL1        0.0682
     13 CL          1.6865    0.6837   22.4012 Cl      1  UNL1       -0.0814
     14 C           2.6802    1.1174   24.7622 C.ar    1  UNL1        0.0679
     15 CL          2.0386    2.4731   24.7832 Cl      1  UNL1       -0.0814
     16 C           3.4979    0.6565   25.9322 C.ar    1  UNL1        0.0080
     17 C           1.4022    0.5573   29.2406 C.ar    1  UNL1        0.0536
     18 C           0.1979   -0.2705   28.9022 C.ar    1  UNL1        0.0045
     19 C          -0.9327    0.3337   28.1233 C.ar    1  UNL1        0.0001
     20 C          -0.8590    1.7656   27.6828 C.ar    1  UNL1        0.0000
     21 C           0.3452    2.5935   28.0211 C.ar    1  UNL1        0.0001
     22 C           1.4759    1.9893   28.8000 C.ar    1  UNL1        0.0045
     23 C           5.8582   -1.5727   25.9552 C.3     1  UNL1        0.0071
     24 C           7.3083   -1.1894   25.9761 C.3     1  UNL1        0.0177
     25 C           8.0450   -0.9710   24.6878 C.3     1  UNL1        0.0721
     26 C           5.9243   -1.5379   20.7595 C.3     1  UNL1        0.0819
     27 C           5.8143   -0.2323   21.4896 C.3     1  UNL1        0.0398
     28 C           6.5212   -0.0432   22.7990 C.3     1  UNL1        0.0741
     29 N           7.3381   -1.1600   23.3784 N.3     1  UNL1       -0.2725
     30 C           7.4481   -2.4657   22.6483 C.3     1  UNL1        0.0741
     31 C           6.7412   -2.6547   21.3389 C.3     1  UNL1        0.0398
     32 C           5.0388   -0.7837   19.8123 C.ar    1  UNL1       -0.0060
     33 C           5.6289    0.2390   18.8873 C.ar    1  UNL1       -0.0027
     34 C           4.7434    0.9932   17.9402 C.ar    1  UNL1       -0.0003
     35 C           3.2678    0.7246   17.9181 C.ar    1  UNL1       -0.0000
     36 C           2.6777   -0.2982   18.8431 C.ar    1  UNL1       -0.0003
     37 C           3.5632   -1.0523   19.7903 C.ar    1  UNL1       -0.0027
     38 C           4.6566   -4.8147   18.9139 C.3     1  UNL1        0.0948
     39 C           4.8542   -3.7709   19.9730 C.2     1  UNL1        0.2263
     40 O           4.1790   -3.9163   21.3045 O.2     1  UNL1       -0.2748
     41 N           5.7268   -2.5817   19.7005 N.am    1  UNL1       -0.2774
     42 C           6.4020   -2.4363   18.3690 C.3     1  UNL1        0.1150
@<TRIPOS>BOND
     1    38    39    1
     2    39    40    2
     3    39    41   am
     4    41    42    1
     5    41    26    1
     6    26    32    1
     7    32    33   ar
     8    33    34   ar
     9    34    35   ar
    10    35    36   ar
    11    36    37   ar
    12    26    27    1
    13    27    28    1
    14    28    29    1
    15    29    25    1
    16    25    24    1
    17    24    23    1
    18     1    23    1
    19     1     9    1
    20     9    10   ar
    21    10    11   ar
    22    11    12   ar
    23    12    13    1
    24    12    14   ar
    25    14    15    1
    26    14    16   ar
    27     1     2    1
    28     2     3    1
    29     3     4    1
    30     4     5    1
    31     5     6   am
    32     6     7    2
    33     6    17    1
    34    17    18   ar
    35    18    19   ar
    36    19    20   ar
    37    20    21   ar
    38    21    22   ar
    39     5     8    1
    40    29    30    1
    41    30    31    1
    42    31    26    1
    43    37    32   ar
    44     8     1    1
    45    16     9   ar
    46    22    17   ar
@<TRIPOS>MOLECULE
*****
 42 46 0 0 0
SMALL
GASTEIGER

@<TRIPOS>ATOM
      1 C           7.9897   -5.6547   24.9016 C.3     1  UNL1        0.0373
      2 C           8.4373   -6.8886   24.1755 C.3     1  UNL1        0.0075
      3 C           9.0474   -8.0275   24.9375 C.3     1  UNL1        0.0219
      4 C           9.2099   -7.9325   26.4257 C.3     1  UNL1        0.0937
      5 N           8.7623   -6.6986   27.1518 N.am    1  UNL1       -0.2758
      6 C           8.9249   -6.6036   28.6399 C.2     1  UNL1        0.2490
      7 O           9.5350   -7.7425   29.4020 O.2     1  UNL1       -0.2699
      8 C           8.1523   -5.5597   26.3897 C.3     1  UNL1        0.0976
      9 C           7.4166   -4.2891   25.1395 C.ar    1  UNL1       -0.0203
     10 C           8.0986   -3.3434   26.0831 C.ar    1  UNL1       -0.0033
     11 C           7.5255   -1.9778   26.3209 C.ar    1  UNL1        0.0119
     12 C           6.2702   -1.5578   25.6152 C.ar    1  UNL1        0.0682
     13 CL          5.6970   -0.1922   25.8530 Cl      1  UNL1       -0.0814
     14 C           5.5881   -2.5036   24.6715 C.ar    1  UNL1        0.0679
     15 CL          4.3329   -2.0837   23.9657 Cl      1  UNL1       -0.0814
     16 C           6.1613   -3.8692   24.4337 C.ar    1  UNL1        0.0080
     17 C           8.4773   -5.3697   29.3660 C.ar    1  UNL1        0.0536
     18 C           9.4160   -4.2103   29.5238 C.ar    1  UNL1        0.0045
     19 C           8.9684   -2.9764   30.2499 C.ar    1  UNL1        0.0001
     20 C           7.5823   -2.9019   30.8182 C.ar    1  UNL1        0.0000
     21 C           6.6437   -4.0612   30.6605 C.ar    1  UNL1        0.0001
     22 C           7.0912   -5.2951   29.9343 C.ar    1  UNL1        0.0045
     23 C           7.6282   -5.2755   23.4960 C.3     1  UNL1        0.0071
     24 C           8.6827   -5.2570   22.4294 C.3     1  UNL1        0.0177
     25 C           8.3679   -4.6989   21.0731 C.3     1  UNL1        0.0721
     26 C           5.6309   -1.1486   20.6810 C.3     1  UNL1        0.0819
     27 C           5.2158   -2.4801   20.1291 C.3     1  UNL1        0.0398
     28 C           6.1281   -3.6636   20.2597 C.3     1  UNL1        0.0741
     29 N           7.4556   -3.5154   20.9424 N.3     1  UNL1       -0.2725
     30 C           7.8707   -2.1839   21.4943 C.3     1  UNL1        0.0741
     31 C           6.9583   -1.0005   21.3637 C.3     1  UNL1        0.0398
     32 C           4.2853   -0.7911   20.1227 C.ar    1  UNL1       -0.0060
     33 C           4.1856   -0.0490   18.8230 C.ar    1  UNL1       -0.0027
     34 C           2.8401    0.3085   18.2647 C.ar    1  UNL1       -0.0003
     35 C           1.5942   -0.0762   19.0062 C.ar    1  UNL1       -0.0000
     36 C           1.6938   -0.8183   20.3059 C.ar    1  UNL1       -0.0003
     37 C           3.0394   -1.1757   20.8642 C.ar    1  UNL1       -0.0027
     38 C           6.3206    2.7590   20.6052 C.3     1  UNL1        0.0948
     39 C           6.3728    1.3032   20.2472 C.2     1  UNL1        0.2263
     40 O           7.2191    0.8437   19.0972 O.2     1  UNL1       -0.2748
     41 N           5.5787    0.3072   21.0391 N.am    1  UNL1       -0.2774
     42 C           4.7323    0.7667   22.1891 C.3     1  UNL1        0.1150
@<TRIPOS>BOND
     1    38    39    1
     2    39    40    2
     3    39    41   am
     4    41    42    1
     5    41    26    1
     6    26    32    1
     7    32    33   ar
     8    33    34   ar
     9    34    35   ar
    10    35    36   ar
    11    36    37   ar
    12    26    27    1
    13    27    28    1
    14    28    29    1
    15    29    25    1
    16    25    24    1
    17    24    23    1
    18     1    23    1
    19     1     9    1
    20     9    10   ar
    21    10    11   ar
    22    11    12   ar
    23    12    13    1
    24    12    14   ar
    25    14    15    1
    26    14    16   ar
    27     1     2    1
    28     2     3    1
    29     3     4    1
    30     4     5    1
    31     5     6   am
    32     6     7    2
    33     6    17    1
    34    17    18   ar
    35    18    19   ar
    36    19    20   ar
    37    20    21   ar
    38    21    22   ar
    39     5     8    1
    40    29    30    1
    41    30    31    1
    42    31    26    1
    43    37    32   ar
    44     8     1    1
    45    16     9   ar
    46    22    17   ar
@<TRIPOS>MOLECULE
*****
 42 46 0 0 0
SMALL
GASTEIGER

@<TRIPOS>ATOM
      1 C           5.8359   -1.7788   23.0156 C.3     1  UNL1        0.0373
      2 C           6.7929   -2.9328   23.0655 C.3     1  UNL1        0.0075
      3 C           6.8842   -3.8820   21.9076 C.3     1  UNL1        0.0219
      4 C           6.0186   -3.6772   20.6999 C.3     1  UNL1        0.0937
      5 N           5.0616   -2.5232   20.6500 N.am    1  UNL1       -0.2758
      6 C           4.1960   -2.3184   19.4422 C.2     1  UNL1        0.2490
      7 O           4.2873   -3.2676   18.2843 O.2     1  UNL1       -0.2699
      8 C           4.9703   -1.5740   21.8078 C.3     1  UNL1        0.0976
      9 C           5.0897   -0.5474   23.4359 C.ar    1  UNL1       -0.0203
     10 C           5.8419    0.6589   23.9144 C.ar    1  UNL1       -0.0033
     11 C           5.0956    1.8903   24.3347 C.ar    1  UNL1        0.0119
     12 C           3.5969    1.9155   24.2764 C.ar    1  UNL1        0.0682
     13 CL          2.8505    3.1468   24.6967 Cl      1  UNL1       -0.0814
     14 C           2.8445    0.7092   23.7979 C.ar    1  UNL1        0.0679
     15 CL          1.3459    0.7343   23.7396 Cl      1  UNL1       -0.0814
     16 C           3.5909   -0.5222   23.3776 C.ar    1  UNL1        0.0080
     17 C           3.2390   -1.1644   19.3923 C.ar    1  UNL1        0.0536
     18 C           3.5699    0.0496   18.5756 C.ar    1  UNL1        0.0045
     19 C           2.6130    1.2036   18.5257 C.ar    1  UNL1        0.0001
     20 C           1.3251    1.1437   19.2924 C.ar    1  UNL1        0.0000
     21 C           0.9942   -0.0702   20.1090 C.ar    1  UNL1        0.0001
     22 C           1.9512   -1.2243   20.1590 C.ar    1  UNL1        0.0045
     23 C           6.4424   -1.5559   24.3694 C.3     1  UNL1        0.0071
     24 C           6.3520   -2.6258   25.4169 C.3     1  UNL1        0.0177
     25 C           6.3983   -2.2580   26.8704 C.3     1  UNL1        0.0721
     26 C           3.0913    0.2033   28.6746 C.3     1  UNL1        0.0819
     27 C           2.8446   -0.5784   27.4185 C.3     1  UNL1        0.0398
     28 C           3.9470   -1.3988   26.8170 C.3     1  UNL1        0.0741
     29 N           5.2960   -1.4375   27.4719 N.3     1  UNL1       -0.2725
     30 C           5.5426   -0.6558   28.7280 C.3     1  UNL1        0.0741
     31 C           4.4403    0.1646   29.3295 C.3     1  UNL1        0.0398
     32 C           1.6546    0.5561   28.4262 C.ar    1  UNL1       -0.0060
     33 C           0.5634   -0.2368   29.0822 C.ar    1  UNL1       -0.0027
     34 C          -0.8732    0.1160   28.8338 C.ar    1  UNL1       -0.0003
     35 C          -1.2185    1.2617   27.9292 C.ar    1  UNL1       -0.0000
     36 C          -0.1272    2.0546   27.2731 C.ar    1  UNL1       -0.0003
     37 C           1.3093    1.7018   27.5216 C.ar    1  UNL1       -0.0027
     38 C           2.3358    1.4281   32.3732 C.3     1  UNL1        0.0948
     39 C           2.5881    0.5238   31.2033 C.2     1  UNL1        0.2263
     40 O           2.5894   -0.9642   31.3922 O.2     1  UNL1       -0.2748
     41 N           2.8390    1.1076   29.8446 N.am    1  UNL1       -0.2774
     42 C           2.8376    2.5957   29.6557 C.3     1  UNL1        0.1150
@<TRIPOS>BOND
     1    38    39    1
     2    39    40    2
     3    39    41   am
     4    41    42    1
     5    41    26    1
     6    26    32    1
     7    32    33   ar
     8    33    34   ar
     9    34    35   ar
    10    35    36   ar
    11    36    37   ar
    12    26    27    1
    13    27    28    1
    14    28    29    1
    15    29    25    1
    16    25    24    1
    17    24    23    1
    18     1    23    1
    19     1     9    1
    20     9    10   ar
    21    10    11   ar
    22    11    12   ar
    23    12    13    1
    24    12    14   ar
    25    14    15    1
    26    14    16   ar
    27     1     2    1
    28     2     3    1
    29     3     4    1
    30     4     5    1
    31     5     6   am
    32     6     7    2
    33     6    17    1
    34    17    18   ar
    35    18    19   ar
    36    19    20   ar
    37    20    21   ar
    38    21    22   ar
    39     5     8    1
    40    29    30    1
    41    30    31    1
    42    31    26    1
    43    37    32   ar
    44     8     1    1
    45    16     9   ar
    46    22    17   ar
@<TRIPOS>MOLECULE
*****
 42 46 0 0 0
SMALL
GASTEIGER

@<TRIPOS>ATOM
      1 C           0.9768    2.3658   25.0046 C.3     1  UNL1        0.0373
      2 C          -0.4718    2.7321   25.1362 C.3     1  UNL1        0.0075
      3 C          -1.2579    2.2671   26.3262 C.3     1  UNL1        0.0219
      4 C          -0.5953    1.4359   27.3845 C.3     1  UNL1        0.0937
      5 N           0.8534    1.0696   27.2528 N.am    1  UNL1       -0.2758
      6 C           1.5160    0.2384   28.3111 C.2     1  UNL1        0.2490
      7 O           0.7299   -0.2266   29.5011 O.2     1  UNL1       -0.2699
      8 C           1.6394    1.5346   26.0629 C.3     1  UNL1        0.0976
      9 C           2.3624    2.2777   24.4369 C.ar    1  UNL1       -0.0203
     10 C           3.0024    0.9377   24.2252 C.ar    1  UNL1       -0.0033
     11 C           4.3880    0.8496   23.6575 C.ar    1  UNL1        0.0119
     12 C           5.1337    2.1015   23.3014 C.ar    1  UNL1        0.0682
     13 CL          6.5193    2.0134   22.7337 Cl      1  UNL1       -0.0814
     14 C           4.4937    3.4416   23.5131 C.ar    1  UNL1        0.0679
     15 CL          5.2393    4.6934   23.1570 Cl      1  UNL1       -0.0814
     16 C           3.1081    3.5296   24.0808 C.ar    1  UNL1        0.0080
     17 C           2.9646   -0.1279   28.1795 C.ar    1  UNL1        0.0536
     18 C           4.0120    0.6951   28.8693 C.ar    1  UNL1        0.0045
     19 C           5.4606    0.3288   28.7377 C.ar    1  UNL1        0.0001
     20 C           5.8619   -0.8604   27.9162 C.ar    1  UNL1        0.0000
     21 C           4.8146   -1.6833   27.2264 C.ar    1  UNL1        0.0001
     22 C           3.3659   -1.3171   27.3580 C.ar    1  UNL1        0.0045
     23 C           0.7953    3.1665   23.7491 C.3     1  UNL1        0.0071
     24 C          -0.2767    2.7918   22.7691 C.3     1  UNL1        0.0177
     25 C           0.0706    2.5676   21.3271 C.3     1  UNL1        0.0721
     26 C           3.3185   -0.3442   20.2214 C.3     1  UNL1        0.0819
     27 C           2.0485   -0.8394   20.8474 C.3     1  UNL1        0.0398
     28 C           0.9659    0.1312   21.2160 C.3     1  UNL1        0.0741
     29 N           1.1532    1.5970   20.9585 N.3     1  UNL1       -0.2725
     30 C           2.4232    2.0923   20.3326 C.3     1  UNL1        0.0741
     31 C           3.5058    1.1217   19.9640 C.3     1  UNL1        0.0398
     32 C           3.6070   -1.8155   20.2670 C.ar    1  UNL1       -0.0060
     33 C           3.2948   -2.6781   19.0802 C.ar    1  UNL1       -0.0027
     34 C           3.5834   -4.1493   19.1257 C.ar    1  UNL1       -0.0003
     35 C           4.1841   -4.7580   20.3581 C.ar    1  UNL1       -0.0000
     36 C           4.4963   -3.8954   21.5448 C.ar    1  UNL1       -0.0003
     37 C           4.2077   -2.4242   21.4993 C.ar    1  UNL1       -0.0027
     38 C           6.2188   -0.2687   17.5135 C.3     1  UNL1        0.0948
     39 C           4.8485   -0.2530   18.1237 C.2     1  UNL1        0.2263
     40 O           3.6382   -0.1303   17.2462 O.2     1  UNL1       -0.2748
     41 N           4.6887   -0.3599   19.6113 N.am    1  UNL1       -0.2774
     42 C           5.8991   -0.4826   20.4887 C.3     1  UNL1        0.1150
@<TRIPOS>BOND
     1    38    39    1
     2    39    40    2
     3    39    41   am
     4    41    42    1
     5    41    26    1
     6    26    32    1
     7    32    33   ar
     8    33    34   ar
     9    34    35   ar
    10    35    36   ar
    11    36    37   ar
    12    26    27    1
    13    27    28    1
    14    28    29    1
    15    29    25    1
    16    25    24    1
    17    24    23    1
    18     1    23    1
    19     1     9    1
    20     9    10   ar
    21    10    11   ar
    22    11    12   ar
    23    12    13    1
    24    12    14   ar
    25    14    15    1
    26    14    16   ar
    27     1     2    1
    28     2     3    1
    29     3     4    1
    30     4     5    1
    31     5     6   am
    32     6     7    2
    33     6    17    1
    34    17    18   ar
    35    18    19   ar
    36    19    20   ar
    37    20    21   ar
    38    21    22   ar
    39     5     8    1
    40    29    30    1
    41    30    31    1
    42    31    26    1
    43    37    32   ar
    44     8     1    1
    45    16     9   ar
    46    22    17   ar
@<TRIPOS>MOLECULE
*****
 42 46 0 0 0
SMALL
GASTEIGER

@<TRIPOS>ATOM
      1 C           2.8145   -0.1048   23.6624 C.3     1  UNL1        0.0373
      2 C           2.9419    0.1112   25.1413 C.3     1  UNL1        0.0075
      3 C           3.8230   -0.7876   25.9574 C.3     1  UNL1        0.0219
      4 C           4.5766   -1.9024   25.2945 C.3     1  UNL1        0.0937
      5 N           4.4491   -2.1184   23.8156 N.am    1  UNL1       -0.2758
      6 C           5.2027   -3.2331   23.1527 C.2     1  UNL1        0.2490
      7 O           6.0838   -4.1319   23.9688 O.2     1  UNL1       -0.2699
      8 C           3.5681   -1.2196   22.9996 C.3     1  UNL1        0.0976
      9 C           2.3719    0.0898   22.2425 C.ar    1  UNL1       -0.0203
     10 C           2.6336   -0.9780   21.2221 C.ar    1  UNL1       -0.0033
     11 C           2.1910   -0.7833   19.8022 C.ar    1  UNL1        0.0119
     12 C           1.4865    0.4794   19.4026 C.ar    1  UNL1        0.0682
     13 CL          1.0439    0.6741   17.9827 Cl      1  UNL1       -0.0814
     14 C           1.2248    1.5473   20.4230 C.ar    1  UNL1        0.0679
     15 CL          0.5204    2.8099   20.0235 Cl      1  UNL1       -0.0814
     16 C           1.6674    1.3525   21.8429 C.ar    1  UNL1        0.0080
     17 C           5.0753   -3.4492   21.6739 C.ar    1  UNL1        0.0536
     18 C           4.0145   -4.3646   21.1383 C.ar    1  UNL1        0.0045
     19 C           3.8870   -4.5806   19.6595 C.ar    1  UNL1        0.0001
     20 C           4.8203   -3.8813   18.7161 C.ar    1  UNL1        0.0000
     21 C           5.8810   -2.9659   19.2517 C.ar    1  UNL1        0.0001
     22 C           6.0085   -2.7498   20.7306 C.ar    1  UNL1        0.0045
     23 C           1.9071    1.0776   23.8322 C.3     1  UNL1        0.0071
     24 C           0.9169    1.1074   24.9586 C.3     1  UNL1        0.0177
     25 C           0.3757    2.4185   25.4467 C.3     1  UNL1        0.0721
     26 C          -3.1447    4.3097   23.3778 C.3     1  UNL1        0.0819
     27 C          -3.3093    3.7138   24.7445 C.3     1  UNL1        0.0398
     28 C          -2.1359    3.0834   25.4341 C.3     1  UNL1        0.0741
     29 N          -0.7978    3.0489   24.7570 N.3     1  UNL1       -0.2725
     30 C          -0.6332    3.6447   23.3904 C.3     1  UNL1        0.0741
     31 C          -1.8066    4.2751   22.7007 C.3     1  UNL1        0.0398
     32 C          -4.6013    4.5843   23.6079 C.ar    1  UNL1       -0.0060
     33 C          -5.0197    5.6460   24.5814 C.ar    1  UNL1       -0.0027
     34 C          -6.4762    5.9206   24.8115 C.ar    1  UNL1       -0.0003
     35 C          -7.5144    5.1334   24.0681 C.ar    1  UNL1       -0.0000
     36 C          -7.0960    4.0717   23.0947 C.ar    1  UNL1       -0.0003
     37 C          -5.6395    3.7972   22.8646 C.ar    1  UNL1       -0.0027
     38 C          -3.9445    4.9004   19.5357 C.3     1  UNL1        0.0948
     39 C          -3.6032    4.2091   20.8225 C.2     1  UNL1        0.2263
     40 O          -3.3793    2.7261   20.8407 O.2     1  UNL1       -0.2748
     41 N          -3.4859    5.0009   22.0910 N.am    1  UNL1       -0.2774
     42 C          -3.7099    6.4840   22.0728 C.3     1  UNL1        0.1150
@<TRIPOS>BOND
     1    38    39    1
     2    39    40    2
     3    39    41   am
     4    41    42    1
     5    41    26    1
     6    26    32    1
     7    32    33   ar
     8    33    34   ar
     9    34    35   ar
    10    35    36   ar
    11    36    37   ar
    12    26    27    1
    13    27    28    1
    14    28    29    1
    15    29    25    1
    16    25    24    1
    17    24    23    1
    18     1    23    1
    19     1     9    1
    20     9    10   ar
    21    10    11   ar
    22    11    12   ar
    23    12    13    1
    24    12    14   ar
    25    14    15    1
    26    14    16   ar
    27     1     2    1
    28     2     3    1
    29     3     4    1
    30     4     5    1
    31     5     6   am
    32     6     7    2
    33     6    17    1
    34    17    18   ar
    35    18    19   ar
    36    19    20   ar
    37    20    21   ar
    38    21    22   ar
    39     5     8    1
    40    29    30    1
    41    30    31    1
    42    31    26    1
    43    37    32   ar
    44     8     1    1
    45    16     9   ar
    46    22    17   ar
