@<TRIPOS>MOLECULE
*****
 33 34 0 0 0
SMALL
GASTEIGER

@<TRIPOS>ATOM
      1 N           0.8695    1.5916   18.1952 N.am    1  UNL1       -0.3046
      2 C           1.1866    3.0211   18.5208 C.2     1  UNL1        0.2425
      3 O           2.4803    3.3672   19.1966 O.2     1  UNL1       -0.2733
      4 H           0.0205    1.3645   17.7517 H       1  UNL1        0.1494
      5 C           1.6569   -0.2961   19.7973 C.3     1  UNL1        0.0193
      6 C           2.6334   -1.3795   20.1474 C.3     1  UNL1        0.0176
      7 C           3.7992   -1.6585   19.2457 C.3     1  UNL1        0.0576
      8 C           3.9884   -0.8542   17.9938 C.3     1  UNL1        0.0176
      9 C           3.0119    0.2291   17.6437 C.3     1  UNL1        0.0209
     10 C           1.8461    0.5082   18.5454 C.3     1  UNL1        0.0716
     11 N           4.7758   -2.7420   19.5959 N.3     1  UNL1       -0.2741
     12 C           6.2070   -2.6308   19.1610 C.3     1  UNL1        0.0896
     13 C           4.3211   -3.9365   20.3810 C.3     1  UNL1        0.0576
     14 C           3.6270   -5.0706   19.6866 C.3     1  UNL1        0.0173
     15 C           4.5604   -3.9969   21.8606 C.3     1  UNL1        0.0173
     16 C           0.4911   -0.0171   20.6990 C.3     1  UNL1        0.0017
     17 C          -0.2142    2.2500   21.7539 C.3     1  UNL1        0.0000
     18 C           0.6161    1.0014   21.7931 C.3     1  UNL1        0.0001
     19 C           0.2101    4.1045   18.1706 C.3     1  UNL1        0.1759
     20 N          -1.1537    4.1155   18.7952 N.am    1  UNL1       -0.2931
     21 C          -2.3720    3.9346   17.9392 C.2     1  UNL1        0.2462
     22 O          -2.2267    3.7426   16.4586 O.2     1  UNL1       -0.2701
     23 H          -1.2491    4.2416   19.7669 H       1  UNL1        0.1502
     24 C          -3.7358    3.9457   18.5637 C.ar    1  UNL1        0.0533
     25 C          -4.9494    4.1700   17.7111 C.ar    1  UNL1        0.0045
     26 C          -6.3131    4.1810   18.3356 C.ar    1  UNL1        0.0001
     27 C          -6.4633    3.9677   19.8128 C.ar    1  UNL1        0.0039
     28 C          -5.2498    3.7434   20.6654 C.ar    1  UNL1        0.0716
     29 C          -3.8860    3.7324   20.0408 C.ar    1  UNL1        0.0084
     30 C          -5.3999    3.5302   22.1425 C.3     1  UNL1        0.4186
     31 F          -5.5501    3.3169   23.6197 F       1  UNL1       -0.1659
     32 F          -6.8165    4.0181   22.0689 F       1  UNL1       -0.1659
     33 F          -3.9834    3.0422   22.2161 F       1  UNL1       -0.1659
@<TRIPOS>BOND
     1    17    18    1
     2    18    16    1
     3     5    16    1
     4     5     6    1
     5     6     7    1
     6     7    11    1
     7    11    12    1
     8    11    13    1
     9    13    14    1
    10    13    15    1
    11     7     8    1
    12     8     9    1
    13     9    10    1
    14    10     1    1
    15     1     2   am
    16     2     3    2
    17     2    19    1
    18    19    20    1
    19    20    21   am
    20    21    22    2
    21    21    24    1
    22    24    25   ar
    23    25    26   ar
    24    26    27   ar
    25    27    28   ar
    26    28    30    1
    27    30    31    1
    28    30    32    1
    29    30    33    1
    30    28    29   ar
    31    10     5    1
    32    29    24   ar
    33     1     4    1
    34    20    23    1
@<TRIPOS>MOLECULE
*****
 33 34 0 0 0
SMALL
GASTEIGER

@<TRIPOS>ATOM
      1 N          -6.3270  -17.0798   23.5802 N.am    1  UNL1       -0.3046
      2 C          -6.5568  -15.6064   23.7419 C.2     1  UNL1        0.2425
      3 O          -5.6048  -14.6264   23.1227 O.2     1  UNL1       -0.2733
      4 H          -6.9518  -17.7229   23.9867 H       1  UNL1        0.1494
      5 C          -5.3370  -18.5820   21.7058 C.3     1  UNL1        0.0193
      6 C          -4.1552  -19.0755   20.9250 C.3     1  UNL1        0.0176
      7 C          -2.7816  -18.5603   21.2376 C.3     1  UNL1        0.0576
      8 C          -2.5897  -17.5517   22.3311 C.3     1  UNL1        0.0176
      9 C          -3.7715  -17.0582   23.1119 C.3     1  UNL1        0.0209
     10 C          -5.1452  -17.5733   22.7993 C.3     1  UNL1        0.0716
     11 N          -1.5998  -19.0539   20.4567 N.3     1  UNL1       -0.2741
     12 C          -1.1988  -20.4972   20.5351 C.3     1  UNL1        0.0896
     13 C          -0.8190  -18.1042   19.5973 C.3     1  UNL1        0.0576
     14 C           0.5152  -17.5982   20.0597 C.3     1  UNL1        0.0173
     15 C          -1.3725  -17.6605   18.2757 C.3     1  UNL1        0.0173
     16 C          -6.7107  -19.0972   21.3932 C.3     1  UNL1        0.0017
     17 C          -8.7229  -19.8414   22.8585 C.3     1  UNL1        0.0000
     18 C          -7.3573  -20.1050   22.2966 C.3     1  UNL1        0.0001
     19 C          -7.7386  -15.1128   24.5228 C.3     1  UNL1        0.1759
     20 N          -9.0981  -15.6958   24.2745 N.am    1  UNL1       -0.2931
     21 C          -9.4630  -16.1919   22.9067 C.2     1  UNL1        0.2462
     22 O          -8.4683  -16.1049   21.7873 O.2     1  UNL1       -0.2701
     23 H          -9.7510  -15.7528   25.0091 H       1  UNL1        0.1502
     24 C         -10.8226  -16.7749   22.6583 C.ar    1  UNL1        0.0533
     25 C         -11.3772  -16.8176   21.2653 C.ar    1  UNL1        0.0045
     26 C         -12.7367  -17.4006   21.0169 C.ar    1  UNL1        0.0001
     27 C         -13.5416  -17.9409   22.1616 C.ar    1  UNL1        0.0039
     28 C         -12.9870  -17.8982   23.5546 C.ar    1  UNL1        0.0716
     29 C         -11.6274  -17.3152   23.8029 C.ar    1  UNL1        0.0084
     30 C         -13.7919  -18.4386   24.6992 C.3     1  UNL1        0.4186
     31 F         -14.5967  -18.9789   25.8439 F       1  UNL1       -0.1659
     32 F         -15.0576  -18.0939   23.9719 F       1  UNL1       -0.1659
     33 F         -12.5261  -18.7833   25.4265 F       1  UNL1       -0.1659
@<TRIPOS>BOND
     1    17    18    1
     2    18    16    1
     3     5    16    1
     4     5     6    1
     5     6     7    1
     6     7    11    1
     7    11    12    1
     8    11    13    1
     9    13    14    1
    10    13    15    1
    11     7     8    1
    12     8     9    1
    13     9    10    1
    14    10     1    1
    15     1     2   am
    16     2     3    2
    17     2    19    1
    18    19    20    1
    19    20    21   am
    20    21    22    2
    21    21    24    1
    22    24    25   ar
    23    25    26   ar
    24    26    27   ar
    25    27    28   ar
    26    28    30    1
    27    30    31    1
    28    30    32    1
    29    30    33    1
    30    28    29   ar
    31    10     5    1
    32    29    24   ar
    33     1     4    1
    34    20    23    1
@<TRIPOS>MOLECULE
*****
 33 34 0 0 0
SMALL
GASTEIGER

@<TRIPOS>ATOM
      1 N           0.3314    1.6085   21.2065 N.am    1  UNL1       -0.3046
      2 C           0.6519    2.9313   20.5761 C.2     1  UNL1        0.2425
      3 O           1.9602    3.1278   19.8692 O.2     1  UNL1       -0.2733
      4 H          -0.5273    1.4795   21.6705 H       1  UNL1        0.1494
      5 C           2.2804    0.2497   22.2578 C.3     1  UNL1        0.0193
      6 C           3.2681   -0.8766   22.1812 C.3     1  UNL1        0.0176
      7 C           3.2946   -1.7704   20.9769 C.3     1  UNL1        0.0576
      8 C           2.3334   -1.5379   19.8491 C.3     1  UNL1        0.0176
      9 C           1.3457   -0.4116   19.9256 C.3     1  UNL1        0.0209
     10 C           1.3192    0.4822   21.1300 C.3     1  UNL1        0.0716
     11 N           4.2824   -2.8967   20.9004 N.3     1  UNL1       -0.2741
     12 C           5.1170   -3.2448   22.0971 C.3     1  UNL1        0.0896
     13 C           4.4354   -3.6748   19.6272 C.3     1  UNL1        0.0576
     14 C           3.6777   -4.9551   19.4349 C.3     1  UNL1        0.0173
     15 C           5.3461   -3.1728   18.5462 C.3     1  UNL1        0.0173
     16 C           2.2538    1.1434   23.4622 C.3     1  UNL1        0.0017
     17 C           0.1508    1.4098   24.9642 C.3     1  UNL1        0.0000
     18 C           1.4642    0.7459   24.6739 C.3     1  UNL1        0.0001
     19 C          -0.3359    4.0576   20.6526 C.3     1  UNL1        0.1759
     20 N          -1.1930    4.2218   21.8725 N.am    1  UNL1       -0.2931
     21 C          -2.5579    3.6015   21.9192 C.2     1  UNL1        0.2462
     22 O          -3.0656    2.8168   20.7459 O.2     1  UNL1       -0.2701
     23 H          -0.8598    4.7368   22.6426 H       1  UNL1        0.1502
     24 C          -3.4152    3.7657   23.1391 C.ar    1  UNL1        0.0533
     25 C          -2.8149    3.6067   24.5045 C.ar    1  UNL1        0.0045
     26 C          -3.6721    3.7709   25.7244 C.ar    1  UNL1        0.0001
     27 C          -5.1296    4.0942   25.5788 C.ar    1  UNL1        0.0039
     28 C          -5.7299    4.2531   24.2135 C.ar    1  UNL1        0.0716
     29 C          -4.8727    4.0889   22.9936 C.ar    1  UNL1        0.0084
     30 C          -7.1874    4.5764   24.0679 C.3     1  UNL1        0.4186
     31 F          -8.6449    4.8996   23.9224 F       1  UNL1       -0.1659
     32 F          -7.1437    5.3514   25.3514 F       1  UNL1       -0.1659
     33 F          -7.2311    3.8013   22.7844 F       1  UNL1       -0.1659
@<TRIPOS>BOND
     1    17    18    1
     2    18    16    1
     3     5    16    1
     4     5     6    1
     5     6     7    1
     6     7    11    1
     7    11    12    1
     8    11    13    1
     9    13    14    1
    10    13    15    1
    11     7     8    1
    12     8     9    1
    13     9    10    1
    14    10     1    1
    15     1     2   am
    16     2     3    2
    17     2    19    1
    18    19    20    1
    19    20    21   am
    20    21    22    2
    21    21    24    1
    22    24    25   ar
    23    25    26   ar
    24    26    27   ar
    25    27    28   ar
    26    28    30    1
    27    30    31    1
    28    30    32    1
    29    30    33    1
    30    28    29   ar
    31    10     5    1
    32    29    24   ar
    33     1     4    1
    34    20    23    1
@<TRIPOS>MOLECULE
*****
 33 34 0 0 0
SMALL
GASTEIGER

@<TRIPOS>ATOM
      1 N           1.7231    0.5562   25.2490 N.am    1  UNL1       -0.3046
      2 C           1.2824    1.6158   24.2832 C.2     1  UNL1        0.2425
      3 O           1.2725    3.0558   24.7028 O.2     1  UNL1       -0.2733
      4 H           1.7296   -0.3890   24.9736 H       1  UNL1        0.1494
      5 C           1.1280    1.1422   27.7092 C.3     1  UNL1        0.0193
      6 C           1.5589    1.5226   29.0947 C.3     1  UNL1        0.0176
      7 C           3.0159    1.6975   29.4055 C.3     1  UNL1        0.0576
      8 C           4.0420    1.4919   28.3308 C.3     1  UNL1        0.0176
      9 C           3.6110    1.1115   26.9454 C.3     1  UNL1        0.0209
     10 C           2.1540    0.9366   26.6346 C.3     1  UNL1        0.0716
     11 N           3.4469    2.0779   30.7910 N.3     1  UNL1       -0.2741
     12 C           4.3790    3.2353   30.9953 C.3     1  UNL1        0.0896
     13 C           2.9457    1.3010   31.9722 C.3     1  UNL1        0.0576
     14 C           2.0512    1.9611   32.9793 C.3     1  UNL1        0.0173
     15 C           3.3390   -0.1360   32.1463 C.3     1  UNL1        0.0173
     16 C          -0.3290    0.9673   27.3984 C.3     1  UNL1        0.0017
     17 C          -1.5726   -0.7119   28.9424 C.3     1  UNL1        0.0000
     18 C          -1.3049    0.6978   28.5052 C.3     1  UNL1        0.0001
     19 C           0.8514    1.2353   22.8976 C.3     1  UNL1        0.1759
     20 N           1.8585    0.7150   21.9153 N.am    1  UNL1       -0.2931
     21 C           1.3993    0.0518   20.6507 C.2     1  UNL1        0.2462
     22 O          -0.0669   -0.0912   20.3685 O.2     1  UNL1       -0.2701
     23 H           2.8209    0.8088   22.1006 H       1  UNL1        0.1502
     24 C           2.4064   -0.4686   19.6683 C.ar    1  UNL1        0.0533
     25 C           2.9812    0.4462   18.6278 C.ar    1  UNL1        0.0045
     26 C           3.9882   -0.0741   17.6454 C.ar    1  UNL1        0.0001
     27 C           4.4205   -1.5093   17.7036 C.ar    1  UNL1        0.0039
     28 C           3.8458   -2.4241   18.7441 C.ar    1  UNL1        0.0716
     29 C           2.8387   -1.9038   19.7265 C.ar    1  UNL1        0.0084
     30 C           4.2781   -3.8593   18.8023 C.3     1  UNL1        0.4186
     31 F           4.7104   -5.2945   18.8605 F       1  UNL1       -0.1659
     32 F           5.6258   -3.4750   18.2677 F       1  UNL1       -0.1659
     33 F           2.9303   -4.2436   19.3370 F       1  UNL1       -0.1659
@<TRIPOS>BOND
     1    17    18    1
     2    18    16    1
     3     5    16    1
     4     5     6    1
     5     6     7    1
     6     7    11    1
     7    11    12    1
     8    11    13    1
     9    13    14    1
    10    13    15    1
    11     7     8    1
    12     8     9    1
    13     9    10    1
    14    10     1    1
    15     1     2   am
    16     2     3    2
    17     2    19    1
    18    19    20    1
    19    20    21   am
    20    21    22    2
    21    21    24    1
    22    24    25   ar
    23    25    26   ar
    24    26    27   ar
    25    27    28   ar
    26    28    30    1
    27    30    31    1
    28    30    32    1
    29    30    33    1
    30    28    29   ar
    31    10     5    1
    32    29    24   ar
    33     1     4    1
    34    20    23    1
@<TRIPOS>MOLECULE
*****
 33 34 0 0 0
SMALL
GASTEIGER

@<TRIPOS>ATOM
      1 N           6.5641   -4.3939   24.3341 N.am    1  UNL1       -0.3046
      2 C           7.4309   -3.7948   23.2666 C.2     1  UNL1        0.2425
      3 O           8.6429   -2.9962   23.6450 O.2     1  UNL1       -0.2733
      4 H           5.7686   -4.9181   24.0857 H       1  UNL1        0.1494
      5 C           7.8034   -5.1747   26.4799 C.3     1  UNL1        0.0193
      6 C           8.1485   -4.9752   27.9260 C.3     1  UNL1        0.0176
      7 C           7.5996   -3.7955   28.6722 C.3     1  UNL1        0.0576
      8 C           6.7054   -2.8153   27.9725 C.3     1  UNL1        0.0176
      9 C           6.3603   -3.0148   26.5265 C.3     1  UNL1        0.0209
     10 C           6.9093   -4.1945   25.7802 C.3     1  UNL1        0.0716
     11 N           7.9448   -3.5960   30.1183 N.3     1  UNL1       -0.2741
     12 C           9.1453   -2.7805   30.4972 C.3     1  UNL1        0.0896
     13 C           7.0894   -4.2121   31.1855 C.3     1  UNL1        0.0576
     14 C           7.1009   -5.6979   31.3911 C.3     1  UNL1        0.0173
     15 C           6.2226   -3.3424   32.0470 C.3     1  UNL1        0.0173
     16 C           8.3524   -6.3544   25.7337 C.3     1  UNL1        0.0017
     17 C           8.6550   -8.6975   26.8144 C.3     1  UNL1        0.0000
     18 C           7.8293   -7.7312   26.0178 C.3     1  UNL1        0.0001
     19 C           7.0857   -3.9943   21.8205 C.3     1  UNL1        0.1759
     20 N           6.3320   -2.9324   21.0759 N.am    1  UNL1       -0.2931
     21 C           5.2918   -3.3189   20.0667 C.2     1  UNL1        0.2462
     22 O           5.0053   -4.7673   19.8021 O.2     1  UNL1       -0.2701
     23 H           6.5201   -1.9818   21.2496 H       1  UNL1        0.1502
     24 C           4.5381   -2.2570   19.3221 C.ar    1  UNL1        0.0533
     25 C           5.0881   -1.7062   18.0399 C.ar    1  UNL1        0.0045
     26 C           4.3344   -0.6444   17.2954 C.ar    1  UNL1        0.0001
     27 C           3.0307   -0.1334   17.8331 C.ar    1  UNL1        0.0039
     28 C           2.4806   -0.6842   19.1152 C.ar    1  UNL1        0.0716
     29 C           3.2344   -1.7460   19.8598 C.ar    1  UNL1        0.0084
     30 C           1.1769   -0.1731   19.6529 C.3     1  UNL1        0.4186
     31 F          -0.1269    0.3379   20.1905 F       1  UNL1       -0.1659
     32 F           0.9086    0.5155   18.3476 F       1  UNL1       -0.1659
     33 F           1.4452   -0.8618   20.9582 F       1  UNL1       -0.1659
@<TRIPOS>BOND
     1    17    18    1
     2    18    16    1
     3     5    16    1
     4     5     6    1
     5     6     7    1
     6     7    11    1
     7    11    12    1
     8    11    13    1
     9    13    14    1
    10    13    15    1
    11     7     8    1
    12     8     9    1
    13     9    10    1
    14    10     1    1
    15     1     2   am
    16     2     3    2
    17     2    19    1
    18    19    20    1
    19    20    21   am
    20    21    22    2
    21    21    24    1
    22    24    25   ar
    23    25    26   ar
    24    26    27   ar
    25    27    28   ar
    26    28    30    1
    27    30    31    1
    28    30    32    1
    29    30    33    1
    30    28    29   ar
    31    10     5    1
    32    29    24   ar
    33     1     4    1
    34    20    23    1
@<TRIPOS>MOLECULE
*****
 33 34 0 0 0
SMALL
GASTEIGER

@<TRIPOS>ATOM
      1 N           1.3375    1.1444   18.2420 N.am    1  UNL1       -0.3046
      2 C           1.7132    2.5486   18.6123 C.2     1  UNL1        0.2425
      3 O           3.0631    2.8333   19.2012 O.2     1  UNL1       -0.2733
      4 H           0.4515    0.9576   17.8555 H       1  UNL1        0.1494
      5 C           2.2787   -0.7592   19.7388 C.3     1  UNL1        0.0193
      6 C           3.2529   -1.8787   19.9572 C.3     1  UNL1        0.0176
      7 C           4.2600   -2.2140   18.8974 C.3     1  UNL1        0.0576
      8 C           4.2930   -1.4299   17.6191 C.3     1  UNL1        0.0176
      9 C           3.3188   -0.3104   17.4007 C.3     1  UNL1        0.0209
     10 C           2.3117    0.0249   18.4605 C.3     1  UNL1        0.0716
     11 N           5.2342   -3.3335   19.1159 N.3     1  UNL1       -0.2741
     12 C           4.8451   -4.7426   18.7798 C.3     1  UNL1        0.0896
     13 C           6.5975   -3.0439   19.6705 C.3     1  UNL1        0.0576
     14 C           7.5813   -2.2479   18.8650 C.3     1  UNL1        0.0173
     15 C           6.9770   -3.5502   21.0305 C.3     1  UNL1        0.0173
     16 C           1.2716   -0.4239   20.7986 C.3     1  UNL1        0.0017
     17 C           0.6699    1.3103   22.6372 C.3     1  UNL1        0.0000
     18 C           1.6735    0.4115   21.9778 C.3     1  UNL1        0.0001
     19 C           0.7390    3.6681   18.3938 C.3     1  UNL1        0.1759
     20 N          -0.6660    3.5504   18.9059 N.am    1  UNL1       -0.2931
     21 C          -0.9776    3.9056   20.3295 C.2     1  UNL1        0.2462
     22 O           0.1158    4.3785   21.2410 O.2     1  UNL1       -0.2701
     23 H          -1.3835    3.2400   18.3076 H       1  UNL1        0.1502
     24 C          -2.3826    3.7879   20.8416 C.ar    1  UNL1        0.0533
     25 C          -2.6382    3.7008   22.3170 C.ar    1  UNL1        0.0045
     26 C          -4.0432    3.5831   22.8290 C.ar    1  UNL1        0.0001
     27 C          -5.1925    3.5525   21.8656 C.ar    1  UNL1        0.0039
     28 C          -4.9368    3.6396   20.3902 C.ar    1  UNL1        0.0716
     29 C          -3.5319    3.7573   19.8781 C.ar    1  UNL1        0.0084
     30 C          -6.0861    3.6090   19.4267 C.3     1  UNL1        0.4186
     31 F          -7.2354    3.5784   18.4633 F       1  UNL1       -0.1659
     32 F          -5.1705    3.1057   18.3505 F       1  UNL1       -0.1659
     33 F          -7.0017    4.1122   20.5030 F       1  UNL1       -0.1659
@<TRIPOS>BOND
     1    17    18    1
     2    18    16    1
     3     5    16    1
     4     5     6    1
     5     6     7    1
     6     7    11    1
     7    11    12    1
     8    11    13    1
     9    13    14    1
    10    13    15    1
    11     7     8    1
    12     8     9    1
    13     9    10    1
    14    10     1    1
    15     1     2   am
    16     2     3    2
    17     2    19    1
    18    19    20    1
    19    20    21   am
    20    21    22    2
    21    21    24    1
    22    24    25   ar
    23    25    26   ar
    24    26    27   ar
    25    27    28   ar
    26    28    30    1
    27    30    31    1
    28    30    32    1
    29    30    33    1
    30    28    29   ar
    31    10     5    1
    32    29    24   ar
    33     1     4    1
    34    20    23    1
@<TRIPOS>MOLECULE
*****
 33 34 0 0 0
SMALL
GASTEIGER

@<TRIPOS>ATOM
      1 N          -0.7754    3.3191   19.8027 N.am    1  UNL1       -0.3046
      2 C          -0.1249    1.9756   19.6549 C.2     1  UNL1        0.2425
      3 O          -0.4419    0.8778   20.6266 O.2     1  UNL1       -0.2733
      4 H          -0.5673    4.0396   19.1649 H       1  UNL1        0.1494
      5 C          -3.2012    3.7532   20.6256 C.3     1  UNL1        0.0193
      6 C          -4.1687    3.9988   21.7452 C.3     1  UNL1        0.0176
      7 C          -3.6779    4.0561   23.1616 C.3     1  UNL1        0.0576
      8 C          -2.2197    3.8677   23.4583 C.3     1  UNL1        0.0176
      9 C          -1.2522    3.6220   22.3387 C.3     1  UNL1        0.0209
     10 C          -1.7430    3.5648   20.9224 C.3     1  UNL1        0.0716
     11 N          -4.6455    4.3018   24.2812 N.3     1  UNL1       -0.2741
     12 C          -4.4308    3.6494   25.6147 C.3     1  UNL1        0.0896
     13 C          -5.8278    5.1997   24.0672 C.3     1  UNL1        0.0576
     14 C          -7.2017    4.6122   23.9352 C.3     1  UNL1        0.0173
     15 C          -5.6363    6.6852   23.9853 C.3     1  UNL1        0.0173
     16 C          -3.6919    3.6960   19.2093 C.3     1  UNL1        0.0017
     17 C          -6.2153    3.1841   18.8625 C.3     1  UNL1        0.0000
     18 C          -5.0781    4.1622   18.8765 C.3     1  UNL1        0.0001
     19 C           0.8427    1.7300   18.5352 C.3     1  UNL1        0.1759
     20 N           1.6486    0.4652   18.5043 N.am    1  UNL1       -0.2931
     21 C           3.1367    0.5196   18.6843 C.2     1  UNL1        0.2462
     22 O           3.8190    1.8387   18.8951 O.2     1  UNL1       -0.2701
     23 H           1.2008   -0.4006   18.3660 H       1  UNL1        0.1502
     24 C           3.9427   -0.7452   18.6534 C.ar    1  UNL1        0.0533
     25 C           5.3047   -0.7514   18.0252 C.ar    1  UNL1        0.0045
     26 C           6.1106   -2.0162   17.9943 C.ar    1  UNL1        0.0001
     27 C           5.5544   -3.2747   18.5917 C.ar    1  UNL1        0.0039
     28 C           4.1923   -3.2684   19.2199 C.ar    1  UNL1        0.0716
     29 C           3.3865   -2.0037   19.2508 C.ar    1  UNL1        0.0084
     30 C           3.6361   -4.5269   19.8173 C.3     1  UNL1        0.4186
     31 F           3.0799   -5.7854   20.4146 F       1  UNL1       -0.1659
     32 F           4.5542   -4.3743   20.9936 F       1  UNL1       -0.1659
     33 F           2.7180   -4.6795   18.6409 F       1  UNL1       -0.1659
@<TRIPOS>BOND
     1    17    18    1
     2    18    16    1
     3     5    16    1
     4     5     6    1
     5     6     7    1
     6     7    11    1
     7    11    12    1
     8    11    13    1
     9    13    14    1
    10    13    15    1
    11     7     8    1
    12     8     9    1
    13     9    10    1
    14    10     1    1
    15     1     2   am
    16     2     3    2
    17     2    19    1
    18    19    20    1
    19    20    21   am
    20    21    22    2
    21    21    24    1
    22    24    25   ar
    23    25    26   ar
    24    26    27   ar
    25    27    28   ar
    26    28    30    1
    27    30    31    1
    28    30    32    1
    29    30    33    1
    30    28    29   ar
    31    10     5    1
    32    29    24   ar
    33     1     4    1
    34    20    23    1
@<TRIPOS>MOLECULE
*****
 33 34 0 0 0
SMALL
GASTEIGER

@<TRIPOS>ATOM
      1 N          -4.8235  -17.2492   24.0391 N.am    1  UNL1       -0.3046
      2 C          -5.5138  -15.9464   24.3150 C.2     1  UNL1        0.2425
      3 O          -5.2577  -14.7604   23.4331 O.2     1  UNL1       -0.2733
      4 H          -4.9917  -18.0276   24.6180 H       1  UNL1        0.1494
      5 C          -3.9555  -18.5511   21.9650 C.3     1  UNL1        0.0193
      6 C          -3.0091  -18.6679   20.8073 C.3     1  UNL1        0.0176
      7 C          -1.9841  -17.5997   20.5657 C.3     1  UNL1        0.0576
      8 C          -1.9056  -16.4146   21.4819 C.3     1  UNL1        0.0176
      9 C          -2.8521  -16.2978   22.6397 C.3     1  UNL1        0.0209
     10 C          -3.8770  -17.3661   22.8813 C.3     1  UNL1        0.0716
     11 N          -1.0376  -17.7165   19.4078 N.3     1  UNL1       -0.2741
     12 C           0.4111  -18.0200   19.6511 C.3     1  UNL1        0.0896
     13 C          -1.5399  -17.5299   18.0068 C.3     1  UNL1        0.0576
     14 C          -0.7420  -18.0509   16.8483 C.3     1  UNL1        0.0173
     15 C          -2.8399  -16.8221   17.7641 C.3     1  UNL1        0.0173
     16 C          -4.9805  -19.6193   22.2066 C.3     1  UNL1        0.0017
     17 C          -6.6183  -19.2296   20.2278 C.3     1  UNL1        0.0000
     18 C          -5.7864  -20.1581   21.0620 C.3     1  UNL1        0.0001
     19 C          -6.4603  -15.8296   25.4729 C.3     1  UNL1        0.1759
     20 N          -7.8914  -16.2510   25.3172 N.am    1  UNL1       -0.2931
     21 C          -8.3493  -16.8941   24.0418 C.2     1  UNL1        0.2462
     22 O          -7.3762  -17.1157   22.9221 O.2     1  UNL1       -0.2701
     23 H          -8.5301  -16.1056   26.0522 H       1  UNL1        0.1502
     24 C          -9.7805  -17.3156   23.8861 C.ar    1  UNL1        0.0533
     25 C         -10.4116  -18.2181   24.9045 C.ar    1  UNL1        0.0045
     26 C         -11.8427  -18.6396   24.7487 C.ar    1  UNL1        0.0001
     27 C         -12.6427  -18.1585   23.5746 C.ar    1  UNL1        0.0039
     28 C         -12.0116  -17.2560   22.5562 C.ar    1  UNL1        0.0716
     29 C         -10.5805  -16.8345   22.7120 C.ar    1  UNL1        0.0084
     30 C         -12.8116  -16.7749   21.3821 C.3     1  UNL1        0.4186
     31 F         -13.6116  -16.2938   20.2080 F       1  UNL1       -0.1659
     32 F         -13.7764  -17.9071   21.5756 F       1  UNL1       -0.1659
     33 F         -11.8468  -15.6427   21.1886 F       1  UNL1       -0.1659
@<TRIPOS>BOND
     1    17    18    1
     2    18    16    1
     3     5    16    1
     4     5     6    1
     5     6     7    1
     6     7    11    1
     7    11    12    1
     8    11    13    1
     9    13    14    1
    10    13    15    1
    11     7     8    1
    12     8     9    1
    13     9    10    1
    14    10     1    1
    15     1     2   am
    16     2     3    2
    17     2    19    1
    18    19    20    1
    19    20    21   am
    20    21    22    2
    21    21    24    1
    22    24    25   ar
    23    25    26   ar
    24    26    27   ar
    25    27    28   ar
    26    28    30    1
    27    30    31    1
    28    30    32    1
    29    30    33    1
    30    28    29   ar
    31    10     5    1
    32    29    24   ar
    33     1     4    1
    34    20    23    1
@<TRIPOS>MOLECULE
*****
 33 34 0 0 0
SMALL
GASTEIGER

@<TRIPOS>ATOM
      1 N           3.3280   -0.5268   28.7174 N.am    1  UNL1       -0.3046
      2 C           3.4783   -0.2351   27.2538 C.2     1  UNL1        0.2425
      3 O           3.1491    1.1288   26.7232 O.2     1  UNL1       -0.2733
      4 H           3.5441   -1.4219   29.0657 H       1  UNL1        0.1494
      5 C           1.3785    0.7437   29.8729 C.3     1  UNL1        0.0193
      6 C           0.8990    1.8158   30.8060 C.3     1  UNL1        0.0176
      7 C           1.8897    2.6896   31.5167 C.3     1  UNL1        0.0576
      8 C           3.3598    2.4913   31.2943 C.3     1  UNL1        0.0176
      9 C           3.8392    1.4192   30.3612 C.3     1  UNL1        0.0209
     10 C           2.8485    0.5454   29.6505 C.3     1  UNL1        0.0716
     11 N           1.4102    3.7618   32.4498 N.3     1  UNL1       -0.2741
     12 C           1.6385    3.6282   33.9263 C.3     1  UNL1        0.0896
     13 C           0.7024    4.9675   31.9064 C.3     1  UNL1        0.0576
     14 C          -0.6381    5.3601   32.4533 C.3     1  UNL1        0.0173
     15 C           1.3350    5.7806   30.8161 C.3     1  UNL1        0.0173
     16 C           0.3878   -0.1301   29.1622 C.3     1  UNL1        0.0017
     17 C          -0.5179    1.4343   27.2962 C.3     1  UNL1        0.0000
     18 C          -0.7680    0.4868   28.4318 C.3     1  UNL1        0.0001
     19 C           3.9578   -1.3072   26.3207 C.3     1  UNL1        0.1759
     20 N           3.5330   -1.2945   24.8821 N.am    1  UNL1       -0.2931
     21 C           4.3067   -2.0795   23.8648 C.2     1  UNL1        0.2462
     22 O           5.5052   -2.8772   24.2859 O.2     1  UNL1       -0.2701
     23 H           2.7464   -0.7710   24.6057 H       1  UNL1        0.1502
     24 C           3.8820   -2.0669   22.4262 C.ar    1  UNL1        0.0533
     25 C           3.0177   -0.9554   21.9091 C.ar    1  UNL1        0.0045
     26 C           2.5930   -0.9428   20.4706 C.ar    1  UNL1        0.0001
     27 C           3.0326   -2.0417   19.5491 C.ar    1  UNL1        0.0039
     28 C           3.8969   -3.1532   20.0662 C.ar    1  UNL1        0.0716
     29 C           4.3216   -3.1658   21.5047 C.ar    1  UNL1        0.0084
     30 C           4.3365   -4.2521   19.1447 C.3     1  UNL1        0.4186
     31 F           4.7761   -5.3511   18.2232 F       1  UNL1       -0.1659
     32 F           2.9107   -4.6909   18.9878 F       1  UNL1       -0.1659
     33 F           5.7623   -3.8134   19.3016 F       1  UNL1       -0.1659
@<TRIPOS>BOND
     1    17    18    1
     2    18    16    1
     3     5    16    1
     4     5     6    1
     5     6     7    1
     6     7    11    1
     7    11    12    1
     8    11    13    1
     9    13    14    1
    10    13    15    1
    11     7     8    1
    12     8     9    1
    13     9    10    1
    14    10     1    1
    15     1     2   am
    16     2     3    2
    17     2    19    1
    18    19    20    1
    19    20    21   am
    20    21    22    2
    21    21    24    1
    22    24    25   ar
    23    25    26   ar
    24    26    27   ar
    25    27    28   ar
    26    28    30    1
    27    30    31    1
    28    30    32    1
    29    30    33    1
    30    28    29   ar
    31    10     5    1
    32    29    24   ar
    33     1     4    1
    34    20    23    1
