@<TRIPOS>MOLECULE
*****
 16 16 0 0 0
SMALL
GASTEIGER

@<TRIPOS>ATOM
      1 C          -9.2886  -17.3055   25.4922 C.ar    1  UNL1       -0.0221
      2 C          -9.9996  -18.6087   25.2776 C.ar    1  UNL1       -0.0030
      3 C         -10.7226  -18.8653   23.9886 C.ar    1  UNL1        0.0143
      4 C         -10.7344  -17.8187   22.9142 C.ar    1  UNL1        0.0495
      5 C         -10.0234  -16.5155   23.1288 C.ar    1  UNL1        0.0143
      6 C          -9.3005  -16.2589   24.4178 C.ar    1  UNL1       -0.0030
      7 N         -11.4573  -18.0752   21.6251 N.pl3   1  UNL1       -0.2930
      8 H         -11.4315  -18.9703   21.2160 H       1  UNL1        0.1538
      9 C         -12.2196  -16.9681   20.9595 C.2     1  UNL1        0.2056
     10 N         -11.8116  -16.4898   19.5976 N.2     1  UNL1       -0.0679
     11 O         -12.5739  -15.3826   18.9320 O.2     1  UNL1       -0.4077
     12 H         -12.3190  -15.0838   18.0813 H       1  UNL1        0.3278
     13 C          -8.5657  -17.0490   26.7812 C.3     1  UNL1        0.0264
     14 C          -8.2028  -15.6468   27.1714 C.3     1  UNL1        0.0047
     15 C          -5.8282  -15.3222   26.1685 C.3     1  UNL1        0.0000
     16 C          -6.7623  -15.2644   27.3408 C.3     1  UNL1        0.0003
@<TRIPOS>BOND
     1    15    16    1
     2    16    14    1
     3    14    13    1
     4    13     1    1
     5     1     2   ar
     6     2     3   ar
     7     3     4   ar
     8     4     7    1
     9     7     9    1
    10     9    10    2
    11    10    11    1
    12     4     5   ar
    13     5     6   ar
    14     6     1   ar
    15     7     8    1
    16    11    12    1
@<TRIPOS>MOLECULE
*****
 16 16 0 0 0
SMALL
GASTEIGER

@<TRIPOS>ATOM
      1 C          -9.9024  -19.1954   20.9709 C.ar    1  UNL1       -0.0221
      2 C          -8.9282  -18.6476   21.9713 C.ar    1  UNL1       -0.0030
      3 C          -7.4756  -18.5290   21.6164 C.ar    1  UNL1        0.0143
      4 C          -6.9972  -18.9583   20.2611 C.ar    1  UNL1        0.0495
      5 C          -7.9714  -19.5061   19.2608 C.ar    1  UNL1        0.0143
      6 C          -9.4239  -19.6247   19.6157 C.ar    1  UNL1       -0.0030
      7 N          -5.5446  -18.8397   19.9062 N.pl3   1  UNL1       -0.2930
      8 H          -5.2804  -18.5007   19.0205 H       1  UNL1        0.1538
      9 C          -4.4947  -19.2375   20.9008 C.2     1  UNL1        0.2056
     10 N          -3.2118  -19.8563   20.4302 N.2     1  UNL1       -0.0679
     11 O          -2.1618  -20.2542   21.4249 O.2     1  UNL1       -0.4077
     12 H          -1.3605  -20.6407   21.1309 H       1  UNL1        0.3278
     13 C         -11.3549  -19.3140   21.3258 C.3     1  UNL1        0.0264
     14 C         -12.2370  -18.1013   21.2907 C.3     1  UNL1        0.0047
     15 C         -13.4431  -17.9279   23.5854 C.3     1  UNL1        0.0000
     16 C         -12.5228  -17.3450   22.5542 C.3     1  UNL1        0.0003
@<TRIPOS>BOND
     1    15    16    1
     2    16    14    1
     3    14    13    1
     4    13     1    1
     5     1     2   ar
     6     2     3   ar
     7     3     4   ar
     8     4     7    1
     9     7     9    1
    10     9    10    2
    11    10    11    1
    12     4     5   ar
    13     5     6   ar
    14     6     1   ar
    15     7     8    1
    16    11    12    1
@<TRIPOS>MOLECULE
*****
 16 16 0 0 0
SMALL
GASTEIGER

@<TRIPOS>ATOM
      1 C           5.6678  -12.6211   28.3931 C.ar    1  UNL1       -0.0221
      2 C           5.2117  -13.2915   27.1312 C.ar    1  UNL1       -0.0030
      3 C           3.7472  -13.4870   26.8728 C.ar    1  UNL1        0.0143
      4 C           2.7386  -13.0120   27.8763 C.ar    1  UNL1        0.0495
      5 C           3.1946  -12.3416   29.1383 C.ar    1  UNL1        0.0143
      6 C           4.6592  -12.1461   29.3967 C.ar    1  UNL1       -0.0030
      7 N           1.2740  -13.2074   27.6180 N.pl3   1  UNL1       -0.2930
      8 H           0.7994  -12.6083   26.9974 H       1  UNL1        0.1538
      9 C           0.5325  -14.3156   28.3050 C.2     1  UNL1        0.2056
     10 N           0.8614  -15.7452   27.9915 N.2     1  UNL1       -0.0679
     11 O           0.1199  -16.8534   28.6786 O.2     1  UNL1       -0.4077
     12 H           0.3253  -17.7464   28.4828 H       1  UNL1        0.3278
     13 C           7.1324  -12.4257   28.6515 C.3     1  UNL1        0.0264
     14 C           8.1429  -12.9523   27.6761 C.3     1  UNL1        0.0047
     15 C           9.4215  -14.5145   29.3115 C.3     1  UNL1        0.0000
     16 C           9.4314  -13.5373   28.1735 C.3     1  UNL1        0.0003
@<TRIPOS>BOND
     1    15    16    1
     2    16    14    1
     3    14    13    1
     4    13     1    1
     5     1     2   ar
     6     2     3   ar
     7     3     4   ar
     8     4     7    1
     9     7     9    1
    10     9    10    2
    11    10    11    1
    12     4     5   ar
    13     5     6   ar
    14     6     1   ar
    15     7     8    1
    16    11    12    1
@<TRIPOS>MOLECULE
*****
 16 16 0 0 0
SMALL
GASTEIGER

@<TRIPOS>ATOM
      1 C          -6.8004  -19.6273   20.6677 C.ar    1  UNL1       -0.0221
      2 C          -7.9257  -19.7156   19.6799 C.ar    1  UNL1       -0.0030
      3 C          -9.2510  -19.0877   19.9947 C.ar    1  UNL1        0.0143
      4 C          -9.4511  -18.3714   21.2973 C.ar    1  UNL1        0.0495
      5 C          -8.3258  -18.2831   22.2851 C.ar    1  UNL1        0.0143
      6 C          -7.0005  -18.9111   21.9703 C.ar    1  UNL1       -0.0030
      7 N         -10.7765  -17.7435   21.6121 N.pl3   1  UNL1       -0.2930
      8 H         -11.3612  -18.1443   22.2952 H       1  UNL1        0.1538
      9 C         -11.2109  -16.5049   20.8862 C.2     1  UNL1        0.2056
     10 N         -11.9977  -16.6181   19.6141 N.2     1  UNL1       -0.0679
     11 O         -12.4321  -15.3793   18.8882 O.2     1  UNL1       -0.4077
     12 H         -12.9236  -15.4500   18.0936 H       1  UNL1        0.3278
     13 C          -5.4750  -20.2553   20.3529 C.3     1  UNL1        0.0264
     14 C          -4.3633  -19.4191   19.7918 C.3     1  UNL1        0.0047
     15 C          -2.6119  -19.6392   21.6982 C.3     1  UNL1        0.0000
     16 C          -3.3593  -18.7909   20.7122 C.3     1  UNL1        0.0003
@<TRIPOS>BOND
     1    15    16    1
     2    16    14    1
     3    14    13    1
     4    13     1    1
     5     1     2   ar
     6     2     3   ar
     7     3     4   ar
     8     4     7    1
     9     7     9    1
    10     9    10    2
    11    10    11    1
    12     4     5   ar
    13     5     6   ar
    14     6     1   ar
    15     7     8    1
    16    11    12    1
@<TRIPOS>MOLECULE
*****
 16 16 0 0 0
SMALL
GASTEIGER

@<TRIPOS>ATOM
      1 C          -7.9087  -15.8465   24.0272 C.ar    1  UNL1       -0.0221
      2 C          -9.3768  -15.8612   24.3342 C.ar    1  UNL1       -0.0030
      3 C         -10.3246  -16.5933   23.4309 C.ar    1  UNL1        0.0143
      4 C          -9.8043  -17.3105   22.2207 C.ar    1  UNL1        0.0495
      5 C          -8.3361  -17.2958   21.9137 C.ar    1  UNL1        0.0143
      6 C          -7.3883  -16.5638   22.8169 C.ar    1  UNL1       -0.0030
      7 N         -10.7521  -18.0426   21.3175 N.pl3   1  UNL1       -0.2930
      8 H         -11.0519  -18.9508   21.5508 H       1  UNL1        0.1538
      9 C         -11.2429  -17.3908   20.0588 C.2     1  UNL1        0.2056
     10 N         -12.0923  -16.1569   20.1353 N.2     1  UNL1       -0.0679
     11 O         -12.5832  -15.5051   18.8765 O.2     1  UNL1       -0.4077
     12 H         -13.1138  -14.7343   18.9242 H       1  UNL1        0.3278
     13 C          -6.9609  -15.1145   24.9304 C.3     1  UNL1        0.0264
     14 C          -6.3212  -15.8290   26.0837 C.3     1  UNL1        0.0047
     15 C          -8.2949  -15.1448   27.6285 C.3     1  UNL1        0.0000
     16 C          -7.0474  -15.9433   27.3912 C.3     1  UNL1        0.0003
@<TRIPOS>BOND
     1    15    16    1
     2    16    14    1
     3    14    13    1
     4    13     1    1
     5     1     2   ar
     6     2     3   ar
     7     3     4   ar
     8     4     7    1
     9     7     9    1
    10     9    10    2
    11    10    11    1
    12     4     5   ar
    13     5     6   ar
    14     6     1   ar
    15     7     8    1
    16    11    12    1
@<TRIPOS>MOLECULE
*****
 16 16 0 0 0
SMALL
GASTEIGER

@<TRIPOS>ATOM
      1 C          -9.9909  -18.3491   23.5136 C.ar    1  UNL1       -0.0221
      2 C          -9.2311  -17.0647   23.3627 C.ar    1  UNL1       -0.0030
      3 C          -7.8624  -17.0706   22.7489 C.ar    1  UNL1        0.0143
      4 C          -7.2537  -18.3609   22.2858 C.ar    1  UNL1        0.0495
      5 C          -8.0136  -19.6454   22.4367 C.ar    1  UNL1        0.0143
      6 C          -9.3822  -19.6395   23.0505 C.ar    1  UNL1       -0.0030
      7 N          -5.8851  -18.3668   21.6720 N.pl3   1  UNL1       -0.2930
      8 H          -5.7840  -18.3170   20.6940 H       1  UNL1        0.1538
      9 C          -4.6704  -18.4486   22.5482 C.2     1  UNL1        0.2056
     10 N          -3.4157  -17.7238   22.1604 N.2     1  UNL1       -0.0679
     11 O          -2.2010  -17.8056   23.0367 O.2     1  UNL1       -0.4077
     12 H          -1.4171  -17.3529   22.7945 H       1  UNL1        0.3278
     13 C         -11.3596  -18.3433   24.1274 C.3     1  UNL1        0.0264
     14 C         -12.5426  -17.9014   23.3181 C.3     1  UNL1        0.0047
     15 C         -12.3305  -16.6391   21.0572 C.3     1  UNL1        0.0000
     16 C         -12.4765  -17.9226   21.8197 C.3     1  UNL1        0.0003
@<TRIPOS>BOND
     1    15    16    1
     2    16    14    1
     3    14    13    1
     4    13     1    1
     5     1     2   ar
     6     2     3   ar
     7     3     4   ar
     8     4     7    1
     9     7     9    1
    10     9    10    2
    11    10    11    1
    12     4     5   ar
    13     5     6   ar
    14     6     1   ar
    15     7     8    1
    16    11    12    1
@<TRIPOS>MOLECULE
*****
 16 16 0 0 0
SMALL
GASTEIGER

@<TRIPOS>ATOM
      1 C          -8.7704  -16.2897   25.9833 C.ar    1  UNL1       -0.0221
      2 C          -9.1564  -17.7057   26.2928 C.ar    1  UNL1       -0.0030
      3 C          -9.9527  -18.5000   25.3004 C.ar    1  UNL1        0.0143
      4 C         -10.3630  -17.8784   23.9984 C.ar    1  UNL1        0.0495
      5 C          -9.9770  -16.4623   23.6889 C.ar    1  UNL1        0.0143
      6 C          -9.1808  -15.6680   24.6813 C.ar    1  UNL1       -0.0030
      7 N         -11.1593  -18.6727   23.0060 N.pl3   1  UNL1       -0.2930
      8 H         -11.8455  -19.3055   23.3190 H       1  UNL1        0.1538
      9 C         -10.9101  -18.5030   21.5366 C.2     1  UNL1        0.2056
     10 N          -9.5839  -18.8888   20.9514 N.2     1  UNL1       -0.0679
     11 O          -9.3347  -18.7191   19.4819 O.2     1  UNL1       -0.4077
     12 H          -8.5063  -18.9601   19.1163 H       1  UNL1        0.3278
     13 C          -7.9742  -15.4953   26.9757 C.3     1  UNL1        0.0264
     14 C          -6.5028  -15.7441   27.1279 C.3     1  UNL1        0.0047
     15 C          -5.4008  -15.6541   24.7768 C.3     1  UNL1        0.0000
     16 C          -5.5331  -15.1165   26.1709 C.3     1  UNL1        0.0003
@<TRIPOS>BOND
     1    15    16    1
     2    16    14    1
     3    14    13    1
     4    13     1    1
     5     1     2   ar
     6     2     3   ar
     7     3     4   ar
     8     4     7    1
     9     7     9    1
    10     9    10    2
    11    10    11    1
    12     4     5   ar
    13     5     6   ar
    14     6     1   ar
    15     7     8    1
    16    11    12    1
@<TRIPOS>MOLECULE
*****
 16 16 0 0 0
SMALL
GASTEIGER

@<TRIPOS>ATOM
      1 C          -8.3135  -19.0010   20.7960 C.ar    1  UNL1       -0.0221
      2 C          -7.7115  -18.3383   21.9995 C.ar    1  UNL1       -0.0030
      3 C          -6.2516  -18.5100   22.2985 C.ar    1  UNL1        0.0143
      4 C          -5.3938  -19.3442   21.3941 C.ar    1  UNL1        0.0495
      5 C          -5.9958  -20.0069   20.1906 C.ar    1  UNL1        0.0143
      6 C          -7.4556  -19.8352   19.8915 C.ar    1  UNL1       -0.0030
      7 N          -3.9340  -19.5159   21.6932 N.pl3   1  UNL1       -0.2930
      8 H          -3.6469  -19.8277   22.5817 H       1  UNL1        0.1538
      9 C          -2.9116  -19.2124   20.6384 C.2     1  UNL1        0.2056
     10 N          -1.4523  -19.2148   20.9856 N.2     1  UNL1       -0.0679
     11 O          -0.4299  -18.9113   19.9308 O.2     1  UNL1       -0.4077
     12 H           0.4817  -18.9128   20.1476 H       1  UNL1        0.3278
     13 C          -9.7733  -18.8293   20.4969 C.3     1  UNL1        0.0264
     14 C         -10.7568  -19.8726   20.9375 C.3     1  UNL1        0.0047
     15 C         -11.1960  -19.0511   23.3628 C.3     1  UNL1        0.0000
     16 C         -10.9328  -20.1686   22.3974 C.3     1  UNL1        0.0003
@<TRIPOS>BOND
     1    15    16    1
     2    16    14    1
     3    14    13    1
     4    13     1    1
     5     1     2   ar
     6     2     3   ar
     7     3     4   ar
     8     4     7    1
     9     7     9    1
    10     9    10    2
    11    10    11    1
    12     4     5   ar
    13     5     6   ar
    14     6     1   ar
    15     7     8    1
    16    11    12    1
@<TRIPOS>MOLECULE
*****
 16 16 0 0 0
SMALL
GASTEIGER

@<TRIPOS>ATOM
      1 C         -10.2157  -16.8200   23.2040 C.ar    1  UNL1       -0.0221
      2 C          -9.5787  -16.2688   21.9629 C.ar    1  UNL1       -0.0030
      3 C          -8.2237  -15.6297   22.0358 C.ar    1  UNL1        0.0143
      4 C          -7.5056  -15.5417   23.3498 C.ar    1  UNL1        0.0495
      5 C          -8.1427  -16.0928   24.5909 C.ar    1  UNL1        0.0143
      6 C          -9.4977  -16.7320   24.5180 C.ar    1  UNL1       -0.0030
      7 N          -6.1506  -14.9025   23.4227 N.pl3   1  UNL1       -0.2930
      8 H          -6.0469  -13.9443   23.2222 H       1  UNL1        0.1538
      9 C          -4.9536  -15.7233   23.8013 C.2     1  UNL1        0.2056
     10 N          -4.7688  -17.0932   23.2186 N.2     1  UNL1       -0.0679
     11 O          -3.5717  -17.9140   23.5972 O.2     1  UNL1       -0.4077
     12 H          -3.4563  -18.7697   23.2332 H       1  UNL1        0.3278
     13 C         -11.5708  -17.4592   23.1311 C.3     1  UNL1        0.0264
     14 C         -11.8270  -18.5640   22.1495 C.3     1  UNL1        0.0047
     15 C         -10.4426  -20.3129   23.4818 C.3     1  UNL1        0.0000
     16 C         -10.9829  -19.8037   22.1784 C.3     1  UNL1        0.0003
@<TRIPOS>BOND
     1    15    16    1
     2    16    14    1
     3    14    13    1
     4    13     1    1
     5     1     2   ar
     6     2     3   ar
     7     3     4   ar
     8     4     7    1
     9     7     9    1
    10     9    10    2
    11    10    11    1
    12     4     5   ar
    13     5     6   ar
    14     6     1   ar
    15     7     8    1
    16    11    12    1
