@<TRIPOS>MOLECULE
*****
 51 55 0 0 0
SMALL
GASTEIGER

@<TRIPOS>ATOM
      1 C           0.6063    2.2936   23.1660 C.2     1  UNL1        0.2459
      2 O           0.6033    3.3802   22.1320 O.2     1  UNL1       -0.2701
      3 N           1.2628    0.9779   22.8695 N.am    1  UNL1       -0.2997
      4 H           1.2648    0.2647   23.5482 H       1  UNL1        0.1498
      5 C           0.0217    2.3875   27.0902 C.ar    1  UNL1        0.0731
      6 C           0.6752    2.1584   25.7597 C.ar    1  UNL1        0.0210
      7 C          -0.0473    2.5226   24.4966 C.ar    1  UNL1        0.0543
      8 C          -1.4233    3.1158   24.5641 C.ar    1  UNL1        0.0003
      9 C          -2.0769    3.3449   25.8946 C.ar    1  UNL1       -0.0211
     10 C          -1.3544    2.9807   27.1577 C.ar    1  UNL1        0.0123
     11 C          -3.4529    3.9381   25.9621 C.3     1  UNL1        0.0224
     12 C          -4.5506    3.7353   24.9601 C.3     1  UNL1        0.0044
     13 C          -5.7490    4.5101   25.4221 C.3     1  UNL1        0.0003
     14 C          -5.3919    5.1918   26.7098 C.3     1  UNL1        0.0003
     15 C          -3.9729    4.8382   27.0435 C.3     1  UNL1        0.0044
     16 N           0.7441    2.0233   28.3533 N.pl3   1  UNL1       -0.1730
     17 C           0.7306    2.9628   29.5226 C.ar    1  UNL1        0.0733
     18 C           0.9340    4.4331   29.3058 C.ar    1  UNL1        0.0165
     19 C           0.9205    5.3725   30.4751 C.ar    1  UNL1        0.0013
     20 C           0.7036    4.8417   31.8612 C.ar    1  UNL1        0.0001
     21 C           0.5002    3.3715   32.0780 C.ar    1  UNL1        0.0013
     22 C           0.5137    2.4320   30.9087 C.ar    1  UNL1        0.0165
     23 C           2.2161   -0.5840   28.5410 C.3     1  UNL1        0.2002
     24 S           1.4801    0.7197   28.4471 S.O2    1  UNL1        0.0623
     25 O           0.1732   -0.0158   28.4795 O.2     1  UNL1       -0.1539
     26 O           2.7870    1.4552   28.4148 O.2     1  UNL1       -0.1539
     27 C           1.9164    0.7488   21.5389 C.3     1  UNL1        0.1043
     28 C           1.0762    0.4574   20.3309 C.3     1  UNL1        0.1443
     29 O          -0.1106   -0.4528   20.4446 O.3     1  UNL1       -0.3813
     30 H          -0.1928   -0.7642   21.3596 H       1  UNL1        0.2105
     31 C           1.4230    1.0762   19.0092 C.3     1  UNL1        0.1001
     32 N           2.0733    0.2481   17.9409 N.3     1  UNL1       -0.2917
     33 H           1.6827    0.5565   17.0506 H       1  UNL1        0.1236
     34 C           3.5653    0.2603   17.7867 C.3     1  UNL1        0.0957
     35 C           4.3765   -0.9148   18.2461 C.ar    1  UNL1       -0.0064
     36 C           5.8748   -0.8494   18.2167 C.ar    1  UNL1       -0.0029
     37 C           6.6860   -2.0245   18.6761 C.ar    1  UNL1       -0.0003
     38 C           5.9989   -3.2651   19.1649 C.ar    1  UNL1        0.0038
     39 C           4.5006   -3.3305   19.1943 C.ar    1  UNL1        0.0712
     40 C           3.6894   -2.1554   18.7349 C.ar    1  UNL1        0.0009
     41 C           3.8135   -4.5710   19.6830 C.3     1  UNL1        0.4186
     42 F           3.1263   -5.8116   20.1718 F       1  UNL1       -0.1659
     43 F           4.9067   -4.7804   20.6885 F       1  UNL1       -0.1659
     44 F           2.7203   -4.3617   18.6775 F       1  UNL1       -0.1659
     45 C           3.4101    0.8112   21.4164 C.3     1  UNL1        0.0484
     46 C           4.2515   -0.3270   21.9129 C.ar    1  UNL1       -0.0204
     47 C           3.5970   -1.5744   22.4284 C.ar    1  UNL1       -0.0042
     48 C           4.4385   -2.7125   22.9249 C.ar    1  UNL1       -0.0003
     49 C           5.9344   -2.6033   22.9059 C.ar    1  UNL1       -0.0000
     50 C           6.5888   -1.3560   22.3903 C.ar    1  UNL1       -0.0003
     51 C           5.7474   -0.2178   21.8938 C.ar    1  UNL1       -0.0042
@<TRIPOS>BOND
     1    23    24    1
     2    24    25    2
     3    24    26    2
     4    24    16    1
     5    16    17    1
     6    17    18   ar
     7    18    19   ar
     8    19    20   ar
     9    20    21   ar
    10    21    22   ar
    11    16     5    1
    12     5     6   ar
    13     6     7   ar
    14     7     1    1
    15     1     2    2
    16     1     3   am
    17     3    27    1
    18    27    45    1
    19    45    46    1
    20    46    47   ar
    21    47    48   ar
    22    48    49   ar
    23    49    50   ar
    24    50    51   ar
    25    27    28    1
    26    28    29    1
    27    28    31    1
    28    31    32    1
    29    32    34    1
    30    34    35    1
    31    35    36   ar
    32    36    37   ar
    33    37    38   ar
    34    38    39   ar
    35    39    41    1
    36    41    42    1
    37    41    43    1
    38    41    44    1
    39    39    40   ar
    40     7     8   ar
    41     8     9   ar
    42     9    11    1
    43    11    12    1
    44    12    13    1
    45    13    14    1
    46    14    15    1
    47     9    10   ar
    48    22    17   ar
    49    10     5   ar
    50    51    46   ar
    51    40    35   ar
    52    15    11    1
    53     3     4    1
    54    29    30    1
    55    32    33    1
@<TRIPOS>MOLECULE
*****
 51 55 0 0 0
SMALL
GASTEIGER

@<TRIPOS>ATOM
      1 C           5.8962   -3.1100   22.8424 C.2     1  UNL1        0.2459
      2 O           5.4796   -4.5111   22.5059 O.2     1  UNL1       -0.2701
      3 N           7.3499   -2.7793   23.0089 N.am    1  UNL1       -0.2997
      4 H           7.6234   -1.8597   23.2298 H       1  UNL1        0.1498
      5 C           3.4466   -0.5005   24.5570 C.ar    1  UNL1        0.0731
      6 C           4.4835   -1.5710   24.3870 C.ar    1  UNL1        0.0210
      7 C           4.8593   -2.0395   23.0124 C.ar    1  UNL1        0.0543
      8 C           4.1983   -1.4376   21.8080 C.ar    1  UNL1        0.0003
      9 C           3.1614   -0.3671   21.9781 C.ar    1  UNL1       -0.0211
     10 C           2.7855    0.1014   23.3525 C.ar    1  UNL1        0.0123
     11 C           2.5004    0.2349   20.7737 C.3     1  UNL1        0.0224
     12 C           2.9949    1.4181   19.9955 C.3     1  UNL1        0.0044
     13 C           2.0289    1.6738   18.8768 C.3     1  UNL1        0.0003
     14 C           0.9373    0.6486   18.9636 C.3     1  UNL1        0.0003
     15 C           1.2287   -0.2407   20.1359 C.3     1  UNL1        0.0044
     16 N           3.0707   -0.0320   25.9315 N.pl3   1  UNL1       -0.1730
     17 C           1.7797    0.7008   26.1472 C.ar    1  UNL1        0.0733
     18 C           1.3439    1.0591   27.5370 C.ar    1  UNL1        0.0165
     19 C           0.0529    1.7918   27.7526 C.ar    1  UNL1        0.0013
     20 C          -0.8021    2.1662   26.5784 C.ar    1  UNL1        0.0001
     21 C          -0.3663    1.8079   25.1886 C.ar    1  UNL1        0.0013
     22 C           0.9247    1.0752   24.9730 C.ar    1  UNL1        0.0165
     23 C           4.9009   -0.5604   28.2491 C.3     1  UNL1        0.2002
     24 S           3.9858   -0.2962   27.0903 S.O2    1  UNL1        0.0623
     25 O           4.7340    0.9682   26.7877 O.2     1  UNL1       -0.1539
     26 O           3.2376   -1.5606   27.3928 O.2     1  UNL1       -0.1539
     27 C           8.3868   -3.8498   22.8388 C.3     1  UNL1        0.1043
     28 C           8.7022   -4.3779   21.4707 C.3     1  UNL1        0.1443
     29 O           8.4028   -5.8080   21.1314 O.3     1  UNL1       -0.3813
     30 H           8.0108   -6.2479   21.9020 H       1  UNL1        0.2105
     31 C           9.3169   -3.4759   20.4419 C.3     1  UNL1        0.1001
     32 N           8.8001   -2.0790   20.2643 N.3     1  UNL1       -0.2917
     33 H           9.5431   -1.4494   20.5675 H       1  UNL1        0.1236
     34 C           8.3599   -1.6088   18.9097 C.3     1  UNL1        0.0957
     35 C           6.9040   -1.6175   18.5492 C.ar    1  UNL1       -0.0064
     36 C           6.3072   -0.4563   17.8106 C.ar    1  UNL1       -0.0029
     37 C           4.8511   -0.4651   17.4501 C.ar    1  UNL1       -0.0003
     38 C           3.9919   -1.6349   17.8284 C.ar    1  UNL1        0.0038
     39 C           4.5886   -2.7961   18.5671 C.ar    1  UNL1        0.0712
     40 C           6.0446   -2.7874   18.9275 C.ar    1  UNL1        0.0009
     41 C           3.7294   -3.9659   18.9454 C.3     1  UNL1        0.4186
     42 F           2.8701   -5.1358   19.3237 F       1  UNL1       -0.1659
     43 F           2.7258   -3.0320   19.5540 F       1  UNL1       -0.1659
     44 F           4.7330   -4.8998   18.3368 F       1  UNL1       -0.1659
     45 C           9.1083   -4.3922   24.0368 C.3     1  UNL1        0.0484
     46 C           8.4930   -5.4941   24.8476 C.ar    1  UNL1       -0.0204
     47 C           7.3634   -5.1928   25.7874 C.ar    1  UNL1       -0.0042
     48 C           6.7481   -6.2946   26.5982 C.ar    1  UNL1       -0.0003
     49 C           7.2625   -7.6978   26.4691 C.ar    1  UNL1       -0.0000
     50 C           8.3921   -7.9990   25.5294 C.ar    1  UNL1       -0.0003
     51 C           9.0074   -6.8972   24.7186 C.ar    1  UNL1       -0.0042
@<TRIPOS>BOND
     1    23    24    1
     2    24    25    2
     3    24    26    2
     4    24    16    1
     5    16    17    1
     6    17    18   ar
     7    18    19   ar
     8    19    20   ar
     9    20    21   ar
    10    21    22   ar
    11    16     5    1
    12     5     6   ar
    13     6     7   ar
    14     7     1    1
    15     1     2    2
    16     1     3   am
    17     3    27    1
    18    27    45    1
    19    45    46    1
    20    46    47   ar
    21    47    48   ar
    22    48    49   ar
    23    49    50   ar
    24    50    51   ar
    25    27    28    1
    26    28    29    1
    27    28    31    1
    28    31    32    1
    29    32    34    1
    30    34    35    1
    31    35    36   ar
    32    36    37   ar
    33    37    38   ar
    34    38    39   ar
    35    39    41    1
    36    41    42    1
    37    41    43    1
    38    41    44    1
    39    39    40   ar
    40     7     8   ar
    41     8     9   ar
    42     9    11    1
    43    11    12    1
    44    12    13    1
    45    13    14    1
    46    14    15    1
    47     9    10   ar
    48    22    17   ar
    49    10     5   ar
    50    51    46   ar
    51    40    35   ar
    52    15    11    1
    53     3     4    1
    54    29    30    1
    55    32    33    1
@<TRIPOS>MOLECULE
*****
 51 55 0 0 0
SMALL
GASTEIGER

@<TRIPOS>ATOM
      1 C           5.4044   -2.2526   22.5818 C.2     1  UNL1        0.2459
      2 O           4.8875   -3.6554   22.4597 O.2     1  UNL1       -0.2701
      3 N           6.8733   -2.0076   22.7626 N.am    1  UNL1       -0.2997
      4 H           7.2126   -1.0869   22.8428 H       1  UNL1        0.1498
      5 C           3.3992    0.8878   21.2153 C.ar    1  UNL1        0.0731
      6 C           4.3510   -0.2701   21.2741 C.ar    1  UNL1        0.0210
      7 C           4.4526   -1.0948   22.5230 C.ar    1  UNL1        0.0543
      8 C           3.6025   -0.7616   23.7130 C.ar    1  UNL1        0.0003
      9 C           2.6507    0.3963   23.6542 C.ar    1  UNL1       -0.0211
     10 C           2.5490    1.2209   22.4054 C.ar    1  UNL1        0.0123
     11 C           1.8005    0.7294   24.8442 C.3     1  UNL1        0.0224
     12 C           0.3440    1.0871   24.8149 C.3     1  UNL1        0.0044
     13 C          -0.0991    1.3422   26.2250 C.3     1  UNL1        0.0003
     14 C           1.0835    1.1421   27.1259 C.3     1  UNL1        0.0003
     15 C           2.2575    0.7634   26.2725 C.3     1  UNL1        0.0044
     16 N           3.2976    1.7125   19.9665 N.pl3   1  UNL1       -0.1730
     17 C           4.5300    2.3250   19.3698 C.ar    1  UNL1        0.0733
     18 C           5.7496    2.5338   20.2177 C.ar    1  UNL1        0.0165
     19 C           6.9819    3.1463   19.6210 C.ar    1  UNL1        0.0013
     20 C           6.9947    3.5501   18.1765 C.ar    1  UNL1        0.0001
     21 C           5.7751    3.3413   17.3286 C.ar    1  UNL1        0.0013
     22 C           4.5428    2.7288   17.9252 C.ar    1  UNL1        0.0165
     23 C           0.6295    2.1368   18.6621 C.3     1  UNL1        0.2002
     24 S           1.9635    1.9246   19.3143 S.O2    1  UNL1        0.0623
     25 O           1.9771    0.5067   18.8253 O.2     1  UNL1       -0.1539
     26 O           1.9500    3.3426   19.8034 O.2     1  UNL1       -0.1539
     27 C           7.8251   -3.1654   22.8214 C.3     1  UNL1        0.1043
     28 C           8.1858   -3.9043   21.5668 C.3     1  UNL1        0.1443
     29 O           7.3491   -5.0632   21.1121 O.3     1  UNL1       -0.3813
     30 H           6.6203   -5.2009   21.7372 H       1  UNL1        0.2105
     31 C           9.3831   -3.4841   20.7669 C.3     1  UNL1        0.1001
     32 N           9.2032   -2.9080   19.3937 N.3     1  UNL1       -0.2917
     33 H           8.7113   -3.6106   18.8417 H       1  UNL1        0.1236
     34 C           8.4601   -1.6175   19.2133 C.3     1  UNL1        0.0957
     35 C           7.0554   -1.6281   18.6874 C.ar    1  UNL1       -0.0064
     36 C           6.5900   -0.5370   17.7693 C.ar    1  UNL1       -0.0029
     37 C           5.1852   -0.5476   17.2435 C.ar    1  UNL1       -0.0003
     38 C           4.2459   -1.6493   17.6356 C.ar    1  UNL1        0.0038
     39 C           4.7113   -2.7404   18.5537 C.ar    1  UNL1        0.0712
     40 C           6.1160   -2.7299   19.0796 C.ar    1  UNL1        0.0009
     41 C           3.7720   -3.8422   18.9459 C.3     1  UNL1        0.4186
     42 F           2.8326   -4.9440   19.3380 F       1  UNL1       -0.1659
     43 F           4.6685   -4.8435   18.2799 F       1  UNL1       -0.1659
     44 F           2.8755   -2.8408   19.6118 F       1  UNL1       -0.1659
     45 C           8.4162   -3.5844   24.1348 C.3     1  UNL1        0.0484
     46 C           8.0505   -4.9105   24.7329 C.ar    1  UNL1       -0.0204
     47 C           7.1474   -4.9702   25.9292 C.ar    1  UNL1       -0.0042
     48 C           6.7816   -6.2963   26.5273 C.ar    1  UNL1       -0.0003
     49 C           7.3190   -7.5626   25.9292 C.ar    1  UNL1       -0.0000
     50 C           8.2220   -7.5029   24.7330 C.ar    1  UNL1       -0.0003
     51 C           8.5877   -6.1768   24.1349 C.ar    1  UNL1       -0.0042
@<TRIPOS>BOND
     1    23    24    1
     2    24    25    2
     3    24    26    2
     4    24    16    1
     5    16    17    1
     6    17    18   ar
     7    18    19   ar
     8    19    20   ar
     9    20    21   ar
    10    21    22   ar
    11    16     5    1
    12     5     6   ar
    13     6     7   ar
    14     7     1    1
    15     1     2    2
    16     1     3   am
    17     3    27    1
    18    27    45    1
    19    45    46    1
    20    46    47   ar
    21    47    48   ar
    22    48    49   ar
    23    49    50   ar
    24    50    51   ar
    25    27    28    1
    26    28    29    1
    27    28    31    1
    28    31    32    1
    29    32    34    1
    30    34    35    1
    31    35    36   ar
    32    36    37   ar
    33    37    38   ar
    34    38    39   ar
    35    39    41    1
    36    41    42    1
    37    41    43    1
    38    41    44    1
    39    39    40   ar
    40     7     8   ar
    41     8     9   ar
    42     9    11    1
    43    11    12    1
    44    12    13    1
    45    13    14    1
    46    14    15    1
    47     9    10   ar
    48    22    17   ar
    49    10     5   ar
    50    51    46   ar
    51    40    35   ar
    52    15    11    1
    53     3     4    1
    54    29    30    1
    55    32    33    1
@<TRIPOS>MOLECULE
*****
 51 55 0 0 0
SMALL
GASTEIGER

@<TRIPOS>ATOM
      1 C           5.5805   -2.3729   23.7680 C.2     1  UNL1        0.2459
      2 O           5.0517   -3.7030   23.3194 O.2     1  UNL1       -0.2701
      3 N           7.0603   -2.1317   23.8163 N.am    1  UNL1       -0.2997
      4 H           7.4074   -1.2587   24.1108 H       1  UNL1        0.1498
      5 C           3.2549    0.8365   23.5658 C.ar    1  UNL1        0.0731
      6 C           4.2058   -0.2523   23.1654 C.ar    1  UNL1        0.0210
      7 C           4.6297   -1.2841   24.1684 C.ar    1  UNL1        0.0543
      8 C           4.1028   -1.2270   25.5716 C.ar    1  UNL1        0.0003
      9 C           3.1519   -0.1382   25.9719 C.ar    1  UNL1       -0.0211
     10 C           2.7280    0.8936   24.9691 C.ar    1  UNL1        0.0123
     11 C           2.6250   -0.0811   27.3752 C.3     1  UNL1        0.0224
     12 C           3.2151   -0.7740   28.5675 C.3     1  UNL1        0.0044
     13 C           2.3703   -0.4422   29.7617 C.3     1  UNL1        0.0003
     14 C           1.2579    0.4558   29.3074 C.3     1  UNL1        0.0003
     15 C           1.4153    0.6789   27.8324 C.3     1  UNL1        0.0044
     16 N           2.8310    1.8683   22.5630 N.pl3   1  UNL1       -0.1730
     17 C           2.3291    1.4424   21.2151 C.ar    1  UNL1        0.0733
     18 C           1.3002    0.3563   21.1068 C.ar    1  UNL1        0.0165
     19 C           0.7984   -0.0696   19.7589 C.ar    1  UNL1        0.0013
     20 C           1.3254    0.5906   18.5194 C.ar    1  UNL1        0.0001
     21 C           2.3542    1.6767   18.6277 C.ar    1  UNL1        0.0013
     22 C           2.8561    2.1026   19.9756 C.ar    1  UNL1        0.0165
     23 C           2.9869    4.7837   23.2529 C.3     1  UNL1        0.2002
     24 S           2.9089    3.3260   22.9080 S.O2    1  UNL1        0.0623
     25 O           1.4110    3.4040   22.9169 O.2     1  UNL1       -0.1539
     26 O           4.4069    3.2480   22.8990 O.2     1  UNL1       -0.1539
     27 C           8.0111   -3.2205   23.4159 C.3     1  UNL1        0.1043
     28 C           8.1669   -3.5858   21.9694 C.3     1  UNL1        0.1443
     29 O           7.3242   -4.6757   21.3762 O.3     1  UNL1       -0.3813
     30 H           6.7362   -5.0371   22.0578 H       1  UNL1        0.2105
     31 C           9.1653   -2.8612   21.1161 C.3     1  UNL1        0.1001
     32 N           9.0007   -2.8372   19.6254 N.3     1  UNL1       -0.2917
     33 H           8.3884   -3.6165   19.3842 H       1  UNL1        0.1236
     34 C           8.4384   -1.6203   18.9524 C.3     1  UNL1        0.0957
     35 C           7.0005   -1.5960   18.5261 C.ar    1  UNL1       -0.0064
     36 C           6.4862   -0.4643   17.6866 C.ar    1  UNL1       -0.0029
     37 C           5.0482   -0.4401   17.2602 C.ar    1  UNL1       -0.0003
     38 C           4.1247   -1.5475   17.6733 C.ar    1  UNL1        0.0038
     39 C           4.6391   -2.6792   18.5127 C.ar    1  UNL1        0.0712
     40 C           6.0769   -2.7035   18.9391 C.ar    1  UNL1        0.0009
     41 C           3.7155   -3.7866   18.9258 C.3     1  UNL1        0.4186
     42 F           2.7919   -4.8941   19.3389 F       1  UNL1       -0.1659
     43 F           2.8084   -2.7865   19.5791 F       1  UNL1       -0.1659
     44 F           4.6227   -4.7868   18.2725 F       1  UNL1       -0.1659
     45 C           8.8063   -3.9440   24.4620 C.3     1  UNL1        0.0484
     46 C           8.2870   -5.2240   25.0468 C.ar    1  UNL1       -0.0204
     47 C           8.8182   -6.5402   24.5614 C.ar    1  UNL1       -0.0042
     48 C           8.2989   -7.8202   25.1463 C.ar    1  UNL1       -0.0003
     49 C           7.2485   -7.7839   26.2166 C.ar    1  UNL1       -0.0000
     50 C           6.7174   -6.4678   26.7019 C.ar    1  UNL1       -0.0003
     51 C           7.2367   -5.1878   26.1171 C.ar    1  UNL1       -0.0042
@<TRIPOS>BOND
     1    23    24    1
     2    24    25    2
     3    24    26    2
     4    24    16    1
     5    16    17    1
     6    17    18   ar
     7    18    19   ar
     8    19    20   ar
     9    20    21   ar
    10    21    22   ar
    11    16     5    1
    12     5     6   ar
    13     6     7   ar
    14     7     1    1
    15     1     2    2
    16     1     3   am
    17     3    27    1
    18    27    45    1
    19    45    46    1
    20    46    47   ar
    21    47    48   ar
    22    48    49   ar
    23    49    50   ar
    24    50    51   ar
    25    27    28    1
    26    28    29    1
    27    28    31    1
    28    31    32    1
    29    32    34    1
    30    34    35    1
    31    35    36   ar
    32    36    37   ar
    33    37    38   ar
    34    38    39   ar
    35    39    41    1
    36    41    42    1
    37    41    43    1
    38    41    44    1
    39    39    40   ar
    40     7     8   ar
    41     8     9   ar
    42     9    11    1
    43    11    12    1
    44    12    13    1
    45    13    14    1
    46    14    15    1
    47     9    10   ar
    48    22    17   ar
    49    10     5   ar
    50    51    46   ar
    51    40    35   ar
    52    15    11    1
    53     3     4    1
    54    29    30    1
    55    32    33    1
@<TRIPOS>MOLECULE
*****
 51 55 0 0 0
SMALL
GASTEIGER

@<TRIPOS>ATOM
      1 C           1.4159    0.4775   19.5813 C.2     1  UNL1        0.2459
      2 O           0.9066    0.4098   18.1721 O.2     1  UNL1       -0.2701
      3 N           2.6547   -0.2747   19.9681 N.am    1  UNL1       -0.2997
      4 H           2.9889   -0.2303   20.8931 H       1  UNL1        0.1498
      5 C          -1.0662    3.1237   21.1898 C.ar    1  UNL1        0.0731
      6 C          -0.3366    2.3038   20.1672 C.ar    1  UNL1        0.0210
      7 C           0.6863    1.2973   20.6039 C.ar    1  UNL1        0.0543
      8 C           0.9796    1.1106   22.0630 C.ar    1  UNL1        0.0003
      9 C           0.2500    1.9304   23.0856 C.ar    1  UNL1       -0.0211
     10 C          -0.7729    2.9369   22.6490 C.ar    1  UNL1        0.0123
     11 C           0.5433    1.7437   24.5447 C.3     1  UNL1        0.0224
     12 C          -0.4719    1.6826   25.6473 C.3     1  UNL1        0.0044
     13 C           0.2607    1.4865   26.9415 C.3     1  UNL1        0.0003
     14 C           1.7286    1.4264   26.6387 C.3     1  UNL1        0.0003
     15 C           1.9032    1.5854   25.1574 C.3     1  UNL1        0.0044
     16 N          -2.0891    4.1302   20.7532 N.pl3   1  UNL1       -0.1730
     17 C          -3.3211    4.3542   21.5792 C.ar    1  UNL1        0.0733
     18 C          -4.2874    3.2294   21.8051 C.ar    1  UNL1        0.0165
     19 C          -5.5192    3.4535   22.6310 C.ar    1  UNL1        0.0013
     20 C          -5.7848    4.8023   23.2311 C.ar    1  UNL1        0.0001
     21 C          -4.8185    5.9271   23.0053 C.ar    1  UNL1        0.0013
     22 C          -3.5866    5.7030   22.1793 C.ar    1  UNL1        0.0165
     23 C          -1.6711    5.6952   18.2282 C.3     1  UNL1        0.2002
     24 S          -1.8801    4.9127   19.4907 S.O2    1  UNL1        0.0623
     25 O          -2.9587    4.1160   18.8184 O.2     1  UNL1       -0.1539
     26 O          -0.8015    5.7094   20.1630 O.2     1  UNL1       -0.1539
     27 C           3.3843   -1.0945   18.9455 C.3     1  UNL1        0.1043
     28 C           3.9010   -0.4471   17.6950 C.3     1  UNL1        0.1443
     29 O           3.7662   -1.1490   16.3762 O.3     1  UNL1       -0.3813
     30 H           3.3259   -2.0032   16.5082 H       1  UNL1        0.2105
     31 C           4.5526    0.9023   17.7632 C.3     1  UNL1        0.1001
     32 N           5.1368    1.3885   19.0563 N.3     1  UNL1       -0.2917
     33 H           4.5122    1.0734   19.7986 H       1  UNL1        0.1236
     34 C           6.5237    0.9781   19.4541 C.3     1  UNL1        0.0957
     35 C           6.7719    0.3922   20.8124 C.ar    1  UNL1       -0.0064
     36 C           8.1756    0.1257   21.2692 C.ar    1  UNL1       -0.0029
     37 C           8.4237   -0.4603   22.6276 C.ar    1  UNL1       -0.0003
     38 C           7.2683   -0.7797   23.5291 C.ar    1  UNL1        0.0038
     39 C           5.8646   -0.5132   23.0723 C.ar    1  UNL1        0.0712
     40 C           5.6164    0.0728   21.7140 C.ar    1  UNL1        0.0009
     41 C           4.7091   -0.8326   23.9739 C.3     1  UNL1        0.4186
     42 F           3.5536   -1.1520   24.8754 F       1  UNL1       -0.1659
     43 F           3.7598   -0.2767   22.9542 F       1  UNL1       -0.1659
     44 F           5.6584   -1.3884   24.9936 F       1  UNL1       -0.1659
     45 C           3.5971   -2.5617   19.1735 C.3     1  UNL1        0.0484
     46 C           4.7234   -3.0294   20.0469 C.ar    1  UNL1       -0.0204
     47 C           4.4406   -3.5245   21.4344 C.ar    1  UNL1       -0.0042
     48 C           5.5669   -3.9921   22.3079 C.ar    1  UNL1       -0.0003
     49 C           6.9758   -3.9647   21.7938 C.ar    1  UNL1       -0.0000
     50 C           7.2585   -3.4697   20.4064 C.ar    1  UNL1       -0.0003
     51 C           6.1323   -3.0020   19.5330 C.ar    1  UNL1       -0.0042
@<TRIPOS>BOND
     1    23    24    1
     2    24    25    2
     3    24    26    2
     4    24    16    1
     5    16    17    1
     6    17    18   ar
     7    18    19   ar
     8    19    20   ar
     9    20    21   ar
    10    21    22   ar
    11    16     5    1
    12     5     6   ar
    13     6     7   ar
    14     7     1    1
    15     1     2    2
    16     1     3   am
    17     3    27    1
    18    27    45    1
    19    45    46    1
    20    46    47   ar
    21    47    48   ar
    22    48    49   ar
    23    49    50   ar
    24    50    51   ar
    25    27    28    1
    26    28    29    1
    27    28    31    1
    28    31    32    1
    29    32    34    1
    30    34    35    1
    31    35    36   ar
    32    36    37   ar
    33    37    38   ar
    34    38    39   ar
    35    39    41    1
    36    41    42    1
    37    41    43    1
    38    41    44    1
    39    39    40   ar
    40     7     8   ar
    41     8     9   ar
    42     9    11    1
    43    11    12    1
    44    12    13    1
    45    13    14    1
    46    14    15    1
    47     9    10   ar
    48    22    17   ar
    49    10     5   ar
    50    51    46   ar
    51    40    35   ar
    52    15    11    1
    53     3     4    1
    54    29    30    1
    55    32    33    1
@<TRIPOS>MOLECULE
*****
 51 55 0 0 0
SMALL
GASTEIGER

@<TRIPOS>ATOM
      1 C           4.6556   -2.1541   22.8350 C.2     1  UNL1        0.2459
      2 O           4.2836   -3.5815   23.1070 O.2     1  UNL1       -0.2701
      3 N           5.6932   -1.8336   21.8002 N.am    1  UNL1       -0.2997
      4 H           5.9375   -0.8967   21.6216 H       1  UNL1        0.1498
      5 C           3.4945    0.1535   25.8478 C.ar    1  UNL1        0.0731
      6 C           4.1600   -0.9535   25.0851 C.ar    1  UNL1        0.0210
      7 C           3.9901   -1.0471   23.5977 C.ar    1  UNL1        0.0543
      8 C           3.1547   -0.0337   22.8730 C.ar    1  UNL1        0.0003
      9 C           2.4892    1.0732   23.6357 C.ar    1  UNL1       -0.0211
     10 C           2.6591    1.1669   25.1231 C.ar    1  UNL1        0.0123
     11 C           1.6539    2.0866   22.9110 C.3     1  UNL1        0.0224
     12 C           0.1552    2.1495   22.9016 C.3     1  UNL1        0.0044
     13 C          -0.2545    3.3168   22.0533 C.3     1  UNL1        0.0003
     14 C           0.9911    3.9753   21.5384 C.3     1  UNL1        0.0003
     15 C           2.1705    3.2150   22.0685 C.3     1  UNL1        0.0044
     16 N           3.6644    0.2471   27.3352 N.pl3   1  UNL1       -0.1730
     17 C           2.5031    0.6401   28.1995 C.ar    1  UNL1        0.0733
     18 C           1.2389   -0.1667   28.1694 C.ar    1  UNL1        0.0165
     19 C           0.0777    0.2264   29.0337 C.ar    1  UNL1        0.0013
     20 C           0.1806    1.4262   29.9280 C.ar    1  UNL1        0.0001
     21 C           1.4447    2.2330   29.9581 C.ar    1  UNL1        0.0013
     22 C           2.6060    1.8400   29.0938 C.ar    1  UNL1        0.0165
     23 C           6.3268   -0.3516   28.5816 C.3     1  UNL1        0.2002
     24 S           4.9956   -0.0523   27.9584 S.O2    1  UNL1        0.0623
     25 O           5.5647    1.1899   27.3395 O.2     1  UNL1       -0.1539
     26 O           4.4265   -1.2944   28.5773 O.2     1  UNL1       -0.1539
     27 C           6.3588   -2.9406   21.0375 C.3     1  UNL1        0.1043
     28 C           5.6272   -3.6291   19.9236 C.3     1  UNL1        0.1443
     29 O           4.6031   -4.6797   20.2356 O.3     1  UNL1       -0.3813
     30 H           4.5369   -4.7913   21.1969 H       1  UNL1        0.2105
     31 C           5.9198   -3.2671   18.4976 C.3     1  UNL1        0.1001
     32 N           4.9710   -2.3891   17.7369 N.3     1  UNL1       -0.2917
     33 H           4.0536   -2.8320   17.7895 H       1  UNL1        0.1236
     34 C           4.7845   -0.9573   18.1431 C.3     1  UNL1        0.0957
     35 C           3.4584   -0.4933   18.6686 C.ar    1  UNL1       -0.0064
     36 C           2.6630   -1.3775   19.5827 C.ar    1  UNL1       -0.0029
     37 C           1.3368   -0.9135   20.1082 C.ar    1  UNL1       -0.0003
     38 C           0.8061    0.4345   19.7195 C.ar    1  UNL1        0.0038
     39 C           1.6015    1.3187   18.8054 C.ar    1  UNL1        0.0712
     40 C           2.9276    0.8548   18.2800 C.ar    1  UNL1        0.0009
     41 C           1.0708    2.6667   18.4168 C.3     1  UNL1        0.4186
     42 F           0.5402    4.0149   18.0281 F       1  UNL1       -0.1659
     43 F           2.4544    3.1008   18.0332 F       1  UNL1       -0.1659
     44 F          -0.3127    2.2326   18.8004 F       1  UNL1       -0.1659
     45 C           7.7557   -3.3590   21.3887 C.3     1  UNL1        0.0484
     46 C           7.9815   -4.5251   22.3047 C.ar    1  UNL1       -0.0204
     47 C           8.7527   -5.7184   21.8237 C.ar    1  UNL1       -0.0042
     48 C           8.9785   -6.8845   22.7398 C.ar    1  UNL1       -0.0003
     49 C           8.4330   -6.8574   24.1369 C.ar    1  UNL1       -0.0000
     50 C           7.6618   -5.6641   24.6178 C.ar    1  UNL1       -0.0003
     51 C           7.4361   -4.4980   23.7018 C.ar    1  UNL1       -0.0042
@<TRIPOS>BOND
     1    23    24    1
     2    24    25    2
     3    24    26    2
     4    24    16    1
     5    16    17    1
     6    17    18   ar
     7    18    19   ar
     8    19    20   ar
     9    20    21   ar
    10    21    22   ar
    11    16     5    1
    12     5     6   ar
    13     6     7   ar
    14     7     1    1
    15     1     2    2
    16     1     3   am
    17     3    27    1
    18    27    45    1
    19    45    46    1
    20    46    47   ar
    21    47    48   ar
    22    48    49   ar
    23    49    50   ar
    24    50    51   ar
    25    27    28    1
    26    28    29    1
    27    28    31    1
    28    31    32    1
    29    32    34    1
    30    34    35    1
    31    35    36   ar
    32    36    37   ar
    33    37    38   ar
    34    38    39   ar
    35    39    41    1
    36    41    42    1
    37    41    43    1
    38    41    44    1
    39    39    40   ar
    40     7     8   ar
    41     8     9   ar
    42     9    11    1
    43    11    12    1
    44    12    13    1
    45    13    14    1
    46    14    15    1
    47     9    10   ar
    48    22    17   ar
    49    10     5   ar
    50    51    46   ar
    51    40    35   ar
    52    15    11    1
    53     3     4    1
    54    29    30    1
    55    32    33    1
@<TRIPOS>MOLECULE
*****
 51 55 0 0 0
SMALL
GASTEIGER

@<TRIPOS>ATOM
      1 C           4.9387   -1.0038   26.0868 C.2     1  UNL1        0.2459
      2 O           5.8730   -0.0890   25.3518 O.2     1  UNL1       -0.2701
      3 N           3.7082   -1.5246   25.4051 N.am    1  UNL1       -0.2997
      4 H           3.0950   -2.1250   25.8874 H       1  UNL1        0.1498
      5 C           4.9141   -1.0296   30.0553 C.ar    1  UNL1        0.0731
      6 C           4.6180   -0.6355   28.6386 C.ar    1  UNL1        0.0210
      7 C           5.2349   -1.3979   27.5035 C.ar    1  UNL1        0.0543
      8 C           6.1479   -2.5541   27.7851 C.ar    1  UNL1        0.0003
      9 C           6.4440   -2.9482   29.2018 C.ar    1  UNL1       -0.0211
     10 C           5.8272   -2.1859   30.3369 C.ar    1  UNL1        0.0123
     11 C           7.3571   -4.1045   29.4835 C.3     1  UNL1        0.0224
     12 C           6.9564   -5.5485   29.5496 C.3     1  UNL1        0.0044
     13 C           8.1828   -6.3563   29.8554 C.3     1  UNL1        0.0003
     14 C           9.3414   -5.4114   29.9783 C.3     1  UNL1        0.0003
     15 C           8.8310   -4.0198   29.7484 C.3     1  UNL1        0.0044
     16 N           4.2973   -0.2673   31.1903 N.pl3   1  UNL1       -0.1730
     17 C           4.9780   -0.2302   32.5265 C.ar    1  UNL1        0.0733
     18 C           4.3007   -0.8160   33.7298 C.ar    1  UNL1        0.0165
     19 C           4.9815   -0.7788   35.0659 C.ar    1  UNL1        0.0013
     20 C           6.3395   -0.1558   35.1986 C.ar    1  UNL1        0.0001
     21 C           7.0168    0.4301   33.9953 C.ar    1  UNL1        0.0013
     22 C           6.3360    0.3929   32.6592 C.ar    1  UNL1        0.0165
     23 C           1.7020    1.1829   30.7883 C.3     1  UNL1        0.2002
     24 S           2.9996    0.4578   30.9893 S.O2    1  UNL1        0.0623
     25 O           3.7302    1.7679   30.9993 O.2     1  UNL1       -0.1539
     26 O           2.2691   -0.8523   30.9793 O.2     1  UNL1       -0.1539
     27 C           3.4121   -1.1306   23.9884 C.3     1  UNL1        0.1043
     28 C           2.8387    0.2232   23.6907 C.3     1  UNL1        0.1443
     29 O           2.3089    1.0751   24.8058 O.3     1  UNL1       -0.3813
     30 H           2.4118    0.6055   25.6483 H       1  UNL1        0.2105
     31 C           2.7952    0.7251   22.2778 C.3     1  UNL1        0.1001
     32 N           1.5137    0.6670   21.5003 N.3     1  UNL1       -0.2917
     33 H           1.3897    1.5826   21.0683 H       1  UNL1        0.1236
     34 C           1.3417   -0.3518   20.4130 C.3     1  UNL1        0.0957
     35 C           2.5325   -0.8246   19.6330 C.ar    1  UNL1       -0.0064
     36 C           3.3530    0.1561   18.8488 C.ar    1  UNL1       -0.0029
     37 C           4.5438   -0.3168   18.0688 C.ar    1  UNL1       -0.0003
     38 C           4.9142   -1.7704   18.0730 C.ar    1  UNL1        0.0038
     39 C           4.0937   -2.7511   18.8573 C.ar    1  UNL1        0.0712
     40 C           2.9029   -2.2782   19.6373 C.ar    1  UNL1        0.0009
     41 C           4.4640   -4.2046   18.8616 C.3     1  UNL1        0.4186
     42 F           4.8343   -5.6582   18.8658 F       1  UNL1       -0.1659
     43 F           5.9123   -3.8353   18.9879 F       1  UNL1       -0.1659
     44 F           3.0157   -4.5740   18.7352 F       1  UNL1       -0.1659
     45 C           3.6893   -2.0902   22.8694 C.3     1  UNL1        0.0484
     46 C           5.0983   -2.3168   22.4074 C.ar    1  UNL1       -0.0204
     47 C           5.7241   -3.6730   22.5462 C.ar    1  UNL1       -0.0042
     48 C           7.1331   -3.8996   22.0842 C.ar    1  UNL1       -0.0003
     49 C           7.9162   -2.7700   21.4834 C.ar    1  UNL1       -0.0000
     50 C           7.2903   -1.4139   21.3446 C.ar    1  UNL1       -0.0003
     51 C           5.8813   -1.1874   21.8066 C.ar    1  UNL1       -0.0042
@<TRIPOS>BOND
     1    23    24    1
     2    24    25    2
     3    24    26    2
     4    24    16    1
     5    16    17    1
     6    17    18   ar
     7    18    19   ar
     8    19    20   ar
     9    20    21   ar
    10    21    22   ar
    11    16     5    1
    12     5     6   ar
    13     6     7   ar
    14     7     1    1
    15     1     2    2
    16     1     3   am
    17     3    27    1
    18    27    45    1
    19    45    46    1
    20    46    47   ar
    21    47    48   ar
    22    48    49   ar
    23    49    50   ar
    24    50    51   ar
    25    27    28    1
    26    28    29    1
    27    28    31    1
    28    31    32    1
    29    32    34    1
    30    34    35    1
    31    35    36   ar
    32    36    37   ar
    33    37    38   ar
    34    38    39   ar
    35    39    41    1
    36    41    42    1
    37    41    43    1
    38    41    44    1
    39    39    40   ar
    40     7     8   ar
    41     8     9   ar
    42     9    11    1
    43    11    12    1
    44    12    13    1
    45    13    14    1
    46    14    15    1
    47     9    10   ar
    48    22    17   ar
    49    10     5   ar
    50    51    46   ar
    51    40    35   ar
    52    15    11    1
    53     3     4    1
    54    29    30    1
    55    32    33    1
@<TRIPOS>MOLECULE
*****
 51 55 0 0 0
SMALL
GASTEIGER

@<TRIPOS>ATOM
      1 C           3.2807    0.2438   25.2460 C.2     1  UNL1        0.2459
      2 O           3.5853    1.5645   25.8885 O.2     1  UNL1       -0.2701
      3 N           3.2533   -1.0054   26.0759 N.am    1  UNL1       -0.2997
      4 H           3.0534   -1.8723   25.6542 H       1  UNL1        0.1498
      5 C           2.0402    1.2424   21.6109 C.ar    1  UNL1        0.0731
      6 C           2.3176    1.3139   23.0833 C.ar    1  UNL1        0.0210
      7 C           3.0033    0.1723   23.7736 C.ar    1  UNL1        0.0543
      8 C           3.4117   -1.0407   22.9915 C.ar    1  UNL1        0.0003
      9 C           3.1344   -1.1122   21.5191 C.ar    1  UNL1       -0.0211
     10 C           2.4486    0.0293   20.8288 C.ar    1  UNL1        0.0123
     11 C           3.5428   -2.3253   20.7371 C.3     1  UNL1        0.0224
     12 C           3.3218   -2.5439   19.2696 C.3     1  UNL1        0.0044
     13 C           3.8863   -3.8864   18.9107 C.3     1  UNL1        0.0003
     14 C           4.4562   -4.4976   20.1564 C.3     1  UNL1        0.0003
     15 C           4.2439   -3.5328   21.2851 C.3     1  UNL1        0.0044
     16 N           1.3545    2.3840   20.9205 N.pl3   1  UNL1       -0.1730
     17 C           2.0450    3.1087   19.8033 C.ar    1  UNL1        0.0733
     18 C           1.2392    3.8632   18.7877 C.ar    1  UNL1        0.0165
     19 C           1.9297    4.5878   17.6706 C.ar    1  UNL1        0.0013
     20 C           3.4260    4.5579   17.5690 C.ar    1  UNL1        0.0001
     21 C           4.2317    3.8034   18.5846 C.ar    1  UNL1        0.0013
     22 C           3.5412    3.0788   19.7017 C.ar    1  UNL1        0.0165
     23 C          -1.3980    3.2178   21.7742 C.3     1  UNL1        0.2002
     24 S          -0.0217    2.8009   21.3473 S.O2    1  UNL1        0.0623
     25 O           0.5508    4.0254   21.9975 O.2     1  UNL1       -0.1539
     26 O          -0.5943    1.5764   20.6972 O.2     1  UNL1       -0.1539
     27 C           3.5307   -0.9339   27.5483 C.3     1  UNL1        0.1043
     28 C           4.9313   -1.1064   28.0569 C.3     1  UNL1        0.1443
     29 O           5.2438   -0.8382   29.4992 O.3     1  UNL1       -0.3813
     30 H           4.4352   -0.5646   29.9598 H       1  UNL1        0.2105
     31 C           6.0194   -1.5470   27.1231 C.3     1  UNL1        0.1001
     32 N           6.5589   -0.5946   26.0976 N.3     1  UNL1       -0.2917
     33 H           7.2499   -0.0125   26.5711 H       1  UNL1        0.1236
     34 C           7.2147   -1.1219   24.8559 C.3     1  UNL1        0.0957
     35 C           6.9178   -0.4940   23.5264 C.ar    1  UNL1       -0.0064
     36 C           6.4972    0.9440   23.4533 C.ar    1  UNL1       -0.0029
     37 C           6.2002    1.5718   22.1237 C.ar    1  UNL1       -0.0003
     38 C           6.3238    0.7617   20.8674 C.ar    1  UNL1        0.0038
     39 C           6.7443   -0.6763   20.9405 C.ar    1  UNL1        0.0712
     40 C           7.0413   -1.3041   22.2700 C.ar    1  UNL1        0.0009
     41 C           6.8679   -1.4864   19.6842 C.3     1  UNL1        0.4186
     42 F           6.9914   -2.2965   18.4278 F       1  UNL1       -0.1659
     43 F           5.9218   -0.5527   18.9891 F       1  UNL1       -0.1659
     44 F           7.8140   -2.4200   20.3793 F       1  UNL1       -0.1659
     45 C           2.4075   -0.6900   28.5121 C.3     1  UNL1        0.0484
     46 C           1.7011    0.6332   28.5212 C.ar    1  UNL1       -0.0204
     47 C           0.4012    0.7945   27.7901 C.ar    1  UNL1       -0.0042
     48 C          -0.3052    2.1177   27.7992 C.ar    1  UNL1       -0.0003
     49 C           0.2882    3.2796   28.5394 C.ar    1  UNL1       -0.0000
     50 C           1.5880    3.1183   29.2704 C.ar    1  UNL1       -0.0003
     51 C           2.2945    1.7951   29.2613 C.ar    1  UNL1       -0.0042
@<TRIPOS>BOND
     1    23    24    1
     2    24    25    2
     3    24    26    2
     4    24    16    1
     5    16    17    1
     6    17    18   ar
     7    18    19   ar
     8    19    20   ar
     9    20    21   ar
    10    21    22   ar
    11    16     5    1
    12     5     6   ar
    13     6     7   ar
    14     7     1    1
    15     1     2    2
    16     1     3   am
    17     3    27    1
    18    27    45    1
    19    45    46    1
    20    46    47   ar
    21    47    48   ar
    22    48    49   ar
    23    49    50   ar
    24    50    51   ar
    25    27    28    1
    26    28    29    1
    27    28    31    1
    28    31    32    1
    29    32    34    1
    30    34    35    1
    31    35    36   ar
    32    36    37   ar
    33    37    38   ar
    34    38    39   ar
    35    39    41    1
    36    41    42    1
    37    41    43    1
    38    41    44    1
    39    39    40   ar
    40     7     8   ar
    41     8     9   ar
    42     9    11    1
    43    11    12    1
    44    12    13    1
    45    13    14    1
    46    14    15    1
    47     9    10   ar
    48    22    17   ar
    49    10     5   ar
    50    51    46   ar
    51    40    35   ar
    52    15    11    1
    53     3     4    1
    54    29    30    1
    55    32    33    1
@<TRIPOS>MOLECULE
*****
 51 55 0 0 0
SMALL
GASTEIGER

@<TRIPOS>ATOM
      1 C           6.3795   -3.7786   22.9093 C.2     1  UNL1        0.2459
      2 O           7.2003   -4.9845   22.5599 O.2     1  UNL1       -0.2701
      3 N           5.7348   -2.9697   21.8229 N.am    1  UNL1       -0.2997
      4 H           5.1961   -2.1782   22.0522 H       1  UNL1        0.1498
      5 C           5.1729   -1.8028   26.1327 C.ar    1  UNL1        0.0731
      6 C           5.3491   -2.1998   24.6970 C.ar    1  UNL1        0.0210
      7 C           6.2033   -3.3816   24.3450 C.ar    1  UNL1        0.0543
      8 C           6.8813   -4.1663   25.4287 C.ar    1  UNL1        0.0003
      9 C           6.7052   -3.7692   26.8645 C.ar    1  UNL1       -0.0211
     10 C           5.8510   -2.5876   27.2165 C.ar    1  UNL1        0.0123
     11 C           7.3832   -4.5539   27.9482 C.3     1  UNL1        0.0224
     12 C           6.7028   -5.4148   28.9709 C.3     1  UNL1        0.0044
     13 C           7.7597   -6.0084   29.8543 C.3     1  UNL1        0.0003
     14 C           9.0934   -5.5143   29.3776 C.3     1  UNL1        0.0003
     15 C           8.8607   -4.6154   28.1996 C.3     1  UNL1        0.0044
     16 N           4.3187   -0.6211   26.4847 N.pl3   1  UNL1       -0.1730
     17 C           3.8122    0.2868   25.4034 C.ar    1  UNL1        0.0733
     18 C           4.5266    1.5721   25.1075 C.ar    1  UNL1        0.0165
     19 C           4.0200    2.4800   24.0263 C.ar    1  UNL1        0.0013
     20 C           2.7990    2.1026   23.2410 C.ar    1  UNL1        0.0001
     21 C           2.0846    0.8173   23.5369 C.ar    1  UNL1        0.0013
     22 C           2.5912   -0.0906   24.6181 C.ar    1  UNL1        0.0165
     23 C           3.6234   -0.0736   29.3512 C.3     1  UNL1        0.2002
     24 S           3.9710   -0.3474   27.9179 S.O2    1  UNL1        0.0623
     25 O           2.7994   -1.2779   27.8115 O.2     1  UNL1       -0.1539
     26 O           5.1427    0.5832   28.0244 O.2     1  UNL1       -0.1539
     27 C           5.9110   -3.3667   20.3872 C.3     1  UNL1        0.1043
     28 C           4.8275   -4.1264   19.6807 C.3     1  UNL1        0.1443
     29 O           5.0339   -5.5682   19.3222 O.3     1  UNL1       -0.3813
     30 H           5.9137   -5.8517   19.6161 H       1  UNL1        0.2105
     31 C           3.5377   -3.4442   19.3328 C.3     1  UNL1        0.1001
     32 N           3.0237   -2.3282   20.1932 N.3     1  UNL1       -0.2917
     33 H           3.7755   -2.0828   20.8373 H       1  UNL1        0.1236
     34 C           2.5582   -1.0490   19.5633 C.3     1  UNL1        0.0957
     35 C           3.4365    0.1666   19.5969 C.ar    1  UNL1       -0.0064
     36 C           3.2214    1.2748   18.6093 C.ar    1  UNL1       -0.0029
     37 C           4.0997    2.4904   18.6430 C.ar    1  UNL1       -0.0003
     38 C           5.1930    2.5976   19.6643 C.ar    1  UNL1        0.0038
     39 C           5.4081    1.4893   20.6519 C.ar    1  UNL1        0.0712
     40 C           4.5299    0.2738   20.6182 C.ar    1  UNL1        0.0009
     41 C           6.5014    1.5966   21.6732 C.3     1  UNL1        0.4186
     42 F           7.5948    1.7038   22.6945 F       1  UNL1       -0.1659
     43 F           6.6100    3.0679   21.4025 F       1  UNL1       -0.1659
     44 F           6.3929    0.1252   21.9439 F       1  UNL1       -0.1659
     45 C           7.1706   -3.0041   19.6579 C.3     1  UNL1        0.0484
     46 C           7.2721   -1.6882   18.9449 C.ar    1  UNL1       -0.0204
     47 C           8.3283   -0.6997   19.3418 C.ar    1  UNL1       -0.0042
     48 C           8.4298    0.6161   18.6288 C.ar    1  UNL1       -0.0003
     49 C           7.4751    0.9435   17.5191 C.ar    1  UNL1       -0.0000
     50 C           6.4190   -0.0450   17.1223 C.ar    1  UNL1       -0.0003
     51 C           6.3175   -1.3608   17.8352 C.ar    1  UNL1       -0.0042
@<TRIPOS>BOND
     1    23    24    1
     2    24    25    2
     3    24    26    2
     4    24    16    1
     5    16    17    1
     6    17    18   ar
     7    18    19   ar
     8    19    20   ar
     9    20    21   ar
    10    21    22   ar
    11    16     5    1
    12     5     6   ar
    13     6     7   ar
    14     7     1    1
    15     1     2    2
    16     1     3   am
    17     3    27    1
    18    27    45    1
    19    45    46    1
    20    46    47   ar
    21    47    48   ar
    22    48    49   ar
    23    49    50   ar
    24    50    51   ar
    25    27    28    1
    26    28    29    1
    27    28    31    1
    28    31    32    1
    29    32    34    1
    30    34    35    1
    31    35    36   ar
    32    36    37   ar
    33    37    38   ar
    34    38    39   ar
    35    39    41    1
    36    41    42    1
    37    41    43    1
    38    41    44    1
    39    39    40   ar
    40     7     8   ar
    41     8     9   ar
    42     9    11    1
    43    11    12    1
    44    12    13    1
    45    13    14    1
    46    14    15    1
    47     9    10   ar
    48    22    17   ar
    49    10     5   ar
    50    51    46   ar
    51    40    35   ar
    52    15    11    1
    53     3     4    1
    54    29    30    1
    55    32    33    1
