@<TRIPOS>MOLECULE
*****
 38 42 0 0 0
SMALL
GASTEIGER

@<TRIPOS>ATOM
      1 C          -4.6988  -16.0323   23.8062 C.3     1  UNL1        0.0666
      2 S          -5.8861  -15.1190   23.8842 S.3     1  UNL1       -0.0756
      3 C          -8.3846  -16.2580   25.6476 C.3     1  UNL1        0.1340
      4 N          -8.3615  -16.0900   24.1572 N.ar    1  UNL1       -0.2884
      5 C          -7.2131  -15.5665   23.3467 C.ar    1  UNL1        0.1932
      6 N          -7.6245  -15.5690   21.9042 N.ar    1  UNL1       -0.1221
      7 N          -9.0273  -16.0942   21.8232 N.ar    1  UNL1       -0.1282
      8 C          -9.4828  -16.4162   23.2157 C.ar    1  UNL1        0.1668
      9 C         -10.8241  -16.9675   23.5992 C.ar    1  UNL1        0.0360
     10 C         -12.0763  -16.2946   23.1206 C.ar    1  UNL1        0.0032
     11 C         -13.4176  -16.8459   23.5041 C.ar    1  UNL1        0.0046
     12 C         -13.5065  -18.0702   24.3664 C.ar    1  UNL1        0.0531
     13 C         -12.2542  -18.7430   24.8451 C.ar    1  UNL1        0.0046
     14 C         -10.9130  -18.1916   24.4615 C.ar    1  UNL1        0.0032
     15 C         -14.8477  -18.6215   24.7500 C.2     1  UNL1        0.2427
     16 N         -15.9004  -18.8301   23.7020 N.am    1  UNL1       -0.3253
     17 O         -15.1362  -18.9642   26.1815 O.2     1  UNL1       -0.2704
     18 H         -15.7111  -18.6051   22.7624 H       1  UNL1        0.1453
     19 H         -16.7807  -19.1919   23.9537 H       1  UNL1        0.1453
     20 C          -3.6851  -15.8532   22.7152 C.3     1  UNL1        0.0294
     21 C          -2.5500  -16.8242   22.5792 C.3     1  UNL1        0.0730
     22 N          -2.7283  -18.0788   21.7766 N.3     1  UNL1       -0.2726
     23 C          -1.6283  -18.9493   21.2452 C.3     1  UNL1        0.0721
     24 C          -2.2581  -20.0917   20.5046 C.3     1  UNL1        0.0190
     25 C          -3.7473  -19.9272   20.5784 C.3     1  UNL1        0.0201
     26 C          -4.0803  -21.1577   19.7879 C.3     1  UNL1        0.0061
     27 C          -5.1802  -20.2872   20.3193 C.3     1  UNL1        0.0237
     28 C          -4.0378  -18.6832   21.3645 C.3     1  UNL1        0.0724
     29 C          -6.6425  -19.9925   20.4765 C.ar    1  UNL1       -0.0225
     30 C          -7.4965  -19.7658   19.2643 C.ar    1  UNL1       -0.0043
     31 C          -8.9588  -19.4711   19.4216 C.ar    1  UNL1        0.0035
     32 C          -9.5672  -19.4030   20.7910 C.ar    1  UNL1        0.0714
     33 C          -8.7131  -19.6296   22.0032 C.ar    1  UNL1        0.0035
     34 C          -7.2508  -19.9244   21.8459 C.ar    1  UNL1       -0.0043
     35 C         -11.0295  -19.1083   20.9482 C.3     1  UNL1        0.4186
     36 F         -12.4919  -18.8135   21.1055 F       1  UNL1       -0.1659
     37 F         -11.1583  -20.2573   21.9038 F       1  UNL1       -0.1659
     38 F         -10.9006  -17.9592   19.9927 F       1  UNL1       -0.1659
@<TRIPOS>BOND
     1     3     4    1
     2     4     5   ar
     3     5     2    1
     4     2     1    1
     5     1    20    1
     6    20    21    1
     7    21    22    1
     8    22    23    1
     9    23    24    1
    10    25    24    1
    11    25    26    1
    12    26    27    1
    13    27    29    1
    14    29    30   ar
    15    30    31   ar
    16    31    32   ar
    17    32    35    1
    18    35    36    1
    19    35    37    1
    20    35    38    1
    21    32    33   ar
    22    33    34   ar
    23    25    28    1
    24     5     6   ar
    25     6     7   ar
    26     7     8   ar
    27     8     9    1
    28     9    10   ar
    29    10    11   ar
    30    11    12   ar
    31    12    15    1
    32    15    16   am
    33    15    17    2
    34    12    13   ar
    35    13    14   ar
    36     8     4   ar
    37    14     9   ar
    38    28    22    1
    39    27    25    1
    40    34    29   ar
    41    16    18    1
    42    16    19    1
@<TRIPOS>MOLECULE
*****
 38 42 0 0 0
SMALL
GASTEIGER

@<TRIPOS>ATOM
      1 C          -6.3443  -20.6327   19.4915 C.3     1  UNL1        0.0666
      2 S          -7.0442  -19.3163   19.3264 S.3     1  UNL1       -0.0756
      3 C         -10.0199  -20.1818   20.3492 C.3     1  UNL1        0.1340
      4 N          -9.1577  -19.1115   20.9501 N.ar    1  UNL1       -0.2884
      5 C          -7.7899  -18.7137   20.4800 C.ar    1  UNL1        0.1932
      6 N          -7.2988  -17.6074   21.3659 N.ar    1  UNL1       -0.1221
      7 N          -8.3630  -17.3214   22.3836 N.ar    1  UNL1       -0.1282
      8 C          -9.5119  -18.2510   22.1267 C.ar    1  UNL1        0.1668
      9 C         -10.7905  -18.3098   22.9089 C.ar    1  UNL1        0.0360
     10 C         -12.0376  -17.6867   22.3554 C.ar    1  UNL1        0.0032
     11 C         -13.3162  -17.7455   23.1376 C.ar    1  UNL1        0.0046
     12 C         -13.3475  -18.4274   24.4734 C.ar    1  UNL1        0.0531
     13 C         -12.1003  -19.0505   25.0268 C.ar    1  UNL1        0.0046
     14 C         -10.8218  -18.9917   24.2445 C.ar    1  UNL1        0.0032
     15 C         -14.6260  -18.4862   25.2556 C.2     1  UNL1        0.2427
     16 N         -14.6078  -18.2703   26.7398 N.am    1  UNL1       -0.3253
     17 O         -15.9228  -18.7610   24.5535 O.2     1  UNL1       -0.2704
     18 H         -13.7567  -18.0900   27.2006 H       1  UNL1        0.1453
     19 H         -15.4470  -18.3089   27.2532 H       1  UNL1        0.1453
     20 C          -5.4708  -20.8730   20.6870 C.3     1  UNL1        0.0294
     21 C          -3.9788  -20.7939   20.5540 C.3     1  UNL1        0.0730
     22 N          -3.2763  -19.4839   20.7551 N.3     1  UNL1       -0.2726
     23 C          -2.0714  -19.0048   20.0012 C.3     1  UNL1        0.0721
     24 C          -1.7058  -17.6478   20.5257 C.3     1  UNL1        0.0190
     25 C          -2.6849  -17.2883   21.6038 C.3     1  UNL1        0.0201
     26 C          -2.0886  -15.9480   21.9165 C.3     1  UNL1        0.0061
     27 C          -3.2935  -16.4271   22.6705 C.3     1  UNL1        0.0237
     28 C          -3.6555  -18.4231   21.7456 C.3     1  UNL1        0.0724
     29 C          -4.3406  -16.2066   23.7216 C.ar    1  UNL1       -0.0225
     30 C          -4.2053  -16.8618   25.0642 C.ar    1  UNL1       -0.0043
     31 C          -5.2524  -16.6412   26.1153 C.ar    1  UNL1        0.0035
     32 C          -6.4349  -15.7655   25.8239 C.ar    1  UNL1        0.0714
     33 C          -6.5702  -15.1103   24.4813 C.ar    1  UNL1        0.0035
     34 C          -5.5231  -15.3308   23.4302 C.ar    1  UNL1       -0.0043
     35 C          -7.4820  -15.5449   26.8750 C.3     1  UNL1        0.4186
     36 F          -8.5291  -15.3243   27.9262 F       1  UNL1       -0.1659
     37 F          -8.4337  -16.4156   26.1095 F       1  UNL1       -0.1659
     38 F          -6.5302  -14.6742   27.6404 F       1  UNL1       -0.1659
@<TRIPOS>BOND
     1     3     4    1
     2     4     5   ar
     3     5     2    1
     4     2     1    1
     5     1    20    1
     6    20    21    1
     7    21    22    1
     8    22    23    1
     9    23    24    1
    10    25    24    1
    11    25    26    1
    12    26    27    1
    13    27    29    1
    14    29    30   ar
    15    30    31   ar
    16    31    32   ar
    17    32    35    1
    18    35    36    1
    19    35    37    1
    20    35    38    1
    21    32    33   ar
    22    33    34   ar
    23    25    28    1
    24     5     6   ar
    25     6     7   ar
    26     7     8   ar
    27     8     9    1
    28     9    10   ar
    29    10    11   ar
    30    11    12   ar
    31    12    15    1
    32    15    16   am
    33    15    17    2
    34    12    13   ar
    35    13    14   ar
    36     8     4   ar
    37    14     9   ar
    38    28    22    1
    39    27    25    1
    40    34    29   ar
    41    16    18    1
    42    16    19    1
@<TRIPOS>MOLECULE
*****
 38 42 0 0 0
SMALL
GASTEIGER

@<TRIPOS>ATOM
      1 C           0.1708    5.7670   20.1515 C.3     1  UNL1        0.0666
      2 S          -0.0992    4.7059   21.1767 S.3     1  UNL1       -0.0756
      3 C           2.6593    3.2737   20.1819 C.3     1  UNL1        0.1340
      4 N           1.3311    2.6001   20.3611 N.ar    1  UNL1       -0.2884
      5 C           0.0632    3.2584   20.8183 C.ar    1  UNL1        0.1932
      6 N          -1.0140    2.2150   20.8544 N.ar    1  UNL1       -0.1221
      7 N          -0.4118    0.9119   20.4194 N.ar    1  UNL1       -0.1282
      8 C           1.0376    1.1498   20.1145 C.ar    1  UNL1        0.1668
      9 C           2.0207    0.1186   19.6455 C.ar    1  UNL1        0.0360
     10 C           2.6412    0.2380   18.2851 C.ar    1  UNL1        0.0032
     11 C           3.6244   -0.7933   17.8160 C.ar    1  UNL1        0.0046
     12 C           3.9870   -1.9439   18.7075 C.ar    1  UNL1        0.0531
     13 C           3.3666   -2.0632   20.0679 C.ar    1  UNL1        0.0046
     14 C           2.3834   -1.0320   20.5369 C.ar    1  UNL1        0.0032
     15 C           4.9702   -2.9751   18.2385 C.2     1  UNL1        0.2427
     16 N           4.6472   -4.4339   18.3703 N.am    1  UNL1       -0.3253
     17 O           6.2763   -2.5474   17.6376 O.2     1  UNL1       -0.2704
     18 H           3.7899   -4.7146   18.7647 H       1  UNL1        0.1453
     19 H           5.2925   -5.1108   18.0625 H       1  UNL1        0.1453
     20 C          -0.8362    6.0428   19.0744 C.3     1  UNL1        0.0294
     21 C          -1.2026    4.9660   18.0966 C.3     1  UNL1        0.0730
     22 N          -2.6100    4.4501   18.0416 N.3     1  UNL1       -0.2726
     23 C          -3.3345    3.9942   16.8098 C.3     1  UNL1        0.0721
     24 C          -4.7122    3.5618   17.2157 C.3     1  UNL1        0.0190
     25 C          -4.8393    3.7505   18.6984 C.3     1  UNL1        0.0201
     26 C          -6.2523    3.2571   18.7987 C.3     1  UNL1        0.0061
     27 C          -5.5279    3.7130   20.0305 C.3     1  UNL1        0.0237
     28 C          -3.5401    4.2994   19.2088 C.3     1  UNL1        0.0724
     29 C          -5.5071    3.9545   21.5107 C.ar    1  UNL1       -0.0225
     30 C          -4.8083    2.9865   22.4189 C.ar    1  UNL1       -0.0043
     31 C          -4.7875    3.2281   23.8992 C.ar    1  UNL1        0.0035
     32 C          -5.4656    4.4376   24.4713 C.ar    1  UNL1        0.0714
     33 C          -6.1644    5.4056   23.5631 C.ar    1  UNL1        0.0035
     34 C          -6.1851    5.1640   22.0828 C.ar    1  UNL1       -0.0043
     35 C          -5.4448    4.6791   25.9515 C.3     1  UNL1        0.4186
     36 F          -5.4240    4.9207   27.4319 F       1  UNL1       -0.1659
     37 F          -6.4181    5.8077   25.7810 F       1  UNL1       -0.1659
     38 F          -4.4716    3.5506   26.1220 F       1  UNL1       -0.1659
@<TRIPOS>BOND
     1     3     4    1
     2     4     5   ar
     3     5     2    1
     4     2     1    1
     5     1    20    1
     6    20    21    1
     7    21    22    1
     8    22    23    1
     9    23    24    1
    10    25    24    1
    11    25    26    1
    12    26    27    1
    13    27    29    1
    14    29    30   ar
    15    30    31   ar
    16    31    32   ar
    17    32    35    1
    18    35    36    1
    19    35    37    1
    20    35    38    1
    21    32    33   ar
    22    33    34   ar
    23    25    28    1
    24     5     6   ar
    25     6     7   ar
    26     7     8   ar
    27     8     9    1
    28     9    10   ar
    29    10    11   ar
    30    11    12   ar
    31    12    15    1
    32    15    16   am
    33    15    17    2
    34    12    13   ar
    35    13    14   ar
    36     8     4   ar
    37    14     9   ar
    38    28    22    1
    39    27    25    1
    40    34    29   ar
    41    16    18    1
    42    16    19    1
@<TRIPOS>MOLECULE
*****
 38 42 0 0 0
SMALL
GASTEIGER

@<TRIPOS>ATOM
      1 C           1.1797    1.0599   26.9050 C.3     1  UNL1        0.0666
      2 S           2.3907    1.7445   26.3439 S.3     1  UNL1       -0.0756
      3 C           3.5418   -0.8839   24.7896 C.3     1  UNL1        0.1340
      4 N           3.2231    0.4414   24.1636 N.ar    1  UNL1       -0.2884
      5 C           2.6940    1.6496   24.8780 C.ar    1  UNL1        0.1932
      6 N           2.5215    2.7461   23.8691 N.ar    1  UNL1       -0.1221
      7 N           2.9440    2.2157   22.5312 N.ar    1  UNL1       -0.1282
      8 C           3.3776    0.7913   22.7131 C.ar    1  UNL1        0.1668
      9 C           3.8779   -0.1227   21.6340 C.ar    1  UNL1        0.0360
     10 C           3.0446   -1.2896   21.1935 C.ar    1  UNL1        0.0032
     11 C           3.5449   -2.2036   20.1144 C.ar    1  UNL1        0.0046
     12 C           4.8785   -1.9507   19.4760 C.ar    1  UNL1        0.0531
     13 C           5.7118   -0.7838   19.9165 C.ar    1  UNL1        0.0046
     14 C           5.2114    0.1302   20.9956 C.ar    1  UNL1        0.0032
     15 C           5.3788   -2.8647   18.3969 C.2     1  UNL1        0.2427
     16 N           4.7789   -4.2296   18.2325 N.am    1  UNL1       -0.3253
     17 O           6.4788   -2.4137   17.4824 O.2     1  UNL1       -0.2704
     18 H           4.0569   -4.5256   18.8327 H       1  UNL1        0.1453
     19 H           5.1073   -4.8295   17.5242 H       1  UNL1        0.1453
     20 C          -0.1917    1.5639   26.5652 C.3     1  UNL1        0.0294
     21 C          -0.3856    2.9947   26.1588 C.3     1  UNL1        0.0730
     22 N          -1.2630    3.3298   24.9892 N.3     1  UNL1       -0.2726
     23 C          -2.6265    3.9510   25.0593 C.3     1  UNL1        0.0721
     24 C          -3.1370    4.1077   23.6576 C.3     1  UNL1        0.0190
     25 C          -2.0890    3.5834   22.7212 C.3     1  UNL1        0.0201
     26 C          -2.8520    3.8619   21.4601 C.3     1  UNL1        0.0061
     27 C          -1.4884    3.2407   21.3900 C.3     1  UNL1        0.0237
     28 C          -0.9307    3.1026   23.5442 C.3     1  UNL1        0.0724
     29 C          -0.3545    2.6843   20.5811 C.ar    1  UNL1       -0.0225
     30 C           0.6398    3.6111   19.9465 C.ar    1  UNL1       -0.0043
     31 C           1.7737    3.0546   19.1376 C.ar    1  UNL1        0.0035
     32 C           1.9135    1.5714   18.9632 C.ar    1  UNL1        0.0714
     33 C           0.9193    0.6446   19.5977 C.ar    1  UNL1        0.0035
     34 C          -0.2147    1.2010   20.4067 C.ar    1  UNL1       -0.0043
     35 C           3.0475    1.0149   18.1542 C.3     1  UNL1        0.4186
     36 F           4.1815    0.4584   17.3452 F       1  UNL1       -0.1659
     37 F           3.9161    2.1595   18.5846 F       1  UNL1       -0.1659
     38 F           2.1788   -0.1297   17.7239 F       1  UNL1       -0.1659
@<TRIPOS>BOND
     1     3     4    1
     2     4     5   ar
     3     5     2    1
     4     2     1    1
     5     1    20    1
     6    20    21    1
     7    21    22    1
     8    22    23    1
     9    23    24    1
    10    25    24    1
    11    25    26    1
    12    26    27    1
    13    27    29    1
    14    29    30   ar
    15    30    31   ar
    16    31    32   ar
    17    32    35    1
    18    35    36    1
    19    35    37    1
    20    35    38    1
    21    32    33   ar
    22    33    34   ar
    23    25    28    1
    24     5     6   ar
    25     6     7   ar
    26     7     8   ar
    27     8     9    1
    28     9    10   ar
    29    10    11   ar
    30    11    12   ar
    31    12    15    1
    32    15    16   am
    33    15    17    2
    34    12    13   ar
    35    13    14   ar
    36     8     4   ar
    37    14     9   ar
    38    28    22    1
    39    27    25    1
    40    34    29   ar
    41    16    18    1
    42    16    19    1
@<TRIPOS>MOLECULE
*****
 38 42 0 0 0
SMALL
GASTEIGER

@<TRIPOS>ATOM
      1 C          -4.6582  -19.1608   20.9352 C.3     1  UNL1        0.0666
      2 S          -5.7375  -20.0991   20.4831 S.3     1  UNL1       -0.0756
      3 C          -7.6842  -20.1516   23.1018 C.3     1  UNL1        0.1340
      4 N          -8.0679  -19.6902   21.7270 N.ar    1  UNL1       -0.2884
      5 C          -7.1731  -19.6661   20.5233 C.ar    1  UNL1        0.1932
      6 N          -7.9659  -19.1330   19.3670 N.ar    1  UNL1       -0.1221
      7 N          -9.3507  -18.8275   19.8559 N.ar    1  UNL1       -0.1282
      8 C          -9.4138  -19.1719   21.3145 C.ar    1  UNL1        0.1668
      9 C         -10.6122  -19.0240   22.2044 C.ar    1  UNL1        0.0360
     10 C         -11.9701  -18.8096   21.6042 C.ar    1  UNL1        0.0032
     11 C         -13.1686  -18.6617   22.4941 C.ar    1  UNL1        0.0046
     12 C         -13.0090  -18.7282   23.9842 C.ar    1  UNL1        0.0531
     13 C         -11.6512  -18.9426   24.5843 C.ar    1  UNL1        0.0046
     14 C         -10.4527  -19.0905   23.6944 C.ar    1  UNL1        0.0032
     15 C         -14.2075  -18.5803   24.8740 C.2     1  UNL1        0.2427
     16 N         -14.0255  -18.3373   26.3430 N.am    1  UNL1       -0.3253
     17 O         -15.5879  -18.6755   24.2949 O.2     1  UNL1       -0.2704
     18 H         -13.1195  -18.2748   26.7230 H       1  UNL1        0.1453
     19 H         -14.8121  -18.2402   26.9270 H       1  UNL1        0.1453
     20 C          -4.1697  -19.2068   22.3528 C.3     1  UNL1        0.0294
     21 C          -3.6265  -17.9673   22.9996 C.3     1  UNL1        0.0730
     22 N          -4.4664  -17.2031   23.9797 N.3     1  UNL1       -0.2726
     23 C          -4.0685  -16.8260   25.3759 C.3     1  UNL1        0.0721
     24 C          -5.2078  -16.0717   25.9948 C.3     1  UNL1        0.0190
     25 C          -6.3098  -15.9826   24.9810 C.3     1  UNL1        0.0201
     26 C          -7.2603  -15.2133   25.8498 C.3     1  UNL1        0.0061
     27 C          -7.6581  -15.5904   24.4536 C.3     1  UNL1        0.0237
     28 C          -5.8516  -16.6818   23.7356 C.3     1  UNL1        0.0724
     29 C          -8.6663  -15.5817   23.3429 C.ar    1  UNL1       -0.0225
     30 C         -10.1260  -15.7318   23.6538 C.ar    1  UNL1       -0.0043
     31 C         -11.1342  -15.7231   22.5432 C.ar    1  UNL1        0.0035
     32 C         -10.6825  -15.5643   21.1216 C.ar    1  UNL1        0.0714
     33 C          -9.2228  -15.4142   20.8107 C.ar    1  UNL1        0.0035
     34 C          -8.2147  -15.4229   21.9214 C.ar    1  UNL1       -0.0043
     35 C         -11.6907  -15.5556   20.0110 C.3     1  UNL1        0.4186
     36 F         -12.6989  -15.5469   18.9002 F       1  UNL1       -0.1659
     37 F         -12.7695  -15.9200   20.9874 F       1  UNL1       -0.1659
     38 F         -10.6119  -15.1912   19.0346 F       1  UNL1       -0.1659
@<TRIPOS>BOND
     1     3     4    1
     2     4     5   ar
     3     5     2    1
     4     2     1    1
     5     1    20    1
     6    20    21    1
     7    21    22    1
     8    22    23    1
     9    23    24    1
    10    25    24    1
    11    25    26    1
    12    26    27    1
    13    27    29    1
    14    29    30   ar
    15    30    31   ar
    16    31    32   ar
    17    32    35    1
    18    35    36    1
    19    35    37    1
    20    35    38    1
    21    32    33   ar
    22    33    34   ar
    23    25    28    1
    24     5     6   ar
    25     6     7   ar
    26     7     8   ar
    27     8     9    1
    28     9    10   ar
    29    10    11   ar
    30    11    12   ar
    31    12    15    1
    32    15    16   am
    33    15    17    2
    34    12    13   ar
    35    13    14   ar
    36     8     4   ar
    37    14     9   ar
    38    28    22    1
    39    27    25    1
    40    34    29   ar
    41    16    18    1
    42    16    19    1
@<TRIPOS>MOLECULE
*****
 38 42 0 0 0
SMALL
GASTEIGER

@<TRIPOS>ATOM
      1 C           5.3863    6.2229   19.4422 C.3     1  UNL1        0.0666
      2 S           6.5246    5.4510   18.8436 S.3     1  UNL1       -0.0756
      3 C           7.5067    3.0515   20.8254 C.3     1  UNL1        0.1340
      4 N           6.8317    2.8774   19.4973 N.ar    1  UNL1       -0.2884
      5 C           6.3803    3.9803   18.5863 C.ar    1  UNL1        0.1932
      6 N           5.7591    3.3544   17.3729 N.ar    1  UNL1       -0.1221
      7 N           5.8267    1.8646   17.5339 N.ar    1  UNL1       -0.1282
      8 C           6.4895    1.5697   18.8468 C.ar    1  UNL1        0.1668
      9 C           6.7623    0.2066   19.4104 C.ar    1  UNL1        0.0360
     10 C           6.1492   -0.2011   20.7172 C.ar    1  UNL1        0.0032
     11 C           6.4220   -1.5642   21.2807 C.ar    1  UNL1        0.0046
     12 C           7.3079   -2.5196   20.5373 C.ar    1  UNL1        0.0531
     13 C           7.9210   -2.1118   19.2305 C.ar    1  UNL1        0.0046
     14 C           7.6482   -0.7487   18.6670 C.ar    1  UNL1        0.0032
     15 C           7.5807   -3.8827   21.1009 C.2     1  UNL1        0.2427
     16 N           8.8829   -4.5679   20.8095 N.am    1  UNL1       -0.3253
     17 O           6.5514   -4.5605   21.9557 O.2     1  UNL1       -0.2704
     18 H           9.5585   -4.1229   20.2484 H       1  UNL1        0.1453
     19 H           9.0619   -5.4625   21.1794 H       1  UNL1        0.1453
     20 C           5.0069    6.0078   20.8774 C.3     1  UNL1        0.0294
     21 C           4.2177    4.7944   21.2708 C.3     1  UNL1        0.0730
     22 N           3.0839    4.3249   20.4082 N.3     1  UNL1       -0.2726
     23 C           1.9410    5.1649   19.9202 C.3     1  UNL1        0.0721
     24 C           1.0447    4.2922   19.0925 C.3     1  UNL1        0.0190
     25 C           1.6337    2.9128   19.0691 C.3     1  UNL1        0.0201
     26 C           0.5676    2.3017   18.2088 C.3     1  UNL1        0.0061
     27 C           1.7105    1.4618   18.6968 C.3     1  UNL1        0.0237
     28 C           2.8940    2.9331   19.8822 C.3     1  UNL1        0.0724
     29 C           2.4148    0.1391   18.7637 C.ar    1  UNL1       -0.0225
     30 C           3.3266   -0.2823   17.6496 C.ar    1  UNL1       -0.0043
     31 C           4.0309   -1.6050   17.7165 C.ar    1  UNL1        0.0035
     32 C           3.8233   -2.5063   18.8974 C.ar    1  UNL1        0.0714
     33 C           2.9115   -2.0849   20.0114 C.ar    1  UNL1        0.0035
     34 C           2.2072   -0.7622   19.9446 C.ar    1  UNL1       -0.0043
     35 C           4.5276   -3.8290   18.9642 C.3     1  UNL1        0.4186
     36 F           5.2319   -5.1518   19.0311 F       1  UNL1       -0.1659
     37 F           3.7247   -4.1952   20.1772 F       1  UNL1       -0.1659
     38 F           5.3304   -3.4628   17.7513 F       1  UNL1       -0.1659
@<TRIPOS>BOND
     1     3     4    1
     2     4     5   ar
     3     5     2    1
     4     2     1    1
     5     1    20    1
     6    20    21    1
     7    21    22    1
     8    22    23    1
     9    23    24    1
    10    25    24    1
    11    25    26    1
    12    26    27    1
    13    27    29    1
    14    29    30   ar
    15    30    31   ar
    16    31    32   ar
    17    32    35    1
    18    35    36    1
    19    35    37    1
    20    35    38    1
    21    32    33   ar
    22    33    34   ar
    23    25    28    1
    24     5     6   ar
    25     6     7   ar
    26     7     8   ar
    27     8     9    1
    28     9    10   ar
    29    10    11   ar
    30    11    12   ar
    31    12    15    1
    32    15    16   am
    33    15    17    2
    34    12    13   ar
    35    13    14   ar
    36     8     4   ar
    37    14     9   ar
    38    28    22    1
    39    27    25    1
    40    34    29   ar
    41    16    18    1
    42    16    19    1
@<TRIPOS>MOLECULE
*****
 38 42 0 0 0
SMALL
GASTEIGER

@<TRIPOS>ATOM
      1 C           4.4566   -0.1316   26.5825 C.3     1  UNL1        0.0666
      2 S           3.1004    0.4725   26.7963 S.3     1  UNL1       -0.0756
      3 C           3.5817    2.7806   29.0526 C.3     1  UNL1        0.1340
      4 N           2.7215    1.5616   29.2078 N.ar    1  UNL1       -0.2884
      5 C           2.5003    0.5007   28.1707 C.ar    1  UNL1        0.1932
      6 N           1.5735   -0.5271   28.7493 N.ar    1  UNL1       -0.1221
      7 N           1.2219   -0.1014   30.1440 N.ar    1  UNL1       -0.1282
      8 C           1.9314    1.1895   30.4274 C.ar    1  UNL1        0.1668
      9 C           1.8629    1.9710   31.7059 C.ar    1  UNL1        0.0360
     10 C           1.0473    3.2280   31.7738 C.ar    1  UNL1        0.0032
     11 C           0.9787    4.0095   33.0523 C.ar    1  UNL1        0.0046
     12 C           1.7259    3.5339   34.2629 C.ar    1  UNL1        0.0531
     13 C           2.5415    2.2769   34.1951 C.ar    1  UNL1        0.0046
     14 C           2.6100    1.4954   32.9165 C.ar    1  UNL1        0.0032
     15 C           1.6574    4.3154   35.5414 C.2     1  UNL1        0.2427
     16 N           1.5967    3.5974   36.8570 N.am    1  UNL1       -0.3253
     17 O           1.6495    5.8149   35.5043 O.2     1  UNL1       -0.2704
     18 H           1.6019    2.6133   36.8814 H       1  UNL1        0.1453
     19 H           1.5517    4.1104   37.6961 H       1  UNL1        0.1453
     20 C           4.6694   -1.5983   26.8144 C.3     1  UNL1        0.0294
     21 C           6.0616   -2.1492   26.9044 C.3     1  UNL1        0.0730
     22 N           6.3859   -3.2061   27.9182 N.3     1  UNL1       -0.2726
     23 C           6.8198   -4.6106   27.6197 C.3     1  UNL1        0.0721
     24 C           7.0353   -5.3165   28.9256 C.3     1  UNL1        0.0190
     25 C           6.7346   -4.3483   30.0311 C.3     1  UNL1        0.0201
     26 C           7.0257   -5.2981   31.1549 C.3     1  UNL1        0.0061
     27 C           6.5919   -3.8936   31.4534 C.3     1  UNL1        0.0237
     28 C           6.3333   -3.0440   29.4085 C.3     1  UNL1        0.0724
     29 C           6.2590   -2.8202   32.4468 C.ar    1  UNL1       -0.0225
     30 C           7.2947   -1.8047   32.8291 C.ar    1  UNL1       -0.0043
     31 C           6.9617   -0.7313   33.8225 C.ar    1  UNL1        0.0035
     32 C           5.5931   -0.6734   34.4337 C.ar    1  UNL1        0.0714
     33 C           4.5574   -1.6889   34.0514 C.ar    1  UNL1        0.0035
     34 C           4.8903   -2.7623   33.0580 C.ar    1  UNL1       -0.0043
     35 C           5.2602    0.4000   35.4271 C.3     1  UNL1        0.4186
     36 F           4.9273    1.4735   36.4207 F       1  UNL1       -0.1659
     37 F           6.0525    1.3888   34.6243 F       1  UNL1       -0.1659
     38 F           4.4679   -0.5887   36.2300 F       1  UNL1       -0.1659
@<TRIPOS>BOND
     1     3     4    1
     2     4     5   ar
     3     5     2    1
     4     2     1    1
     5     1    20    1
     6    20    21    1
     7    21    22    1
     8    22    23    1
     9    23    24    1
    10    25    24    1
    11    25    26    1
    12    26    27    1
    13    27    29    1
    14    29    30   ar
    15    30    31   ar
    16    31    32   ar
    17    32    35    1
    18    35    36    1
    19    35    37    1
    20    35    38    1
    21    32    33   ar
    22    33    34   ar
    23    25    28    1
    24     5     6   ar
    25     6     7   ar
    26     7     8   ar
    27     8     9    1
    28     9    10   ar
    29    10    11   ar
    30    11    12   ar
    31    12    15    1
    32    15    16   am
    33    15    17    2
    34    12    13   ar
    35    13    14   ar
    36     8     4   ar
    37    14     9   ar
    38    28    22    1
    39    27    25    1
    40    34    29   ar
    41    16    18    1
    42    16    19    1
@<TRIPOS>MOLECULE
*****
 38 42 0 0 0
SMALL
GASTEIGER

@<TRIPOS>ATOM
      1 C          -1.8749    5.1367   20.7720 C.3     1  UNL1        0.0666
      2 S          -0.4878    4.6949   20.4103 S.3     1  UNL1       -0.0756
      3 C           2.2672    3.4083   19.2253 C.3     1  UNL1        0.1340
      4 N           1.0985    2.6412   19.7691 N.ar    1  UNL1       -0.2884
      5 C          -0.1679    3.2326   20.3138 C.ar    1  UNL1        0.1932
      6 N          -1.0581    2.1049   20.7450 N.ar    1  UNL1       -0.1221
      7 N          -0.3419    0.8166   20.4668 N.ar    1  UNL1       -0.1282
      8 C           0.9909    1.1480   19.8637 C.ar    1  UNL1        0.1668
      9 C           2.0332    0.1598   19.4311 C.ar    1  UNL1        0.0360
     10 C           2.1051   -1.1886   20.0842 C.ar    1  UNL1        0.0032
     11 C           3.1474   -2.1769   19.6517 C.ar    1  UNL1        0.0046
     12 C           4.1177   -1.8166   18.5659 C.ar    1  UNL1        0.0531
     13 C           4.0457   -0.4682   17.9128 C.ar    1  UNL1        0.0046
     14 C           3.0034    0.5200   18.3454 C.ar    1  UNL1        0.0032
     15 C           5.1599   -2.8048   18.1333 C.2     1  UNL1        0.2427
     16 N           4.9810   -4.2635   18.4338 N.am    1  UNL1       -0.3253
     17 O           6.3811   -2.3344   17.4003 O.2     1  UNL1       -0.2704
     18 H           4.1795   -4.5722   18.9149 H       1  UNL1        0.1453
     19 H           5.6650   -4.9121   18.1499 H       1  UNL1        0.1453
     20 C          -2.3802    4.9503   22.1720 C.3     1  UNL1        0.0294
     21 C          -1.4660    5.1874   23.3373 C.3     1  UNL1        0.0730
     22 N          -1.1810    4.0774   24.3050 N.3     1  UNL1       -0.2726
     23 C          -1.9594    3.7718   25.5503 C.3     1  UNL1        0.0721
     24 C          -1.3270    2.5835   26.2123 C.3     1  UNL1        0.0190
     25 C          -0.1578    2.1548   25.3761 C.3     1  UNL1        0.0201
     26 C           0.2479    1.0060   26.2511 C.3     1  UNL1        0.0061
     27 C           1.0262    1.3116   25.0058 C.3     1  UNL1        0.0237
     28 C          -0.0676    3.0780   24.1974 C.3     1  UNL1        0.0724
     29 C           2.1592    1.0012   24.0731 C.ar    1  UNL1       -0.0225
     30 C           2.7785   -0.3650   24.0738 C.ar    1  UNL1       -0.0043
     31 C           3.9115   -0.6754   23.1411 C.ar    1  UNL1        0.0035
     32 C           4.4251    0.3805   22.2076 C.ar    1  UNL1        0.0714
     33 C           3.8058    1.7467   22.2069 C.ar    1  UNL1        0.0035
     34 C           2.6729    2.0570   23.1397 C.ar    1  UNL1       -0.0043
     35 C           5.5581    0.0701   21.2749 C.3     1  UNL1        0.4186
     36 F           6.6911   -0.2402   20.3421 F       1  UNL1       -0.1659
     37 F           5.6983   -1.2876   21.8969 F       1  UNL1       -0.1659
     38 F           5.4179    1.4278   20.6529 F       1  UNL1       -0.1659
@<TRIPOS>BOND
     1     3     4    1
     2     4     5   ar
     3     5     2    1
     4     2     1    1
     5     1    20    1
     6    20    21    1
     7    21    22    1
     8    22    23    1
     9    23    24    1
    10    25    24    1
    11    25    26    1
    12    26    27    1
    13    27    29    1
    14    29    30   ar
    15    30    31   ar
    16    31    32   ar
    17    32    35    1
    18    35    36    1
    19    35    37    1
    20    35    38    1
    21    32    33   ar
    22    33    34   ar
    23    25    28    1
    24     5     6   ar
    25     6     7   ar
    26     7     8   ar
    27     8     9    1
    28     9    10   ar
    29    10    11   ar
    30    11    12   ar
    31    12    15    1
    32    15    16   am
    33    15    17    2
    34    12    13   ar
    35    13    14   ar
    36     8     4   ar
    37    14     9   ar
    38    28    22    1
    39    27    25    1
    40    34    29   ar
    41    16    18    1
    42    16    19    1
@<TRIPOS>MOLECULE
*****
 38 42 0 0 0
SMALL
GASTEIGER

@<TRIPOS>ATOM
      1 C          -1.5587    3.5390   24.8725 C.3     1  UNL1        0.0666
      2 S          -0.9376    4.0959   23.6259 S.3     1  UNL1       -0.0756
      3 C           1.8025    2.4670   22.9274 C.3     1  UNL1        0.1340
      4 N           0.5413    2.4600   22.1154 N.ar    1  UNL1       -0.2884
      5 C          -0.7182    3.2087   22.4365 C.ar    1  UNL1        0.1932
      6 N          -1.7198    2.9145   21.3593 N.ar    1  UNL1       -0.1221
      7 N          -1.0793    1.9839   20.3725 N.ar    1  UNL1       -0.1282
      8 C           0.3182    1.7030   20.8397 C.ar    1  UNL1        0.1668
      9 C           1.3170    0.8201   20.1521 C.ar    1  UNL1        0.0360
     10 C           1.5488   -0.5770   20.6464 C.ar    1  UNL1        0.0032
     11 C           2.5476   -1.4598   19.9588 C.ar    1  UNL1        0.0046
     12 C           3.3148   -0.9455   18.7768 C.ar    1  UNL1        0.0531
     13 C           3.0830    0.4517   18.2825 C.ar    1  UNL1        0.0046
     14 C           2.0841    1.3345   18.9702 C.ar    1  UNL1        0.0032
     15 C           4.3136   -1.8283   18.0892 C.2     1  UNL1        0.2427
     16 N           4.2628   -3.3143   18.2871 N.am    1  UNL1       -0.3253
     17 O           5.3633   -1.2252   17.2036 O.2     1  UNL1       -0.2704
     18 H           3.5738   -3.7102   18.8683 H       1  UNL1        0.1453
     19 H           4.9183   -3.8938   17.8358 H       1  UNL1        0.1453
     20 C          -1.0204    2.2773   25.4795 C.3     1  UNL1        0.0294
     21 C          -0.9417    2.1365   26.9708 C.3     1  UNL1        0.0730
     22 N           0.1904    1.3745   27.5935 N.3     1  UNL1       -0.2726
     23 C           0.2859    0.9551   29.0305 C.3     1  UNL1        0.0721
     24 C           1.5803    0.2196   29.2135 C.3     1  UNL1        0.0190
     25 C           2.2848    0.1844   27.8897 C.3     1  UNL1        0.0201
     26 C           3.4843   -0.5771   28.3706 C.3     1  UNL1        0.0061
     27 C           3.3888   -0.1577   26.9336 C.3     1  UNL1        0.0237
     28 C           1.4257    0.8982   26.8884 C.3     1  UNL1        0.0724
     29 C           3.9710   -0.1131   25.5519 C.ar    1  UNL1       -0.0225
     30 C           4.8983    1.0005   25.1644 C.ar    1  UNL1       -0.0043
     31 C           5.4805    1.0451   23.7827 C.ar    1  UNL1        0.0035
     32 C           5.1354   -0.0238   22.7886 C.ar    1  UNL1        0.0714
     33 C           4.2082   -1.1374   23.1761 C.ar    1  UNL1        0.0035
     34 C           3.6259   -1.1820   24.5578 C.ar    1  UNL1       -0.0043
     35 C           5.7177    0.0208   21.4070 C.3     1  UNL1        0.4186
     36 F           6.2999    0.0654   20.0252 F       1  UNL1       -0.1659
     37 F           4.7560    1.1109   21.0369 F       1  UNL1       -0.1659
     38 F           6.6793   -1.0693   21.7770 F       1  UNL1       -0.1659
@<TRIPOS>BOND
     1     3     4    1
     2     4     5   ar
     3     5     2    1
     4     2     1    1
     5     1    20    1
     6    20    21    1
     7    21    22    1
     8    22    23    1
     9    23    24    1
    10    25    24    1
    11    25    26    1
    12    26    27    1
    13    27    29    1
    14    29    30   ar
    15    30    31   ar
    16    31    32   ar
    17    32    35    1
    18    35    36    1
    19    35    37    1
    20    35    38    1
    21    32    33   ar
    22    33    34   ar
    23    25    28    1
    24     5     6   ar
    25     6     7   ar
    26     7     8   ar
    27     8     9    1
    28     9    10   ar
    29    10    11   ar
    30    11    12   ar
    31    12    15    1
    32    15    16   am
    33    15    17    2
    34    12    13   ar
    35    13    14   ar
    36     8     4   ar
    37    14     9   ar
    38    28    22    1
    39    27    25    1
    40    34    29   ar
    41    16    18    1
    42    16    19    1
