@<TRIPOS>MOLECULE
*****
 31 34 0 0 0
SMALL
GASTEIGER

@<TRIPOS>ATOM
      1 C           7.9677   -4.7461   28.3267 C.ar    1  UNL1        0.1056
      2 C           8.1218   -5.7786   27.2497 C.ar    1  UNL1        0.0214
      3 C           7.4916   -5.5608   25.9061 C.ar    1  UNL1        0.0379
      4 C           6.7071   -4.3103   25.6395 C.ar    1  UNL1        0.1342
      5 C           6.5530   -3.2777   26.7165 C.ar    1  UNL1        0.0132
      6 C           7.1833   -3.4956   28.0602 C.ar    1  UNL1        0.0171
      7 C           5.7686   -2.0273   26.4500 C.3     1  UNL1        0.0330
      8 C           5.1383   -1.8094   25.1063 C.3     1  UNL1        0.0449
      9 C           5.2924   -2.8419   24.0293 C.3     1  UNL1        0.1367
     10 C           4.5080   -1.5915   23.7627 C.3     1  UNL1        0.0616
     11 C           3.8778   -1.3736   22.4192 C.3     1  UNL1        0.0973
     12 N           4.0320   -2.4062   21.3421 N.am    1  UNL1       -0.2758
     13 C           3.4017   -2.1883   19.9985 C.2     1  UNL1        0.2490
     14 O           3.5558   -3.2208   18.9214 O.2     1  UNL1       -0.2699
     15 C           4.8164   -3.6566   21.6086 C.3     1  UNL1        0.0973
     16 C           5.4466   -3.8745   22.9522 C.3     1  UNL1        0.0616
     17 O           6.0769   -4.0924   24.2959 O.3     1  UNL1       -0.4828
     18 C           2.6173   -0.9379   19.7319 C.ar    1  UNL1        0.0536
     19 C           1.2153   -0.8074   20.2491 C.ar    1  UNL1        0.0045
     20 C           0.4309    0.4431   19.9825 C.ar    1  UNL1        0.0040
     21 C           1.0484    1.5631   19.1988 C.ar    1  UNL1        0.0714
     22 C           2.4504    1.4326   18.6816 C.ar    1  UNL1        0.0040
     23 C           3.2348    0.1822   18.9482 C.ar    1  UNL1        0.0045
     24 C           0.2640    2.8135   18.9323 C.3     1  UNL1        0.4186
     25 F          -0.5204    4.0640   18.6657 F       1  UNL1       -0.1659
     26 F          -0.7740    2.3732   19.9215 F       1  UNL1       -0.1659
     27 F           1.3021    3.2538   17.9431 F       1  UNL1       -0.1659
     28 C           9.2282   -5.1818   31.0140 C.3     1  UNL1        0.1816
     29 S           8.5979   -4.9639   29.6703 S.O2    1  UNL1        0.0104
     30 O           9.4704   -3.7628   29.4558 O.2     1  UNL1       -0.1686
     31 O           7.7255   -6.1651   29.8848 O.2     1  UNL1       -0.1686
@<TRIPOS>BOND
     1    28    29    1
     2    29    30    2
     3    29    31    2
     4    29     1    1
     5     1     2   ar
     6     2     3   ar
     7     3     4   ar
     8     4     5   ar
     9     5     6   ar
    10     5     7    1
    11     7     8    1
    12     8     9    1
    13     9    10    1
    14    10    11    1
    15    11    12    1
    16    12    13   am
    17    13    14    2
    18    13    18    1
    19    18    19   ar
    20    19    20   ar
    21    20    21   ar
    22    21    24    1
    23    24    25    1
    24    24    26    1
    25    24    27    1
    26    21    22   ar
    27    22    23   ar
    28    12    15    1
    29    15    16    1
    30     9    17    1
    31     6     1   ar
    32    16     9    1
    33    17     4    1
    34    23    18   ar
@<TRIPOS>MOLECULE
*****
 31 34 0 0 0
SMALL
GASTEIGER

@<TRIPOS>ATOM
      1 C           5.5444   -1.6204   32.6146 C.ar    1  UNL1        0.1056
      2 C           6.4182   -2.8269   32.4396 C.ar    1  UNL1        0.0214
      3 C           6.6936   -3.3606   31.0651 C.ar    1  UNL1        0.0379
      4 C           6.0951   -2.6876   29.8655 C.ar    1  UNL1        0.1342
      5 C           5.2213   -1.4810   30.0405 C.ar    1  UNL1        0.0132
      6 C           4.9459   -0.9474   31.4151 C.ar    1  UNL1        0.0171
      7 C           4.6228   -0.8081   28.8409 C.3     1  UNL1        0.0330
      8 C           4.8982   -1.3417   27.4663 C.3     1  UNL1        0.0449
      9 C           5.7720   -2.5483   27.2913 C.3     1  UNL1        0.1367
     10 C           5.1736   -1.8753   26.0918 C.3     1  UNL1        0.0616
     11 C           5.4490   -2.4089   24.7172 C.3     1  UNL1        0.0973
     12 N           6.3228   -3.6155   24.5423 N.am    1  UNL1       -0.2758
     13 C           6.5982   -4.1491   23.1676 C.2     1  UNL1        0.2490
     14 O           7.4720   -5.3557   22.9927 O.2     1  UNL1       -0.2699
     15 C           6.9212   -4.2885   25.7418 C.3     1  UNL1        0.0973
     16 C           6.6459   -3.7548   27.1163 C.3     1  UNL1        0.0616
     17 O           6.3705   -3.2212   28.4910 O.3     1  UNL1       -0.4828
     18 C           5.9997   -3.4762   21.9681 C.ar    1  UNL1        0.0536
     19 C           6.7838   -2.4379   21.2216 C.ar    1  UNL1        0.0045
     20 C           6.1852   -1.7650   20.0220 C.ar    1  UNL1        0.0040
     21 C           4.8028   -2.1303   19.5690 C.ar    1  UNL1        0.0714
     22 C           4.0187   -3.1685   20.3155 C.ar    1  UNL1        0.0040
     23 C           4.6172   -3.8415   21.5150 C.ar    1  UNL1        0.0045
     24 C           4.2043   -1.4573   18.3694 C.3     1  UNL1        0.4186
     25 F           3.6058   -0.7843   17.1698 F       1  UNL1       -0.1659
     26 F           5.4931   -1.6399   17.6240 F       1  UNL1       -0.1659
     27 F           2.9156   -1.2747   19.1148 F       1  UNL1       -0.1659
     28 C           4.9936   -0.5531   35.3638 C.3     1  UNL1        0.1816
     29 S           5.2690   -1.0868   33.9892 S.O2    1  UNL1        0.0104
     30 O           3.9199   -1.7423   33.9734 O.2     1  UNL1       -0.1686
     31 O           6.6180   -0.4312   34.0049 O.2     1  UNL1       -0.1686
@<TRIPOS>BOND
     1    28    29    1
     2    29    30    2
     3    29    31    2
     4    29     1    1
     5     1     2   ar
     6     2     3   ar
     7     3     4   ar
     8     4     5   ar
     9     5     6   ar
    10     5     7    1
    11     7     8    1
    12     8     9    1
    13     9    10    1
    14    10    11    1
    15    11    12    1
    16    12    13   am
    17    13    14    2
    18    13    18    1
    19    18    19   ar
    20    19    20   ar
    21    20    21   ar
    22    21    24    1
    23    24    25    1
    24    24    26    1
    25    24    27    1
    26    21    22   ar
    27    22    23   ar
    28    12    15    1
    29    15    16    1
    30     9    17    1
    31     6     1   ar
    32    16     9    1
    33    17     4    1
    34    23    18   ar
@<TRIPOS>MOLECULE
*****
 31 34 0 0 0
SMALL
GASTEIGER

@<TRIPOS>ATOM
      1 C           4.8266   -2.6338   21.6405 C.ar    1  UNL1        0.1056
      2 C           5.8761   -3.6656   21.9304 C.ar    1  UNL1        0.0214
      3 C           6.3387   -3.8894   23.3396 C.ar    1  UNL1        0.0379
      4 C           5.7520   -3.0814   24.4589 C.ar    1  UNL1        0.1342
      5 C           4.7026   -2.0495   24.1690 C.ar    1  UNL1        0.0132
      6 C           4.2399   -1.8258   22.7597 C.ar    1  UNL1        0.0171
      7 C           4.1158   -1.2415   25.2882 C.3     1  UNL1        0.0330
      8 C           4.5785   -1.4653   26.6975 C.3     1  UNL1        0.0449
      9 C           5.6279   -2.4971   26.9874 C.3     1  UNL1        0.1367
     10 C           5.0412   -1.6891   28.1067 C.3     1  UNL1        0.0616
     11 C           5.5039   -1.9129   29.5158 C.3     1  UNL1        0.0973
     12 N           6.5533   -2.9447   29.8057 N.am    1  UNL1       -0.2758
     13 C           7.0160   -3.1684   31.2150 C.2     1  UNL1        0.2490
     14 O           8.0654   -4.2003   31.5049 O.2     1  UNL1       -0.2699
     15 C           7.1400   -3.7527   28.6865 C.3     1  UNL1        0.0973
     16 C           6.6773   -3.5289   27.2773 C.3     1  UNL1        0.0616
     17 O           6.2147   -3.3051   25.8681 O.3     1  UNL1       -0.4828
     18 C           6.4292   -2.3604   32.3343 C.ar    1  UNL1        0.0536
     19 C           7.2105   -1.2275   32.9311 C.ar    1  UNL1        0.0045
     20 C           6.6236   -0.4195   34.0504 C.ar    1  UNL1        0.0040
     21 C           5.2556   -0.7443   34.5728 C.ar    1  UNL1        0.0714
     22 C           4.4744   -1.8772   33.9760 C.ar    1  UNL1        0.0040
     23 C           5.0611   -2.6852   32.8567 C.ar    1  UNL1        0.0045
     24 C           4.6689    0.0637   35.6921 C.3     1  UNL1        0.4186
     25 F           4.0821    0.8718   36.8113 F       1  UNL1       -0.1659
     26 F           5.6269   -0.5736   36.6544 F       1  UNL1       -0.1659
     27 F           3.7109    0.7010   34.7298 F       1  UNL1       -0.1659
     28 C           3.9012   -2.1862   18.8221 C.3     1  UNL1        0.1816
     29 S           4.3639   -2.4100   20.2313 S.O2    1  UNL1        0.0104
     30 O           5.5598   -3.1573   19.7200 O.2     1  UNL1       -0.1686
     31 O           3.1681   -1.6627   20.7426 O.2     1  UNL1       -0.1686
@<TRIPOS>BOND
     1    28    29    1
     2    29    30    2
     3    29    31    2
     4    29     1    1
     5     1     2   ar
     6     2     3   ar
     7     3     4   ar
     8     4     5   ar
     9     5     6   ar
    10     5     7    1
    11     7     8    1
    12     8     9    1
    13     9    10    1
    14    10    11    1
    15    11    12    1
    16    12    13   am
    17    13    14    2
    18    13    18    1
    19    18    19   ar
    20    19    20   ar
    21    20    21   ar
    22    21    24    1
    23    24    25    1
    24    24    26    1
    25    24    27    1
    26    21    22   ar
    27    22    23   ar
    28    12    15    1
    29    15    16    1
    30     9    17    1
    31     6     1   ar
    32    16     9    1
    33    17     4    1
    34    23    18   ar
@<TRIPOS>MOLECULE
*****
 31 34 0 0 0
SMALL
GASTEIGER

@<TRIPOS>ATOM
      1 C           6.7905   -2.7102   20.3818 C.ar    1  UNL1        0.1056
      2 C           7.4245   -1.4415   19.8934 C.ar    1  UNL1        0.0214
      3 C           6.5649   -0.2800   19.4913 C.ar    1  UNL1        0.0379
      4 C           5.0712   -0.3870   19.5774 C.ar    1  UNL1        0.1342
      5 C           4.4371   -1.6557   20.0658 C.ar    1  UNL1        0.0132
      6 C           5.2969   -2.8173   20.4679 C.ar    1  UNL1        0.0171
      7 C           2.9435   -1.7628   20.1519 C.3     1  UNL1        0.0330
      8 C           2.0838   -0.6012   19.7497 C.3     1  UNL1        0.0449
      9 C           2.7178    0.6675   19.2614 C.3     1  UNL1        0.1367
     10 C           1.2242    0.5603   19.3476 C.3     1  UNL1        0.0616
     11 C           0.3645    1.7219   18.9454 C.3     1  UNL1        0.0973
     12 N           0.9986    2.9906   18.4571 N.am    1  UNL1       -0.2758
     13 C           0.1389    4.1522   18.0549 C.2     1  UNL1        0.2490
     14 O           0.7729    5.4209   17.5666 O.2     1  UNL1       -0.2699
     15 C           2.4922    3.0977   18.3710 C.3     1  UNL1        0.0973
     16 C           3.3519    1.9361   18.7731 C.3     1  UNL1        0.0616
     17 O           4.2116    0.7745   19.1753 O.3     1  UNL1       -0.4828
     18 C          -1.3548    4.0451   18.1411 C.ar    1  UNL1        0.0536
     19 C          -2.0297    4.0312   19.4806 C.ar    1  UNL1        0.0045
     20 C          -3.5235    3.9241   19.5667 C.ar    1  UNL1        0.0040
     21 C          -4.3422    3.8308   18.3134 C.ar    1  UNL1        0.0714
     22 C          -3.6673    3.8446   16.9739 C.ar    1  UNL1        0.0040
     23 C          -2.1736    3.9518   16.8877 C.ar    1  UNL1        0.0045
     24 C          -5.8358    3.7237   18.3995 C.3     1  UNL1        0.4186
     25 F          -7.3296    3.6166   18.4857 F       1  UNL1       -0.1659
     26 F          -5.7022    2.8134   19.5842 F       1  UNL1       -0.1659
     27 F          -5.9695    4.6340   17.2149 F       1  UNL1       -0.1659
     28 C           8.5098   -5.0334   21.1861 C.3     1  UNL1        0.1816
     29 S           7.6501   -3.8718   20.7839 S.O2    1  UNL1        0.0104
     30 O           6.4893   -4.4774   21.5157 O.2     1  UNL1       -0.1686
     31 O           8.8109   -3.2661   20.0521 O.2     1  UNL1       -0.1686
@<TRIPOS>BOND
     1    28    29    1
     2    29    30    2
     3    29    31    2
     4    29     1    1
     5     1     2   ar
     6     2     3   ar
     7     3     4   ar
     8     4     5   ar
     9     5     6   ar
    10     5     7    1
    11     7     8    1
    12     8     9    1
    13     9    10    1
    14    10    11    1
    15    11    12    1
    16    12    13   am
    17    13    14    2
    18    13    18    1
    19    18    19   ar
    20    19    20   ar
    21    20    21   ar
    22    21    24    1
    23    24    25    1
    24    24    26    1
    25    24    27    1
    26    21    22   ar
    27    22    23   ar
    28    12    15    1
    29    15    16    1
    30     9    17    1
    31     6     1   ar
    32    16     9    1
    33    17     4    1
    34    23    18   ar
@<TRIPOS>MOLECULE
*****
 31 34 0 0 0
SMALL
GASTEIGER

@<TRIPOS>ATOM
      1 C           3.0555   -0.8447   22.0687 C.ar    1  UNL1        0.1056
      2 C           4.0972   -1.9239   22.0799 C.ar    1  UNL1        0.0214
      3 C           4.7434   -2.3292   23.3714 C.ar    1  UNL1        0.0379
      4 C           4.3478   -1.6553   24.6519 C.ar    1  UNL1        0.1342
      5 C           3.3061   -0.5762   24.6407 C.ar    1  UNL1        0.0132
      6 C           2.6599   -0.1708   23.3490 C.ar    1  UNL1        0.0171
      7 C           2.9105    0.0977   25.9211 C.3     1  UNL1        0.0330
      8 C           3.5566   -0.3076   27.2127 C.3     1  UNL1        0.0449
      9 C           4.5984   -1.3868   27.2239 C.3     1  UNL1        0.1367
     10 C           4.2028   -0.7130   28.5042 C.3     1  UNL1        0.0616
     11 C           4.8489   -1.1183   29.7958 C.3     1  UNL1        0.0973
     12 N           5.8907   -2.1975   29.8070 N.am    1  UNL1       -0.2758
     13 C           6.5368   -2.6028   31.0986 C.2     1  UNL1        0.2490
     14 O           7.5786   -3.6820   31.1098 O.2     1  UNL1       -0.2699
     15 C           6.2863   -2.8714   28.5266 C.3     1  UNL1        0.0973
     16 C           5.6401   -2.4660   27.2351 C.3     1  UNL1        0.0616
     17 O           4.9940   -2.0607   25.9434 O.3     1  UNL1       -0.4828
     18 C           6.1413   -1.9290   32.3790 C.ar    1  UNL1        0.0536
     19 C           7.0333   -0.8860   32.9843 C.ar    1  UNL1        0.0045
     20 C           6.6377   -0.2122   34.2648 C.ar    1  UNL1        0.0040
     21 C           5.3500   -0.5813   34.9398 C.ar    1  UNL1        0.0714
     22 C           4.4580   -1.6242   34.3344 C.ar    1  UNL1        0.0040
     23 C           4.8535   -2.2981   33.0541 C.ar    1  UNL1        0.0045
     24 C           4.9544    0.0926   36.2202 C.3     1  UNL1        0.4186
     25 F           4.5589    0.7664   37.5006 F       1  UNL1       -0.1659
     26 F           3.8370    0.7934   35.5060 F       1  UNL1       -0.1659
     27 F           6.0719   -0.6083   36.9343 F       1  UNL1       -0.1659
     28 C           1.7631   -0.0339   19.4855 C.3     1  UNL1        0.1816
     29 S           2.4093   -0.4393   20.7771 S.O2    1  UNL1        0.0104
     30 O           2.7872   -1.7596   20.1738 O.2     1  UNL1       -0.1686
     31 O           2.0315    0.8809   21.3805 O.2     1  UNL1       -0.1686
@<TRIPOS>BOND
     1    28    29    1
     2    29    30    2
     3    29    31    2
     4    29     1    1
     5     1     2   ar
     6     2     3   ar
     7     3     4   ar
     8     4     5   ar
     9     5     6   ar
    10     5     7    1
    11     7     8    1
    12     8     9    1
    13     9    10    1
    14    10    11    1
    15    11    12    1
    16    12    13   am
    17    13    14    2
    18    13    18    1
    19    18    19   ar
    20    19    20   ar
    21    20    21   ar
    22    21    24    1
    23    24    25    1
    24    24    26    1
    25    24    27    1
    26    21    22   ar
    27    22    23   ar
    28    12    15    1
    29    15    16    1
    30     9    17    1
    31     6     1   ar
    32    16     9    1
    33    17     4    1
    34    23    18   ar
@<TRIPOS>MOLECULE
*****
 31 34 0 0 0
SMALL
GASTEIGER

@<TRIPOS>ATOM
      1 C           1.1730    1.2028   19.9696 C.ar    1  UNL1        0.1056
      2 C           1.9593    0.6678   18.8096 C.ar    1  UNL1        0.0214
      3 C           3.0420   -0.3443   19.0405 C.ar    1  UNL1        0.0379
      4 C           3.3384   -0.8214   20.4314 C.ar    1  UNL1        0.1342
      5 C           2.5522   -0.2864   21.5914 C.ar    1  UNL1        0.0132
      6 C           1.4694    0.7257   21.3604 C.ar    1  UNL1        0.0171
      7 C           2.8486   -0.7635   22.9822 C.3     1  UNL1        0.0330
      8 C           3.9313   -1.7756   23.2132 C.3     1  UNL1        0.0449
      9 C           4.7176   -2.3107   22.0532 C.3     1  UNL1        0.1367
     10 C           5.0141   -2.7877   23.4440 C.3     1  UNL1        0.0616
     11 C           6.0968   -3.7998   23.6749 C.3     1  UNL1        0.0973
     12 N           6.8831   -4.3348   22.5149 N.am    1  UNL1       -0.2758
     13 C           7.9658   -5.3470   22.7459 C.2     1  UNL1        0.2490
     14 O           8.7521   -5.8820   21.5859 O.2     1  UNL1       -0.2699
     15 C           6.5866   -3.8578   21.1241 C.3     1  UNL1        0.0973
     16 C           5.5039   -2.8457   20.8932 C.3     1  UNL1        0.0616
     17 O           4.4212   -1.8335   20.6623 O.3     1  UNL1       -0.4828
     18 C           8.2622   -5.8241   24.1367 C.ar    1  UNL1        0.0536
     19 C           7.9762   -7.2461   24.5188 C.ar    1  UNL1        0.0045
     20 C           8.2726   -7.7232   25.9097 C.ar    1  UNL1        0.0040
     21 C           8.8551   -6.7782   26.9185 C.ar    1  UNL1        0.0714
     22 C           9.1412   -5.3562   26.5364 C.ar    1  UNL1        0.0040
     23 C           8.8448   -4.8791   25.1456 C.ar    1  UNL1        0.0045
     24 C           9.1515   -7.2553   28.3093 C.3     1  UNL1        0.4186
     25 F           9.4480   -7.7324   29.7003 F       1  UNL1       -0.1659
     26 F           8.9671   -8.6750   27.8617 F       1  UNL1       -0.1659
     27 F           9.3360   -5.8356   28.7570 F       1  UNL1       -0.1659
     28 C          -0.9925    3.2271   19.5078 C.3     1  UNL1        0.1816
     29 S           0.0903    2.2149   19.7387 S.O2    1  UNL1        0.0104
     30 O          -0.5407    1.8382   21.0464 O.2     1  UNL1       -0.1686
     31 O           0.7212    2.5916   18.4311 O.2     1  UNL1       -0.1686
@<TRIPOS>BOND
     1    28    29    1
     2    29    30    2
     3    29    31    2
     4    29     1    1
     5     1     2   ar
     6     2     3   ar
     7     3     4   ar
     8     4     5   ar
     9     5     6   ar
    10     5     7    1
    11     7     8    1
    12     8     9    1
    13     9    10    1
    14    10    11    1
    15    11    12    1
    16    12    13   am
    17    13    14    2
    18    13    18    1
    19    18    19   ar
    20    19    20   ar
    21    20    21   ar
    22    21    24    1
    23    24    25    1
    24    24    26    1
    25    24    27    1
    26    21    22   ar
    27    22    23   ar
    28    12    15    1
    29    15    16    1
    30     9    17    1
    31     6     1   ar
    32    16     9    1
    33    17     4    1
    34    23    18   ar
@<TRIPOS>MOLECULE
*****
 31 34 0 0 0
SMALL
GASTEIGER

@<TRIPOS>ATOM
      1 C           8.4311   -6.5671   25.9497 C.ar    1  UNL1        0.1056
      2 C           8.9138   -7.0672   24.6204 C.ar    1  UNL1        0.0214
      3 C           8.4643   -6.3940   23.3576 C.ar    1  UNL1        0.0379
      4 C           7.5321   -5.2207   23.4240 C.ar    1  UNL1        0.1342
      5 C           7.0494   -4.7206   24.7532 C.ar    1  UNL1        0.0132
      6 C           7.4989   -5.3938   26.0161 C.ar    1  UNL1        0.0171
      7 C           6.1172   -3.5473   24.8196 C.3     1  UNL1        0.0330
      8 C           5.6677   -2.8741   23.5568 C.3     1  UNL1        0.0449
      9 C           6.1504   -3.3742   22.2275 C.3     1  UNL1        0.1367
     10 C           5.2182   -2.2010   22.2939 C.3     1  UNL1        0.0616
     11 C           4.7687   -1.5278   21.0311 C.3     1  UNL1        0.0973
     12 N           5.2514   -2.0279   19.7019 N.am    1  UNL1       -0.2758
     13 C           4.8019   -1.3547   18.4390 C.2     1  UNL1        0.2490
     14 O           5.2846   -1.8548   17.1097 O.2     1  UNL1       -0.2699
     15 C           6.1836   -3.2011   19.6354 C.3     1  UNL1        0.0973
     16 C           6.6331   -3.8743   20.8983 C.3     1  UNL1        0.0616
     17 O           7.0826   -4.5475   22.1611 O.3     1  UNL1       -0.4828
     18 C           3.8697   -0.1814   18.5054 C.ar    1  UNL1        0.0536
     19 C           4.4207    1.2132   18.5424 C.ar    1  UNL1        0.0045
     20 C           3.4885    2.3865   18.6088 C.ar    1  UNL1        0.0040
     21 C           2.0052    2.1651   18.6383 C.ar    1  UNL1        0.0714
     22 C           1.4541    0.7705   18.6013 C.ar    1  UNL1        0.0040
     23 C           2.3863   -0.4028   18.5349 C.ar    1  UNL1        0.0045
     24 C           1.0730    3.3384   18.7047 C.3     1  UNL1        0.4186
     25 F           0.1408    4.5117   18.7711 F       1  UNL1       -0.1659
     26 F           0.0745    2.5923   17.8702 F       1  UNL1       -0.1659
     27 F           2.0715    4.0844   19.5391 F       1  UNL1       -0.1659
     28 C           9.3301   -7.9134   28.4753 C.3     1  UNL1        0.1816
     29 S           8.8806   -7.2402   27.2125 S.O2    1  UNL1        0.0104
     30 O           8.4207   -6.0547   28.0081 O.2     1  UNL1       -0.1686
     31 O           9.3405   -8.4257   26.4169 O.2     1  UNL1       -0.1686
@<TRIPOS>BOND
     1    28    29    1
     2    29    30    2
     3    29    31    2
     4    29     1    1
     5     1     2   ar
     6     2     3   ar
     7     3     4   ar
     8     4     5   ar
     9     5     6   ar
    10     5     7    1
    11     7     8    1
    12     8     9    1
    13     9    10    1
    14    10    11    1
    15    11    12    1
    16    12    13   am
    17    13    14    2
    18    13    18    1
    19    18    19   ar
    20    19    20   ar
    21    20    21   ar
    22    21    24    1
    23    24    25    1
    24    24    26    1
    25    24    27    1
    26    21    22   ar
    27    22    23   ar
    28    12    15    1
    29    15    16    1
    30     9    17    1
    31     6     1   ar
    32    16     9    1
    33    17     4    1
    34    23    18   ar
@<TRIPOS>MOLECULE
*****
 31 34 0 0 0
SMALL
GASTEIGER

@<TRIPOS>ATOM
      1 C           4.4314    3.3959   38.9291 C.ar    1  UNL1        0.1056
      2 C           5.1578    2.1292   38.5860 C.ar    1  UNL1        0.0214
      3 C           4.9378    1.4756   37.2539 C.ar    1  UNL1        0.0379
      4 C           3.9912    2.0887   36.2649 C.ar    1  UNL1        0.1342
      5 C           3.2647    3.3554   36.6080 C.ar    1  UNL1        0.0132
      6 C           3.4848    4.0090   37.9401 C.ar    1  UNL1        0.0171
      7 C           2.3181    3.9685   35.6191 C.3     1  UNL1        0.0330
      8 C           2.0980    3.3150   34.2869 C.3     1  UNL1        0.0449
      9 C           2.8245    2.0483   33.9439 C.3     1  UNL1        0.1367
     10 C           1.8779    2.6614   32.9549 C.3     1  UNL1        0.0616
     11 C           1.6578    2.0078   31.6229 C.3     1  UNL1        0.0973
     12 N           2.3843    0.7411   31.2798 N.am    1  UNL1       -0.2758
     13 C           2.1642    0.0875   29.9477 C.2     1  UNL1        0.2490
     14 O           2.8907   -1.1792   29.6046 O.2     1  UNL1       -0.2699
     15 C           3.3309    0.1280   32.2687 C.3     1  UNL1        0.0973
     16 C           3.5510    0.7816   33.6008 C.3     1  UNL1        0.0616
     17 O           3.7711    1.4351   34.9329 O.3     1  UNL1       -0.4828
     18 C           1.2176    0.7007   28.9587 C.ar    1  UNL1        0.0536
     19 C           1.7415    1.5941   27.8737 C.ar    1  UNL1        0.0045
     20 C           0.7948    2.2073   26.8847 C.ar    1  UNL1        0.0040
     21 C          -0.6756    1.9269   26.9808 C.ar    1  UNL1        0.0714
     22 C          -1.1994    1.0335   28.0658 C.ar    1  UNL1        0.0040
     23 C          -0.2529    0.4203   29.0548 C.ar    1  UNL1        0.0045
     24 C          -1.6221    2.5400   25.9919 C.3     1  UNL1        0.4186
     25 F          -2.5688    3.1532   25.0029 F       1  UNL1       -0.1659
     26 F          -0.6870    2.1821   24.8750 F       1  UNL1       -0.1659
     27 F          -2.5572    2.8979   27.1087 F       1  UNL1       -0.1659
     28 C           4.8716    4.7030   41.5932 C.3     1  UNL1        0.1816
     29 S           4.6514    4.0494   40.2611 S.O2    1  UNL1        0.0104
     30 O           3.8782    5.2492   39.8002 O.2     1  UNL1       -0.1686
     31 O           5.4247    2.8497   40.7220 O.2     1  UNL1       -0.1686
@<TRIPOS>BOND
     1    28    29    1
     2    29    30    2
     3    29    31    2
     4    29     1    1
     5     1     2   ar
     6     2     3   ar
     7     3     4   ar
     8     4     5   ar
     9     5     6   ar
    10     5     7    1
    11     7     8    1
    12     8     9    1
    13     9    10    1
    14    10    11    1
    15    11    12    1
    16    12    13   am
    17    13    14    2
    18    13    18    1
    19    18    19   ar
    20    19    20   ar
    21    20    21   ar
    22    21    24    1
    23    24    25    1
    24    24    26    1
    25    24    27    1
    26    21    22   ar
    27    22    23   ar
    28    12    15    1
    29    15    16    1
    30     9    17    1
    31     6     1   ar
    32    16     9    1
    33    17     4    1
    34    23    18   ar
@<TRIPOS>MOLECULE
*****
 31 34 0 0 0
SMALL
GASTEIGER

@<TRIPOS>ATOM
      1 C           5.8145   -1.1470   18.8661 C.ar    1  UNL1        0.1056
      2 C           5.3550   -0.5621   17.5635 C.ar    1  UNL1        0.0214
      3 C           4.0915    0.2443   17.5077 C.ar    1  UNL1        0.0379
      4 C           3.2874    0.4658   18.7545 C.ar    1  UNL1        0.1342
      5 C           3.7469   -0.1192   20.0571 C.ar    1  UNL1        0.0132
      6 C           5.0105   -0.9256   20.1128 C.ar    1  UNL1        0.0171
      7 C           2.9428    0.1023   21.3038 C.3     1  UNL1        0.0330
      8 C           1.6792    0.9087   21.2480 C.3     1  UNL1        0.0449
      9 C           1.2197    1.4937   19.9454 C.3     1  UNL1        0.1367
     10 C           0.4157    1.7151   21.1922 C.3     1  UNL1        0.0616
     11 C          -0.8479    2.5215   21.1363 C.3     1  UNL1        0.0973
     12 N          -1.3074    3.1064   19.8337 N.am    1  UNL1       -0.2758
     13 C          -2.5710    3.9129   19.7779 C.2     1  UNL1        0.2490
     14 O          -3.0305    4.4978   18.4754 O.2     1  UNL1       -0.2699
     15 C          -0.5033    2.8850   18.5870 C.3     1  UNL1        0.0973
     16 C           0.7602    2.0786   18.6428 C.3     1  UNL1        0.0616
     17 O           2.0238    1.2722   18.6986 O.3     1  UNL1       -0.4828
     18 C          -3.3750    4.1343   21.0247 C.ar    1  UNL1        0.0536
     19 C          -4.4637    3.1715   21.3960 C.ar    1  UNL1        0.0045
     20 C          -5.2678    3.3931   22.6428 C.ar    1  UNL1        0.0040
     21 C          -4.9831    4.5773   23.5183 C.ar    1  UNL1        0.0714
     22 C          -3.8945    5.5401   23.1470 C.ar    1  UNL1        0.0040
     23 C          -3.0904    5.3186   21.9002 C.ar    1  UNL1        0.0045
     24 C          -5.7872    4.7988   24.7650 C.3     1  UNL1        0.4186
     25 F          -6.5913    5.0203   26.0118 F       1  UNL1       -0.1659
     26 F          -5.2869    3.4976   25.3188 F       1  UNL1       -0.1659
     27 F          -6.2874    6.0999   24.2112 F       1  UNL1       -0.1659
     28 C           8.3417   -2.7599   18.9778 C.3     1  UNL1        0.1816
     29 S           7.0780   -1.9534   18.9219 S.O2    1  UNL1        0.0104
     30 O           6.9161   -2.3075   17.4734 O.2     1  UNL1       -0.1686
     31 O           7.2400   -1.5993   20.3705 O.2     1  UNL1       -0.1686
@<TRIPOS>BOND
     1    28    29    1
     2    29    30    2
     3    29    31    2
     4    29     1    1
     5     1     2   ar
     6     2     3   ar
     7     3     4   ar
     8     4     5   ar
     9     5     6   ar
    10     5     7    1
    11     7     8    1
    12     8     9    1
    13     9    10    1
    14    10    11    1
    15    11    12    1
    16    12    13   am
    17    13    14    2
    18    13    18    1
    19    18    19   ar
    20    19    20   ar
    21    20    21   ar
    22    21    24    1
    23    24    25    1
    24    24    26    1
    25    24    27    1
    26    21    22   ar
    27    22    23   ar
    28    12    15    1
    29    15    16    1
    30     9    17    1
    31     6     1   ar
    32    16     9    1
    33    17     4    1
    34    23    18   ar
