@<TRIPOS>MOLECULE
*****
 30 33 0 0 0
SMALL
GASTEIGER

@<TRIPOS>ATOM
      1 C           0.2662    3.0276   23.8023 C.ar    1  UNL1        0.1384
      2 C           0.8153    3.2765   22.4287 C.ar    1  UNL1        0.0369
      3 C           1.4977    2.1690   21.6818 C.ar    1  UNL1        0.0032
      4 C           1.6310    0.8127   22.3085 C.ar    1  UNL1        0.0024
      5 C           1.0819    0.5639   23.6820 C.ar    1  UNL1        0.0032
      6 C           0.3995    1.6713   24.4289 C.ar    1  UNL1        0.0369
      7 C           2.3134   -0.2948   21.5616 C.ar    1  UNL1        0.0275
      8 C           3.5135   -0.9713   22.1550 C.ar    1  UNL1        0.0019
      9 C           4.1959   -2.0788   21.4081 C.ar    1  UNL1       -0.0038
     10 C           3.6781   -2.5098   20.0678 C.ar    1  UNL1       -0.0157
     11 C           2.4780   -1.8333   19.4745 C.ar    1  UNL1        0.0257
     12 C           1.7956   -0.7258   20.2214 C.ar    1  UNL1        0.1398
     13 F           0.5955   -0.0493   19.6280 F       1  UNL1       -0.2042
     14 C           4.3605   -3.6173   19.3209 C.3     1  UNL1        0.0509
     15 C           4.6503   -4.9900   18.7905 C.3     1  UNL1        0.0100
     16 C           3.4672   -4.7659   19.6848 C.3     1  UNL1        0.0100
     17 C           5.4908   -2.8532   18.6975 C.2     1  UNL1        0.0534
     18 O           6.8406   -2.8440   19.3518 O.co2   1  UNL1       -0.5489
     19 O           5.2715   -2.0984   17.4200 O.co2   1  UNL1       -0.5489
     20 O          -0.4161    4.1351   24.5492 O.3     1  UNL1       -0.4792
     21 C          -5.5020    5.0290   26.3492 C.3     1  UNL1        0.0001
     22 C          -4.1132    4.7783   25.8407 C.3     1  UNL1        0.0035
     23 C          -3.7987    5.2943   27.2136 C.3     1  UNL1        0.0001
     24 C          -2.6153    4.7069   25.8089 C.3     1  UNL1        0.0435
     25 C          -1.9142    4.2065   24.5809 C.3     1  UNL1        0.1659
     26 C          -2.7109    3.7776   23.3846 C.3     1  UNL1        0.0435
     27 C          -4.2089    3.8491   23.4164 C.3     1  UNL1        0.0035
     28 C          -4.0032    3.3083   22.0325 C.3     1  UNL1        0.0001
     29 C          -5.6354    3.7327   22.9675 C.3     1  UNL1        0.0001
     30 C          -4.9100    4.3494   24.6444 C.3     1  UNL1        0.0002
@<TRIPOS>UNITY_ATOM_ATTR
18 1
charge -1
@<TRIPOS>BOND
     1    21    22    1
     2    22    23    1
     3    22    24    1
     4    24    25    1
     5    25    20    1
     6    20     1    1
     7     1     2   ar
     8     2     3   ar
     9     3     4   ar
    10     4     7    1
    11     7     8   ar
    12     8     9   ar
    13     9    10   ar
    14    10    14    1
    15    14    17    1
    16    17    18   ar
    17    17    19   ar
    18    14    15    1
    19    15    16    1
    20    10    11   ar
    21    11    12   ar
    22    12    13    1
    23     4     5   ar
    24     5     6   ar
    25    25    26    1
    26    26    27    1
    27    27    28    1
    28    27    29    1
    29    27    30    1
    30    30    22    1
    31     6     1   ar
    32    12     7   ar
    33    16    14    1
@<TRIPOS>MOLECULE
*****
 30 33 0 0 0
SMALL
GASTEIGER

@<TRIPOS>ATOM
      1 C           0.1841    3.0403   23.9422 C.ar    1  UNL1        0.1384
      2 C           0.7451    3.3367   22.5829 C.ar    1  UNL1        0.0369
      3 C           1.4342    2.2557   21.8040 C.ar    1  UNL1        0.0032
      4 C           1.5623    0.8784   22.3843 C.ar    1  UNL1        0.0024
      5 C           1.0013    0.5821   23.7435 C.ar    1  UNL1        0.0032
      6 C           0.3122    1.6630   24.5224 C.ar    1  UNL1        0.0369
      7 C           2.2514   -0.2025   21.6054 C.ar    1  UNL1        0.0275
      8 C           3.4912   -0.8465   22.1516 C.ar    1  UNL1        0.0019
      9 C           4.1803   -1.9274   21.3726 C.ar    1  UNL1       -0.0038
     10 C           3.6296   -2.3644   20.0475 C.ar    1  UNL1       -0.0157
     11 C           2.3899   -1.7204   19.5014 C.ar    1  UNL1        0.0257
     12 C           1.7008   -0.6395   20.2803 C.ar    1  UNL1        0.1398
     13 F           0.4609    0.0045   19.7341 F       1  UNL1       -0.2042
     14 C           4.3187   -3.4453   19.2686 C.3     1  UNL1        0.0509
     15 C           4.6360   -4.8062   18.7236 C.3     1  UNL1        0.0100
     16 C           3.4875   -4.6271   19.6716 C.3     1  UNL1        0.0100
     17 C           5.3892   -2.6389   18.5950 C.2     1  UNL1        0.0534
     18 O           5.0771   -1.8769   17.3412 O.co2   1  UNL1       -0.5489
     19 O           6.7718   -2.5945   19.1750 O.co2   1  UNL1       -0.5489
     20 O          -0.5050    4.1212   24.7211 O.3     1  UNL1       -0.4792
     21 C          -5.6789    3.7636   22.9867 C.3     1  UNL1        0.0001
     22 C          -4.2651    3.8682   23.4771 C.3     1  UNL1        0.0035
     23 C          -4.0266    3.2788   22.1185 C.3     1  UNL1        0.0001
     24 C          -2.7686    3.7682   23.4957 C.3     1  UNL1        0.0435
     25 C          -2.0016    4.2213   24.7025 C.3     1  UNL1        0.1659
     26 C          -2.7311    4.7743   25.8907 C.3     1  UNL1        0.0435
     27 C          -4.2276    4.8744   25.8721 C.3     1  UNL1        0.0035
     28 C          -3.9465    5.4291   27.2371 C.3     1  UNL1        0.0001
     29 C          -5.6265    5.1670   26.3276 C.3     1  UNL1        0.0001
     30 C          -4.9946    4.4213   24.6653 C.3     1  UNL1        0.0002
@<TRIPOS>UNITY_ATOM_ATTR
18 1
charge -1
@<TRIPOS>BOND
     1    21    22    1
     2    22    23    1
     3    22    24    1
     4    24    25    1
     5    25    20    1
     6    20     1    1
     7     1     2   ar
     8     2     3   ar
     9     3     4   ar
    10     4     7    1
    11     7     8   ar
    12     8     9   ar
    13     9    10   ar
    14    10    14    1
    15    14    17    1
    16    17    18   ar
    17    17    19   ar
    18    14    15    1
    19    15    16    1
    20    10    11   ar
    21    11    12   ar
    22    12    13    1
    23     4     5   ar
    24     5     6   ar
    25    25    26    1
    26    26    27    1
    27    27    28    1
    28    27    29    1
    29    27    30    1
    30    30    22    1
    31     6     1   ar
    32    12     7   ar
    33    16    14    1
@<TRIPOS>MOLECULE
*****
 30 33 0 0 0
SMALL
GASTEIGER

@<TRIPOS>ATOM
      1 C          -0.2223    3.5680   21.6396 C.ar    1  UNL1        0.1384
      2 C           1.1946    3.4290   22.1120 C.ar    1  UNL1        0.0369
      3 C           2.0166    2.2506   21.6811 C.ar    1  UNL1        0.0032
      4 C           1.4217    1.2113   20.7777 C.ar    1  UNL1        0.0024
      5 C           0.0049    1.3504   20.3053 C.ar    1  UNL1        0.0032
      6 C          -0.8171    2.5288   20.7362 C.ar    1  UNL1        0.0369
      7 C           2.2437    0.0329   20.3468 C.ar    1  UNL1        0.0275
      8 C           2.7251   -0.9582   21.3647 C.ar    1  UNL1        0.0019
      9 C           3.5472   -2.1366   20.9338 C.ar    1  UNL1       -0.0038
     10 C           3.8878   -2.3239   19.4850 C.ar    1  UNL1       -0.0157
     11 C           3.4064   -1.3328   18.4672 C.ar    1  UNL1        0.0257
     12 C           2.5843   -0.1544   18.8981 C.ar    1  UNL1        0.1398
     13 F           2.1029    0.8367   17.8802 F       1  UNL1       -0.2042
     14 C           4.7098   -3.5023   19.0540 C.3     1  UNL1        0.0509
     15 C           5.0704   -4.9125   18.6921 C.3     1  UNL1        0.0100
     16 C           3.6669   -4.5793   19.1029 C.3     1  UNL1        0.0100
     17 C           6.0382   -2.8346   18.8555 C.2     1  UNL1        0.0534
     18 O           6.4896   -2.4582   17.4754 O.co2   1  UNL1       -0.5489
     19 O           6.9153   -2.5432   20.0370 O.co2   1  UNL1       -0.5489
     20 O          -1.0443    4.7464   22.0705 O.3     1  UNL1       -0.4792
     21 C          -6.3873    4.0023   22.9672 C.3     1  UNL1        0.0001
     22 C          -4.9189    4.2057   22.7380 C.3     1  UNL1        0.0035
     23 C          -5.4105    4.2372   21.3211 C.3     1  UNL1        0.0001
     24 C          -3.6213    4.4200   22.0167 C.3     1  UNL1        0.0435
     25 C          -2.3420    4.5321   22.7918 C.3     1  UNL1        0.1659
     26 C          -2.3603    4.4300   24.2882 C.3     1  UNL1        0.0435
     27 C          -3.6579    4.2157   25.0094 C.3     1  UNL1        0.0035
     28 C          -2.7157    4.2586   26.1758 C.3     1  UNL1        0.0001
     29 C          -4.6283    4.0163   26.1358 C.3     1  UNL1        0.0001
     30 C          -4.9372    4.1036   24.2343 C.3     1  UNL1        0.0002
@<TRIPOS>UNITY_ATOM_ATTR
18 1
charge -1
@<TRIPOS>BOND
     1    21    22    1
     2    22    23    1
     3    22    24    1
     4    24    25    1
     5    25    20    1
     6    20     1    1
     7     1     2   ar
     8     2     3   ar
     9     3     4   ar
    10     4     7    1
    11     7     8   ar
    12     8     9   ar
    13     9    10   ar
    14    10    14    1
    15    14    17    1
    16    17    18   ar
    17    17    19   ar
    18    14    15    1
    19    15    16    1
    20    10    11   ar
    21    11    12   ar
    22    12    13    1
    23     4     5   ar
    24     5     6   ar
    25    25    26    1
    26    26    27    1
    27    27    28    1
    28    27    29    1
    29    27    30    1
    30    30    22    1
    31     6     1   ar
    32    12     7   ar
    33    16    14    1
@<TRIPOS>MOLECULE
*****
 30 33 0 0 0
SMALL
GASTEIGER

@<TRIPOS>ATOM
      1 C           2.0409   -0.0087   21.1376 C.ar    1  UNL1        0.1384
      2 C           1.0824    1.0887   21.4942 C.ar    1  UNL1        0.0369
      3 C           0.9006    1.4890   22.9283 C.ar    1  UNL1        0.0032
      4 C           1.6773    0.7920   24.0058 C.ar    1  UNL1        0.0024
      5 C           2.6358   -0.3053   23.6492 C.ar    1  UNL1        0.0032
      6 C           2.8176   -0.7057   22.2151 C.ar    1  UNL1        0.0369
      7 C           1.4956    1.1924   25.4399 C.ar    1  UNL1        0.0275
      8 C           0.1155    1.3195   26.0140 C.ar    1  UNL1        0.0019
      9 C          -0.0662    1.7199   27.4481 C.ar    1  UNL1       -0.0038
     10 C           1.1320    1.9931   28.3082 C.ar    1  UNL1       -0.0157
     11 C           2.5119    1.8660   27.7341 C.ar    1  UNL1        0.0257
     12 C           2.6937    1.4657   26.3000 C.ar    1  UNL1        0.1398
     13 F           4.0737    1.3386   25.7259 F       1  UNL1       -0.2042
     14 C           0.9502    2.3935   29.7423 C.3     1  UNL1        0.0509
     15 C           0.6873    3.2526   30.9433 C.3     1  UNL1        0.0100
     16 C           0.6534    3.8536   29.5695 C.3     1  UNL1        0.0100
     17 C           1.1839    1.0724   30.4132 C.2     1  UNL1        0.0534
     18 O           1.9489    1.0107   31.7020 O.co2   1  UNL1       -0.5489
     19 O           0.6527   -0.1870   29.7954 O.co2   1  UNL1       -0.5489
     20 O           2.2227   -0.4091   19.7035 O.3     1  UNL1       -0.4792
     21 C           7.1176   -2.2222   18.0734 C.3     1  UNL1        0.0001
     22 C           5.7695   -1.7409   18.5219 C.3     1  UNL1        0.0035
     23 C           6.4655   -0.4258   18.3315 C.3     1  UNL1        0.0001
     24 C           4.6632   -0.8029   18.9042 C.3     1  UNL1        0.0435
     25 C           3.3290   -1.3471   19.3212 C.3     1  UNL1        0.1659
     26 C           3.1012   -2.8293   19.3558 C.3     1  UNL1        0.0435
     27 C           4.2075   -3.7673   18.9735 C.3     1  UNL1        0.0035
     28 C           3.1274   -4.7566   19.2966 C.3     1  UNL1        0.0001
     29 C           4.9387   -5.0488   18.7034 C.3     1  UNL1        0.0001
     30 C           5.5417   -3.2231   18.5565 C.3     1  UNL1        0.0002
@<TRIPOS>UNITY_ATOM_ATTR
18 1
charge -1
@<TRIPOS>BOND
     1    21    22    1
     2    22    23    1
     3    22    24    1
     4    24    25    1
     5    25    20    1
     6    20     1    1
     7     1     2   ar
     8     2     3   ar
     9     3     4   ar
    10     4     7    1
    11     7     8   ar
    12     8     9   ar
    13     9    10   ar
    14    10    14    1
    15    14    17    1
    16    17    18   ar
    17    17    19   ar
    18    14    15    1
    19    15    16    1
    20    10    11   ar
    21    11    12   ar
    22    12    13    1
    23     4     5   ar
    24     5     6   ar
    25    25    26    1
    26    26    27    1
    27    27    28    1
    28    27    29    1
    29    27    30    1
    30    30    22    1
    31     6     1   ar
    32    12     7   ar
    33    16    14    1
@<TRIPOS>MOLECULE
*****
 30 33 0 0 0
SMALL
GASTEIGER

@<TRIPOS>ATOM
      1 C          -1.1923    3.0025   25.0502 C.ar    1  UNL1        0.1384
      2 C          -0.4899    1.7591   25.5093 C.ar    1  UNL1        0.0369
      3 C           0.3473    0.9714   24.5456 C.ar    1  UNL1        0.0032
      4 C           0.4823    1.4272   23.1229 C.ar    1  UNL1        0.0024
      5 C          -0.2200    2.6706   22.6639 C.ar    1  UNL1        0.0032
      6 C          -1.0573    3.4582   23.6275 C.ar    1  UNL1        0.0369
      7 C           1.3195    0.6396   22.1593 C.ar    1  UNL1        0.0275
      8 C           0.6936    0.0495   20.9303 C.ar    1  UNL1        0.0019
      9 C           1.5309   -0.7382   19.9667 C.ar    1  UNL1       -0.0038
     10 C           2.9940   -0.9357   20.2320 C.ar    1  UNL1       -0.0157
     11 C           3.6198   -0.3457   21.4608 C.ar    1  UNL1        0.0257
     12 C           2.7826    0.4420   22.4245 C.ar    1  UNL1        0.1398
     13 F           3.4084    1.0321   23.6534 F       1  UNL1       -0.2042
     14 C           3.8313   -1.7234   19.2683 C.3     1  UNL1        0.0509
     15 C           4.5621   -2.8811   18.6555 C.3     1  UNL1        0.0100
     16 C           3.8156   -3.0626   19.9438 C.3     1  UNL1        0.0100
     17 C           4.1378   -0.6578   18.2581 C.2     1  UNL1        0.0534
     18 O           3.4004   -0.6280   16.9522 O.co2   1  UNL1       -0.5489
     19 O           5.1816    0.3781   18.5538 O.co2   1  UNL1       -0.5489
     20 O          -2.0295    3.7902   26.0138 O.3     1  UNL1       -0.4792
     21 C          -6.9713    6.1194   26.2560 C.3     1  UNL1        0.0001
     22 C          -5.6201    5.4729   26.1750 C.3     1  UNL1        0.0035
     23 C          -5.4673    6.2361   27.4573 C.3     1  UNL1        0.0001
     24 C          -4.2159    5.0916   26.5393 C.3     1  UNL1        0.0435
     25 C          -3.4338    4.1715   25.6494 C.3     1  UNL1        0.1659
     26 C          -4.0558    3.6329   24.3953 C.3     1  UNL1        0.0435
     27 C          -5.4600    4.0143   24.0310 C.3     1  UNL1        0.0035
     28 C          -5.1252    3.1187   22.8752 C.3     1  UNL1        0.0001
     29 C          -6.7479    4.0846   23.2653 C.3     1  UNL1        0.0001
     30 C          -6.2421    4.9343   24.9208 C.3     1  UNL1        0.0002
@<TRIPOS>UNITY_ATOM_ATTR
18 1
charge -1
@<TRIPOS>BOND
     1    21    22    1
     2    22    23    1
     3    22    24    1
     4    24    25    1
     5    25    20    1
     6    20     1    1
     7     1     2   ar
     8     2     3   ar
     9     3     4   ar
    10     4     7    1
    11     7     8   ar
    12     8     9   ar
    13     9    10   ar
    14    10    14    1
    15    14    17    1
    16    17    18   ar
    17    17    19   ar
    18    14    15    1
    19    15    16    1
    20    10    11   ar
    21    11    12   ar
    22    12    13    1
    23     4     5   ar
    24     5     6   ar
    25    25    26    1
    26    26    27    1
    27    27    28    1
    28    27    29    1
    29    27    30    1
    30    30    22    1
    31     6     1   ar
    32    12     7   ar
    33    16    14    1
@<TRIPOS>MOLECULE
*****
 30 33 0 0 0
SMALL
GASTEIGER

@<TRIPOS>ATOM
      1 C           1.9372   -0.0751   21.1585 C.ar    1  UNL1        0.1384
      2 C           0.9111    0.9585   21.5176 C.ar    1  UNL1        0.0369
      3 C           0.7458    1.3867   22.9456 C.ar    1  UNL1        0.0032
      4 C           1.6065    0.7813   24.0146 C.ar    1  UNL1        0.0024
      5 C           2.6325   -0.2523   23.6555 C.ar    1  UNL1        0.0032
      6 C           2.7978   -0.6805   22.2275 C.ar    1  UNL1        0.0369
      7 C           1.4412    1.2095   25.4426 C.ar    1  UNL1        0.0275
      8 C           0.0779    1.2238   26.0683 C.ar    1  UNL1        0.0019
      9 C          -0.0874    1.6520   27.4964 C.ar    1  UNL1       -0.0038
     10 C           1.1105    2.0660   28.2987 C.ar    1  UNL1       -0.0157
     11 C           2.4737    2.0517   27.6730 C.ar    1  UNL1        0.0257
     12 C           2.6390    1.6235   26.2450 C.ar    1  UNL1        0.1398
     13 F           4.0023    1.6092   25.6193 F       1  UNL1       -0.2042
     14 C           0.9452    2.4942   29.7268 C.3     1  UNL1        0.0509
     15 C           0.7006    3.3775   30.9141 C.3     1  UNL1        0.0100
     16 C           0.6595    3.9535   29.5297 C.3     1  UNL1        0.0100
     17 C           1.1734    1.1836   30.4198 C.2     1  UNL1        0.0534
     18 O           0.8310   -0.1014   29.7258 O.co2   1  UNL1       -0.5489
     19 O           1.7441    1.1579   31.8068 O.co2   1  UNL1       -0.5489
     20 O           2.1025   -0.5033   19.7305 O.3     1  UNL1       -0.4792
     21 C           4.9838   -5.0410   18.7242 C.3     1  UNL1        0.0001
     22 C           4.2069   -3.7869   18.9959 C.3     1  UNL1        0.0035
     23 C           3.1663   -4.8151   19.3280 C.3     1  UNL1        0.0001
     24 C           3.0687   -2.8899   19.3829 C.3     1  UNL1        0.0435
     25 C           3.2408   -1.4004   19.3435 C.3     1  UNL1        0.1659
     26 C           4.5511   -0.8078   18.9171 C.3     1  UNL1        0.0435
     27 C           5.6893   -1.7048   18.5301 C.3     1  UNL1        0.0035
     28 C           6.3347   -0.3652   18.3324 C.3     1  UNL1        0.0001
     29 C           7.0517   -2.1366   18.0744 C.3     1  UNL1        0.0001
     30 C           5.5172   -3.1944   18.5695 C.3     1  UNL1        0.0002
@<TRIPOS>UNITY_ATOM_ATTR
18 1
charge -1
@<TRIPOS>BOND
     1    21    22    1
     2    22    23    1
     3    22    24    1
     4    24    25    1
     5    25    20    1
     6    20     1    1
     7     1     2   ar
     8     2     3   ar
     9     3     4   ar
    10     4     7    1
    11     7     8   ar
    12     8     9   ar
    13     9    10   ar
    14    10    14    1
    15    14    17    1
    16    17    18   ar
    17    17    19   ar
    18    14    15    1
    19    15    16    1
    20    10    11   ar
    21    11    12   ar
    22    12    13    1
    23     4     5   ar
    24     5     6   ar
    25    25    26    1
    26    26    27    1
    27    27    28    1
    28    27    29    1
    29    27    30    1
    30    30    22    1
    31     6     1   ar
    32    12     7   ar
    33    16    14    1
@<TRIPOS>MOLECULE
*****
 30 33 0 0 0
SMALL
GASTEIGER

@<TRIPOS>ATOM
      1 C          -0.8191    3.1771   24.6317 C.ar    1  UNL1        0.1384
      2 C          -0.5546    3.5955   23.2156 C.ar    1  UNL1        0.0369
      3 C           0.2360    2.7032   22.3052 C.ar    1  UNL1        0.0032
      4 C           0.7621    1.3926   22.8108 C.ar    1  UNL1        0.0024
      5 C           0.4976    0.9743   24.2268 C.ar    1  UNL1        0.0032
      6 C          -0.2930    1.8665   25.1372 C.ar    1  UNL1        0.0369
      7 C           1.5527    0.5003   21.9004 C.ar    1  UNL1        0.0275
      8 C           0.9077   -0.0868   20.6800 C.ar    1  UNL1        0.0019
      9 C           1.6982   -0.9790   19.7696 C.ar    1  UNL1       -0.0038
     10 C           3.1339   -1.2841   20.0796 C.ar    1  UNL1       -0.0157
     11 C           3.7788   -0.6970   21.2999 C.ar    1  UNL1        0.0257
     12 C           2.9882    0.1952   22.2104 C.ar    1  UNL1        0.1398
     13 F           3.6332    0.7823   23.4308 F       1  UNL1       -0.2042
     14 C           3.9244   -2.1764   19.1692 C.3     1  UNL1        0.0509
     15 C           4.5578   -3.4170   18.6127 C.3     1  UNL1        0.0100
     16 C           3.7463   -3.4894   19.8721 C.3     1  UNL1        0.0100
     17 C           4.3772   -1.1732   18.1500 C.2     1  UNL1        0.0534
     18 O           5.6082   -0.3533   18.4001 O.co2   1  UNL1       -0.5489
     19 O           3.5991   -0.9899   16.8808 O.co2   1  UNL1       -0.5489
     20 O          -1.6097    4.0693   25.5421 O.3     1  UNL1       -0.4792
     21 C          -6.5062    3.9149   23.1120 C.3     1  UNL1        0.0001
     22 C          -5.1697    3.9668   23.7910 C.3     1  UNL1        0.0035
     23 C          -4.8226    3.1287   22.5963 C.3     1  UNL1        0.0001
     24 C          -3.7126    3.7276   24.0551 C.3     1  UNL1        0.0435
     25 C          -3.0669    4.3085   25.2780 C.3     1  UNL1        0.1659
     26 C          -3.8781    5.1285   26.2368 C.3     1  UNL1        0.0435
     27 C          -5.3351    5.3677   25.9727 C.3     1  UNL1        0.0035
     28 C          -5.1763    6.1227   27.2591 C.3     1  UNL1        0.0001
     29 C          -6.7370    5.8690   26.1554 C.3     1  UNL1        0.0001
     30 C          -5.9809    4.7868   24.7498 C.3     1  UNL1        0.0002
@<TRIPOS>UNITY_ATOM_ATTR
18 1
charge -1
@<TRIPOS>BOND
     1    21    22    1
     2    22    23    1
     3    22    24    1
     4    24    25    1
     5    25    20    1
     6    20     1    1
     7     1     2   ar
     8     2     3   ar
     9     3     4   ar
    10     4     7    1
    11     7     8   ar
    12     8     9   ar
    13     9    10   ar
    14    10    14    1
    15    14    17    1
    16    17    18   ar
    17    17    19   ar
    18    14    15    1
    19    15    16    1
    20    10    11   ar
    21    11    12   ar
    22    12    13    1
    23     4     5   ar
    24     5     6   ar
    25    25    26    1
    26    26    27    1
    27    27    28    1
    28    27    29    1
    29    27    30    1
    30    30    22    1
    31     6     1   ar
    32    12     7   ar
    33    16    14    1
@<TRIPOS>MOLECULE
*****
 30 33 0 0 0
SMALL
GASTEIGER

@<TRIPOS>ATOM
      1 C           0.1490    3.4818   19.6172 C.ar    1  UNL1        0.1384
      2 C           0.4413    2.6069   18.4343 C.ar    1  UNL1        0.0369
      3 C           1.5249    1.5729   18.5158 C.ar    1  UNL1        0.0032
      4 C           2.3162    1.4138   19.7802 C.ar    1  UNL1        0.0024
      5 C           2.0239    2.2886   20.9630 C.ar    1  UNL1        0.0032
      6 C           0.9403    3.3227   20.8815 C.ar    1  UNL1        0.0369
      7 C           3.3997    0.3797   19.8617 C.ar    1  UNL1        0.0275
      8 C           4.8376    0.8031   19.9204 C.ar    1  UNL1        0.0019
      9 C           5.9212   -0.2309   20.0019 C.ar    1  UNL1       -0.0038
     10 C           5.5669   -1.6883   20.0246 C.ar    1  UNL1       -0.0157
     11 C           4.1291   -2.1117   19.9659 C.ar    1  UNL1        0.0257
     12 C           3.0455   -1.0776   19.8844 C.ar    1  UNL1        0.1398
     13 F           1.6077   -1.5010   19.8257 F       1  UNL1       -0.2042
     14 C           6.6505   -2.7224   20.1061 C.3     1  UNL1        0.0509
     15 C           7.4676   -3.8702   20.6206 C.3     1  UNL1        0.0100
     16 C           6.2598   -3.4092   21.3811 C.3     1  UNL1        0.0100
     17 C           7.4176   -2.3947   18.8595 C.2     1  UNL1        0.0534
     18 O           8.8800   -2.0714   18.9419 O.co2   1  UNL1       -0.5489
     19 O           6.7223   -2.3902   17.5303 O.co2   1  UNL1       -0.5489
     20 O          -0.9346    4.5159   19.5357 O.3     1  UNL1       -0.4792
     21 C          -5.2903    3.2771   22.6014 C.3     1  UNL1        0.0001
     22 C          -4.1051    3.6157   21.7465 C.3     1  UNL1        0.0035
     23 C          -3.4691    3.6637   23.1043 C.3     1  UNL1        0.0001
     24 C          -2.6991    3.9709   21.3632 C.3     1  UNL1        0.0435
     25 C          -2.3406    4.1606   19.9191 C.3     1  UNL1        0.1659
     26 C          -3.3881    3.9950   18.8583 C.3     1  UNL1        0.0435
     27 C          -4.7941    3.6398   19.2416 C.3     1  UNL1        0.0035
     28 C          -4.9418    3.7151   17.7508 C.3     1  UNL1        0.0001
     29 C          -6.2514    3.3107   19.1073 C.3     1  UNL1        0.0001
     30 C          -5.1526    3.4501   20.6858 C.3     1  UNL1        0.0002
@<TRIPOS>UNITY_ATOM_ATTR
18 1
charge -1
@<TRIPOS>BOND
     1    21    22    1
     2    22    23    1
     3    22    24    1
     4    24    25    1
     5    25    20    1
     6    20     1    1
     7     1     2   ar
     8     2     3   ar
     9     3     4   ar
    10     4     7    1
    11     7     8   ar
    12     8     9   ar
    13     9    10   ar
    14    10    14    1
    15    14    17    1
    16    17    18   ar
    17    17    19   ar
    18    14    15    1
    19    15    16    1
    20    10    11   ar
    21    11    12   ar
    22    12    13    1
    23     4     5   ar
    24     5     6   ar
    25    25    26    1
    26    26    27    1
    27    27    28    1
    28    27    29    1
    29    27    30    1
    30    30    22    1
    31     6     1   ar
    32    12     7   ar
    33    16    14    1
@<TRIPOS>MOLECULE
*****
 30 33 0 0 0
SMALL
GASTEIGER

@<TRIPOS>ATOM
      1 C           5.6628    0.2285   36.3889 C.ar    1  UNL1        0.1384
      2 C           4.6173   -0.5427   35.6390 C.ar    1  UNL1        0.0369
      3 C           4.9691   -1.2258   34.3507 C.ar    1  UNL1        0.0032
      4 C           6.3664   -1.1375   33.8122 C.ar    1  UNL1        0.0024
      5 C           7.4118   -0.3662   34.5620 C.ar    1  UNL1        0.0032
      6 C           7.0600    0.3168   35.8503 C.ar    1  UNL1        0.0369
      7 C           6.7182   -1.8205   32.5239 C.ar    1  UNL1        0.0275
      8 C           7.9207   -2.7144   32.4530 C.ar    1  UNL1        0.0019
      9 C           8.2725   -3.3974   31.1647 C.ar    1  UNL1       -0.0038
     10 C           7.4217   -3.1865   29.9473 C.ar    1  UNL1       -0.0157
     11 C           6.2193   -2.2926   30.0183 C.ar    1  UNL1        0.0257
     12 C           5.8676   -1.6096   31.3066 C.ar    1  UNL1        0.1398
     13 F           4.6651   -0.7156   31.3776 F       1  UNL1       -0.2042
     14 C           7.7735   -3.8695   28.6590 C.3     1  UNL1        0.0509
     15 C           8.3943   -4.1099   27.3149 C.3     1  UNL1        0.0100
     16 C           8.6704   -2.8324   28.0507 C.3     1  UNL1        0.0100
     17 C           6.9989   -5.1439   28.8198 C.2     1  UNL1        0.0534
     18 O           5.7608   -5.3768   28.0055 O.co2   1  UNL1       -0.5489
     19 O           7.4622   -6.1854   29.7948 O.co2   1  UNL1       -0.5489
     20 O           5.3111    0.9116   37.6772 O.3     1  UNL1       -0.4792
     21 C           0.1856    1.9976   39.2440 C.3     1  UNL1        0.0001
     22 C           1.5917    1.7141   38.8052 C.3     1  UNL1        0.0035
     23 C           1.3383    0.5093   39.6621 C.3     1  UNL1        0.0001
     24 C           2.9098    1.0122   38.6640 C.3     1  UNL1        0.0435
     25 C           3.9929    1.6135   37.8183 C.3     1  UNL1        0.1659
     26 C           3.7580    2.9168   37.1138 C.3     1  UNL1        0.0435
     27 C           2.4399    3.6187   37.2550 C.3     1  UNL1        0.0035
     28 C           3.1510    4.5797   36.3490 C.3     1  UNL1        0.0001
     29 C           1.3688    4.6543   37.0815 C.3     1  UNL1        0.0001
     30 C           1.3568    3.0173   38.1007 C.3     1  UNL1        0.0002
@<TRIPOS>UNITY_ATOM_ATTR
18 1
charge -1
@<TRIPOS>BOND
     1    21    22    1
     2    22    23    1
     3    22    24    1
     4    24    25    1
     5    25    20    1
     6    20     1    1
     7     1     2   ar
     8     2     3   ar
     9     3     4   ar
    10     4     7    1
    11     7     8   ar
    12     8     9   ar
    13     9    10   ar
    14    10    14    1
    15    14    17    1
    16    17    18   ar
    17    17    19   ar
    18    14    15    1
    19    15    16    1
    20    10    11   ar
    21    11    12   ar
    22    12    13    1
    23     4     5   ar
    24     5     6   ar
    25    25    26    1
    26    26    27    1
    27    27    28    1
    28    27    29    1
    29    27    30    1
    30    30    22    1
    31     6     1   ar
    32    12     7   ar
    33    16    14    1
