@<TRIPOS>MOLECULE
*****
 35 39 0 0 0
SMALL
GASTEIGER

@<TRIPOS>ATOM
      1 N          -7.6177  -19.5500   21.6133 N.3     1  UNL1       -0.2679
      2 C          -8.3959  -19.1703   22.8382 C.3     1  UNL1        0.0978
      3 C          -9.3720  -20.1392   23.4368 C.3     1  UNL1        0.0224
      4 C         -10.1502  -19.7594   24.6617 C.3     1  UNL1        0.0065
      5 C          -9.9523  -18.4109   25.2878 C.3     1  UNL1        0.0277
      6 C          -8.9761  -17.4420   24.6892 C.ar    1  UNL1       -0.0073
      7 C          -8.7782  -16.0934   25.3154 C.ar    1  UNL1       -0.0015
      8 C          -7.8020  -15.1245   24.7167 C.ar    1  UNL1        0.0203
      9 C          -7.0238  -15.5042   23.4919 C.ar    1  UNL1        0.0985
     10 N          -7.2217  -16.8528   22.8657 N.ar    1  UNL1       -0.2471
     11 C          -8.1979  -17.8217   23.4643 C.ar    1  UNL1        0.0695
     12 C          -8.1800  -19.2710   20.2510 C.3     1  UNL1        0.0725
     13 C          -9.3241  -20.0893   19.7299 C.3     1  UNL1        0.0188
     14 C         -10.7090  -19.5133   19.7071 C.3     1  UNL1        0.0188
     15 C         -11.4684  -19.3353   20.9883 C.3     1  UNL1        0.0721
     16 C         -12.6797  -17.7757   22.6766 C.3     1  UNL1        0.0896
     17 N         -11.7800  -17.9565   21.4901 N.3     1  UNL1       -0.2726
     18 C         -11.1918  -16.7585   20.8054 C.3     1  UNL1        0.0625
     19 C         -10.0547  -16.0145   21.4407 C.3     1  UNL1        0.0481
     20 C          -9.4666  -14.8165   20.7560 C.3     1  UNL1        0.1435
     21 O         -10.0154  -14.3625   19.4360 O.3     1  UNL1       -0.3537
     22 C         -11.1526  -15.1064   18.8006 C.3     1  UNL1        0.1435
     23 C         -11.7407  -16.3044   19.4853 C.3     1  UNL1        0.0481
     24 C          -6.2771  -20.2088   21.7508 C.3     1  UNL1        0.0886
     25 C          -5.0248  -19.3895   21.6476 C.3     1  UNL1        0.0764
     26 C          -4.1845  -19.4570   20.4069 C.3     1  UNL1        0.0626
     27 C          -2.9321  -18.6378   20.3037 C.ar    1  UNL1        0.0577
     28 N          -2.0919  -18.7053   19.0631 N.ar    1  UNL1       -0.2484
     29 C          -0.8396  -17.8861   18.9599 C.ar    1  UNL1        0.0984
     30 C          -0.4276  -16.9994   20.0975 C.ar    1  UNL1        0.0204
     31 C          -1.2678  -16.9320   21.3382 C.ar    1  UNL1       -0.0002
     32 C          -2.5201  -17.7511   21.4413 C.ar    1  UNL1        0.0073
     33 C          -3.3605  -17.6837   22.6821 C.3     1  UNL1        0.0968
     34 N          -4.6127  -18.5029   22.7852 N.3     1  UNL1       -0.2934
     35 H          -5.3800  -17.8494   22.9420 H       1  UNL1        0.1236
@<TRIPOS>BOND
     1    16    17    1
     2    17    15    1
     3    15    14    1
     4    14    13    1
     5    13    12    1
     6    12     1    1
     7     1    24    1
     8    25    24    1
     9    25    26    1
    10    26    27    1
    11    27    28   ar
    12    28    29   ar
    13    29    30   ar
    14    30    31   ar
    15    31    32   ar
    16    32    33    1
    17    33    34    1
    18     2     1    1
    19     2     3    1
    20     3     4    1
    21     4     5    1
    22     5     6    1
    23     6     7   ar
    24     7     8   ar
    25     8     9   ar
    26     9    10   ar
    27    10    11   ar
    28    17    18    1
    29    18    19    1
    30    19    20    1
    31    20    21    1
    32    21    22    1
    33    22    23    1
    34    34    25    1
    35    11     2    1
    36    23    18    1
    37    32    27   ar
    38    11     6   ar
    39    34    35    1
@<TRIPOS>MOLECULE
*****
 35 39 0 0 0
SMALL
GASTEIGER

@<TRIPOS>ATOM
      1 N          -9.0046  -18.2221   21.1852 N.3     1  UNL1       -0.2679
      2 C          -9.5771  -18.9031   22.3929 C.3     1  UNL1        0.0978
      3 C          -8.7982  -19.9819   23.0853 C.3     1  UNL1        0.0224
      4 C          -9.3707  -20.6629   24.2930 C.3     1  UNL1        0.0065
      5 C         -10.7221  -20.2650   24.8083 C.3     1  UNL1        0.0277
      6 C         -11.5009  -19.1862   24.1158 C.ar    1  UNL1       -0.0073
      7 C         -12.8523  -18.7882   24.6311 C.ar    1  UNL1       -0.0015
      8 C         -13.6311  -17.7094   23.9387 C.ar    1  UNL1        0.0203
      9 C         -13.0586  -17.0284   22.7310 C.ar    1  UNL1        0.0985
     10 N         -11.7073  -17.4263   22.2157 N.ar    1  UNL1       -0.2471
     11 C         -10.9284  -18.5052   22.9082 C.ar    1  UNL1        0.0695
     12 C          -9.1083  -18.8727   19.8376 C.3     1  UNL1        0.0725
     13 C          -8.0630  -19.8536   19.3958 C.3     1  UNL1        0.0188
     14 C          -6.7977  -20.0081   20.1864 C.3     1  UNL1        0.0188
     15 C          -5.6904  -19.0080   20.0327 C.3     1  UNL1        0.0721
     16 C          -4.8049  -19.5441   22.4156 C.3     1  UNL1        0.0896
     17 N          -4.6027  -18.9290   21.0626 N.3     1  UNL1       -0.2726
     18 C          -3.3129  -18.2349   20.7395 C.3     1  UNL1        0.0625
     19 C          -2.7468  -17.2230   21.6911 C.3     1  UNL1        0.0481
     20 C          -1.4569  -16.5288   21.3679 C.3     1  UNL1        0.1435
     21 O          -0.7331  -16.8466   20.0931 O.3     1  UNL1       -0.3537
     22 C          -1.2992  -17.8585   19.1415 C.3     1  UNL1        0.1435
     23 C          -2.5890  -18.5527   19.4646 C.3     1  UNL1        0.0481
     24 C          -8.3283  -16.8906   21.3250 C.3     1  UNL1        0.0886
     25 C          -7.7159  -16.4944   22.6358 C.3     1  UNL1        0.0764
     26 C          -8.5955  -16.1436   23.7991 C.3     1  UNL1        0.0626
     27 C          -7.9830  -15.7474   25.1098 C.ar    1  UNL1        0.0577
     28 N          -8.8626  -15.3966   26.2731 N.ar    1  UNL1       -0.2484
     29 C          -8.2502  -15.0004   27.5837 C.ar    1  UNL1        0.0984
     30 C          -6.7582  -14.9551   27.7312 C.ar    1  UNL1        0.0204
     31 C          -5.8786  -15.3059   26.5679 C.ar    1  UNL1       -0.0002
     32 C          -6.4910  -15.7020   25.2573 C.ar    1  UNL1        0.0073
     33 C          -5.6114  -16.0529   24.0939 C.3     1  UNL1        0.0968
     34 N          -6.2238  -16.4490   22.7833 N.3     1  UNL1       -0.2934
     35 H          -5.8780  -17.3840   22.5673 H       1  UNL1        0.1236
@<TRIPOS>BOND
     1    16    17    1
     2    17    15    1
     3    15    14    1
     4    14    13    1
     5    13    12    1
     6    12     1    1
     7     1    24    1
     8    25    24    1
     9    25    26    1
    10    26    27    1
    11    27    28   ar
    12    28    29   ar
    13    29    30   ar
    14    30    31   ar
    15    31    32   ar
    16    32    33    1
    17    33    34    1
    18     2     1    1
    19     2     3    1
    20     3     4    1
    21     4     5    1
    22     5     6    1
    23     6     7   ar
    24     7     8   ar
    25     8     9   ar
    26     9    10   ar
    27    10    11   ar
    28    17    18    1
    29    18    19    1
    30    19    20    1
    31    20    21    1
    32    21    22    1
    33    22    23    1
    34    34    25    1
    35    11     2    1
    36    23    18    1
    37    32    27   ar
    38    11     6   ar
    39    34    35    1
@<TRIPOS>MOLECULE
*****
 35 39 0 0 0
SMALL
GASTEIGER

@<TRIPOS>ATOM
      1 N          -8.8380  -17.8679   21.3261 N.3     1  UNL1       -0.2679
      2 C         -10.2825  -17.4641   21.3119 C.3     1  UNL1        0.0978
      3 C         -10.8287  -16.6725   20.1608 C.3     1  UNL1        0.0224
      4 C         -12.2732  -16.2686   20.1465 C.3     1  UNL1        0.0065
      5 C         -13.1716  -16.6564   21.2834 C.3     1  UNL1        0.0277
      6 C         -12.6255  -17.4480   22.4344 C.ar    1  UNL1       -0.0073
      7 C         -13.5239  -17.8358   23.5714 C.ar    1  UNL1       -0.0015
      8 C         -12.9778  -18.6274   24.7225 C.ar    1  UNL1        0.0203
      9 C         -11.5332  -19.0312   24.7367 C.ar    1  UNL1        0.0985
     10 N         -10.6348  -18.6435   23.5999 N.ar    1  UNL1       -0.2471
     11 C         -11.1809  -17.8518   22.4487 C.ar    1  UNL1        0.0695
     12 C          -8.4622  -19.3141   21.1955 C.3     1  UNL1        0.0725
     13 C          -7.6740  -19.9853   22.2810 C.3     1  UNL1        0.0188
     14 C          -6.2835  -20.4753   22.0048 C.3     1  UNL1        0.0188
     15 C          -5.1403  -19.5050   21.9663 C.3     1  UNL1        0.0721
     16 C          -4.1132  -20.7856   19.9525 C.3     1  UNL1        0.0896
     17 N          -4.0929  -19.6221   20.8989 N.3     1  UNL1       -0.2726
     18 C          -3.0251  -18.5755   20.7779 C.3     1  UNL1        0.0625
     19 C          -2.8753  -17.5302   21.8433 C.3     1  UNL1        0.0481
     20 C          -1.8076  -16.4837   21.7223 C.3     1  UNL1        0.1435
     21 O          -0.8897  -16.4823   20.5361 O.3     1  UNL1       -0.3537
     22 C          -1.0394  -17.5276   19.4706 C.3     1  UNL1        0.1435
     23 C          -2.1072  -18.5742   19.5916 C.3     1  UNL1        0.0481
     24 C          -7.7692  -16.8255   21.4710 C.3     1  UNL1        0.0886
     25 C          -7.3154  -16.4013   22.8364 C.3     1  UNL1        0.0764
     26 C          -8.3255  -16.1263   23.9106 C.3     1  UNL1        0.0626
     27 C          -7.8717  -15.7021   25.2760 C.ar    1  UNL1        0.0577
     28 N          -8.8818  -15.4271   26.3503 N.ar    1  UNL1       -0.2484
     29 C          -8.4280  -15.0030   27.7156 C.ar    1  UNL1        0.0984
     30 C          -6.9641  -14.8537   28.0066 C.ar    1  UNL1        0.0204
     31 C          -5.9540  -15.1287   26.9324 C.ar    1  UNL1       -0.0002
     32 C          -6.4078  -15.5529   25.5671 C.ar    1  UNL1        0.0073
     33 C          -5.3977  -15.8279   24.4927 C.3     1  UNL1        0.0968
     34 N          -5.8515  -16.2521   23.1274 N.3     1  UNL1       -0.2934
     35 H          -5.4206  -17.1578   22.9421 H       1  UNL1        0.1236
@<TRIPOS>BOND
     1    16    17    1
     2    17    15    1
     3    15    14    1
     4    14    13    1
     5    13    12    1
     6    12     1    1
     7     1    24    1
     8    25    24    1
     9    25    26    1
    10    26    27    1
    11    27    28   ar
    12    28    29   ar
    13    29    30   ar
    14    30    31   ar
    15    31    32   ar
    16    32    33    1
    17    33    34    1
    18     2     1    1
    19     2     3    1
    20     3     4    1
    21     4     5    1
    22     5     6    1
    23     6     7   ar
    24     7     8   ar
    25     8     9   ar
    26     9    10   ar
    27    10    11   ar
    28    17    18    1
    29    18    19    1
    30    19    20    1
    31    20    21    1
    32    21    22    1
    33    22    23    1
    34    34    25    1
    35    11     2    1
    36    23    18    1
    37    32    27   ar
    38    11     6   ar
    39    34    35    1
@<TRIPOS>MOLECULE
*****
 35 39 0 0 0
SMALL
GASTEIGER

@<TRIPOS>ATOM
      1 N          -7.5132  -19.5181   21.7012 N.3     1  UNL1       -0.2679
      2 C          -8.3307  -19.1345   22.8990 C.3     1  UNL1        0.0978
      3 C          -9.2039  -20.1538   23.5686 C.3     1  UNL1        0.0224
      4 C         -10.0214  -19.7703   24.7664 C.3     1  UNL1        0.0065
      5 C          -9.9656  -18.3675   25.2946 C.3     1  UNL1        0.0277
      6 C          -9.0923  -17.3482   24.6250 C.ar    1  UNL1       -0.0073
      7 C          -9.0365  -15.9454   25.1531 C.ar    1  UNL1       -0.0015
      8 C          -8.1632  -14.9261   24.4835 C.ar    1  UNL1        0.0203
      9 C          -7.3458  -15.3096   23.2857 C.ar    1  UNL1        0.0985
     10 N          -7.4016  -16.7124   22.7575 N.ar    1  UNL1       -0.2471
     11 C          -8.2749  -17.7318   23.4272 C.ar    1  UNL1        0.0695
     12 C          -7.9512  -19.0995   20.3290 C.3     1  UNL1        0.0725
     13 C          -8.2280  -20.1365   19.2812 C.3     1  UNL1        0.0188
     14 C          -9.6046  -20.2663   18.6996 C.3     1  UNL1        0.0188
     15 C         -10.7034  -19.3565   19.1630 C.3     1  UNL1        0.0721
     16 C         -11.3266  -20.7244   21.2821 C.3     1  UNL1        0.0896
     17 N         -11.1646  -19.4038   20.5896 N.3     1  UNL1       -0.2726
     18 C         -11.4639  -18.1303   21.3236 C.3     1  UNL1        0.0625
     19 C         -10.7290  -16.8711   20.9712 C.3     1  UNL1        0.0481
     20 C         -11.0282  -15.5976   21.7052 C.3     1  UNL1        0.1435
     21 O         -12.0624  -15.5834   22.7916 O.3     1  UNL1       -0.3537
     22 C         -12.7973  -16.8427   23.1441 C.3     1  UNL1        0.1435
     23 C         -12.4981  -18.1161   22.4101 C.3     1  UNL1        0.0481
     24 C          -6.2578  -20.3201   21.8756 C.3     1  UNL1        0.0886
     25 C          -4.9637  -19.8216   21.3037 C.3     1  UNL1        0.0764
     26 C          -4.3495  -18.5576   21.8282 C.3     1  UNL1        0.0626
     27 C          -3.0555  -18.0591   21.2564 C.ar    1  UNL1        0.0577
     28 N          -2.4413  -16.7951   21.7808 N.ar    1  UNL1       -0.2484
     29 C          -1.1473  -16.2966   21.2090 C.ar    1  UNL1        0.0984
     30 C          -0.4675  -17.0621   20.1126 C.ar    1  UNL1        0.0204
     31 C          -1.0817  -18.3261   19.5882 C.ar    1  UNL1       -0.0002
     32 C          -2.3757  -18.8245   20.1600 C.ar    1  UNL1        0.0073
     33 C          -2.9900  -20.0886   19.6355 C.3     1  UNL1        0.0968
     34 N          -4.2839  -20.5870   20.2074 N.3     1  UNL1       -0.2934
     35 H          -4.1044  -21.5235   20.5697 H       1  UNL1        0.1236
@<TRIPOS>BOND
     1    16    17    1
     2    17    15    1
     3    15    14    1
     4    14    13    1
     5    13    12    1
     6    12     1    1
     7     1    24    1
     8    25    24    1
     9    25    26    1
    10    26    27    1
    11    27    28   ar
    12    28    29   ar
    13    29    30   ar
    14    30    31   ar
    15    31    32   ar
    16    32    33    1
    17    33    34    1
    18     2     1    1
    19     2     3    1
    20     3     4    1
    21     4     5    1
    22     5     6    1
    23     6     7   ar
    24     7     8   ar
    25     8     9   ar
    26     9    10   ar
    27    10    11   ar
    28    17    18    1
    29    18    19    1
    30    19    20    1
    31    20    21    1
    32    21    22    1
    33    22    23    1
    34    34    25    1
    35    11     2    1
    36    23    18    1
    37    32    27   ar
    38    11     6   ar
    39    34    35    1
@<TRIPOS>MOLECULE
*****
 35 39 0 0 0
SMALL
GASTEIGER

@<TRIPOS>ATOM
      1 N          -7.8357  -19.6291   21.7301 N.3     1  UNL1       -0.2679
      2 C          -8.4588  -19.1960   23.0240 C.3     1  UNL1        0.0978
      3 C          -9.3120  -20.1527   23.8028 C.3     1  UNL1        0.0224
      4 C          -9.9351  -19.7196   25.0967 C.3     1  UNL1        0.0065
      5 C          -9.7050  -18.3298   25.6118 C.3     1  UNL1        0.0277
      6 C          -8.8517  -17.3731   24.8330 C.ar    1  UNL1       -0.0073
      7 C          -8.6215  -15.9832   25.3481 C.ar    1  UNL1       -0.0015
      8 C          -7.7683  -15.0264   24.5693 C.ar    1  UNL1        0.0203
      9 C          -7.1452  -15.4595   23.2754 C.ar    1  UNL1        0.0985
     10 N          -7.3753  -16.8493   22.7603 N.ar    1  UNL1       -0.2471
     11 C          -8.2286  -17.8062   23.5391 C.ar    1  UNL1        0.0695
     12 C          -8.5584  -19.3998   20.4359 C.3     1  UNL1        0.0725
     13 C         -10.0475  -19.5674   20.3684 C.3     1  UNL1        0.0188
     14 C         -10.8395  -18.8265   19.3323 C.3     1  UNL1        0.0188
     15 C         -11.1617  -17.3751   19.5308 C.3     1  UNL1        0.0721
     16 C         -10.2795  -15.7220   21.3305 C.3     1  UNL1        0.0896
     17 N         -11.2312  -16.8049   20.9165 N.3     1  UNL1       -0.2726
     18 C         -12.2524  -17.3178   21.8882 C.3     1  UNL1        0.0625
     19 C         -13.5437  -17.8921   21.3857 C.3     1  UNL1        0.0481
     20 C         -14.5649  -18.4050   22.3573 C.3     1  UNL1        0.1435
     21 O         -14.2948  -18.3435   23.8315 O.3     1  UNL1       -0.3537
     22 C         -13.0034  -17.7691   24.3341 C.3     1  UNL1        0.1435
     23 C         -11.9822  -17.2563   23.3624 C.3     1  UNL1        0.0481
     24 C          -6.4898  -20.2914   21.7304 C.3     1  UNL1        0.0886
     25 C          -5.2442  -19.4590   21.6561 C.3     1  UNL1        0.0764
     26 C          -4.4136  -19.4618   20.4071 C.3     1  UNL1        0.0626
     27 C          -3.1680  -18.6294   20.3328 C.ar    1  UNL1        0.0577
     28 N          -2.3374  -18.6322   19.0837 N.ar    1  UNL1       -0.2484
     29 C          -1.0918  -17.7998   19.0095 C.ar    1  UNL1        0.0984
     30 C          -0.6768  -16.9646   20.1842 C.ar    1  UNL1        0.0204
     31 C          -1.5073  -16.9618   21.4333 C.ar    1  UNL1       -0.0002
     32 C          -2.7529  -17.7942   21.5075 C.ar    1  UNL1        0.0073
     33 C          -3.5835  -17.7913   22.7566 C.3     1  UNL1        0.0968
     34 N          -4.8291  -18.6237   22.8309 N.3     1  UNL1       -0.2934
     35 H          -5.5997  -17.9840   23.0243 H       1  UNL1        0.1236
@<TRIPOS>BOND
     1    16    17    1
     2    17    15    1
     3    15    14    1
     4    14    13    1
     5    13    12    1
     6    12     1    1
     7     1    24    1
     8    25    24    1
     9    25    26    1
    10    26    27    1
    11    27    28   ar
    12    28    29   ar
    13    29    30   ar
    14    30    31   ar
    15    31    32   ar
    16    32    33    1
    17    33    34    1
    18     2     1    1
    19     2     3    1
    20     3     4    1
    21     4     5    1
    22     5     6    1
    23     6     7   ar
    24     7     8   ar
    25     8     9   ar
    26     9    10   ar
    27    10    11   ar
    28    17    18    1
    29    18    19    1
    30    19    20    1
    31    20    21    1
    32    21    22    1
    33    22    23    1
    34    34    25    1
    35    11     2    1
    36    23    18    1
    37    32    27   ar
    38    11     6   ar
    39    34    35    1
@<TRIPOS>MOLECULE
*****
 35 39 0 0 0
SMALL
GASTEIGER

@<TRIPOS>ATOM
      1 N          -7.6783  -18.9248   21.7754 N.3     1  UNL1       -0.2679
      2 C          -6.4857  -19.5779   21.1419 C.3     1  UNL1        0.0978
      3 C          -6.6748  -20.5730   20.0356 C.3     1  UNL1        0.0224
      4 C          -5.4822  -21.2260   19.4022 C.3     1  UNL1        0.0065
      5 C          -4.1005  -20.8839   19.8751 C.3     1  UNL1        0.0277
      6 C          -3.9113  -19.8888   20.9813 C.ar    1  UNL1       -0.0073
      7 C          -2.5294  -19.5467   21.4543 C.ar    1  UNL1       -0.0015
      8 C          -2.3403  -18.5516   22.5605 C.ar    1  UNL1        0.0203
      9 C          -3.5329  -17.8986   23.1940 C.ar    1  UNL1        0.0985
     10 N          -4.9146  -18.2406   22.7211 N.ar    1  UNL1       -0.2471
     11 C          -5.1039  -19.2358   21.6148 C.ar    1  UNL1        0.0695
     12 C          -8.7718  -19.7677   22.3615 C.3     1  UNL1        0.0725
     13 C          -8.8729  -19.9373   23.8485 C.3     1  UNL1        0.0188
     14 C         -10.0804  -19.4316   24.5806 C.3     1  UNL1        0.0188
     15 C         -11.4511  -19.6663   24.0186 C.3     1  UNL1        0.0721
     16 C         -13.4975  -18.0671   24.0908 C.3     1  UNL1        0.0896
     17 N         -12.2282  -18.5237   23.4348 N.3     1  UNL1       -0.2726
     18 C         -11.7359  -17.8376   22.1951 C.3     1  UNL1        0.0625
     19 C         -11.5906  -18.6104   20.9177 C.3     1  UNL1        0.0481
     20 C         -11.0983  -17.9243   19.6779 C.3     1  UNL1        0.1435
     21 O         -10.7512  -16.4656   19.7156 O.3     1  UNL1       -0.3537
     22 C         -10.8965  -15.6927   20.9930 C.3     1  UNL1        0.1435
     23 C         -11.3888  -16.3788   22.2327 C.3     1  UNL1        0.0481
     24 C          -7.7773  -17.4289   21.8227 C.3     1  UNL1        0.0886
     25 C          -7.3794  -16.6898   23.0659 C.3     1  UNL1        0.0764
     26 C          -8.2845  -16.6923   24.2620 C.3     1  UNL1        0.0626
     27 C          -7.8866  -15.9533   25.5053 C.ar    1  UNL1        0.0577
     28 N          -8.7917  -15.9558   26.7014 N.ar    1  UNL1       -0.2484
     29 C          -8.3938  -15.2167   27.9445 C.ar    1  UNL1        0.0984
     30 C          -7.0908  -14.4752   27.9915 C.ar    1  UNL1        0.0204
     31 C          -6.1857  -14.4727   26.7954 C.ar    1  UNL1       -0.0002
     32 C          -6.5836  -15.2117   25.5523 C.ar    1  UNL1        0.0073
     33 C          -5.6784  -15.2092   24.3561 C.3     1  UNL1        0.0968
     34 N          -6.0764  -15.9483   23.1129 N.3     1  UNL1       -0.2934
     35 H          -5.3419  -16.6316   22.9288 H       1  UNL1        0.1236
@<TRIPOS>BOND
     1    16    17    1
     2    17    15    1
     3    15    14    1
     4    14    13    1
     5    13    12    1
     6    12     1    1
     7     1    24    1
     8    25    24    1
     9    25    26    1
    10    26    27    1
    11    27    28   ar
    12    28    29   ar
    13    29    30   ar
    14    30    31   ar
    15    31    32   ar
    16    32    33    1
    17    33    34    1
    18     2     1    1
    19     2     3    1
    20     3     4    1
    21     4     5    1
    22     5     6    1
    23     6     7   ar
    24     7     8   ar
    25     8     9   ar
    26     9    10   ar
    27    10    11   ar
    28    17    18    1
    29    18    19    1
    30    19    20    1
    31    20    21    1
    32    21    22    1
    33    22    23    1
    34    34    25    1
    35    11     2    1
    36    23    18    1
    37    32    27   ar
    38    11     6   ar
    39    34    35    1
@<TRIPOS>MOLECULE
*****
 35 39 0 0 0
SMALL
GASTEIGER

@<TRIPOS>ATOM
      1 N          -6.5621  -18.5642   20.5685 N.3     1  UNL1       -0.2679
      2 C          -5.1832  -18.9247   21.0360 C.3     1  UNL1        0.0978
      3 C          -5.0006  -19.6929   22.3113 C.3     1  UNL1        0.0224
      4 C          -3.6216  -20.0533   22.7789 C.3     1  UNL1        0.0065
      5 C          -2.4253  -19.6457   21.9711 C.3     1  UNL1        0.0277
      6 C          -2.6079  -18.8775   20.6957 C.ar    1  UNL1       -0.0073
      7 C          -1.4116  -18.4698   19.8879 C.ar    1  UNL1       -0.0015
      8 C          -1.5942  -17.7016   18.6125 C.ar    1  UNL1        0.0203
      9 C          -2.9732  -17.3411   18.1450 C.ar    1  UNL1        0.0985
     10 N          -4.1695  -17.7488   18.9528 N.ar    1  UNL1       -0.2471
     11 C          -3.9869  -18.5170   20.2282 C.ar    1  UNL1        0.0695
     12 C          -7.2528  -19.4143   19.5437 C.3     1  UNL1        0.0725
     13 C          -8.6329  -19.9381   19.8104 C.3     1  UNL1        0.0188
     14 C          -9.8251  -19.0533   19.5967 C.3     1  UNL1        0.0188
     15 C         -11.1468  -19.4157   20.2063 C.3     1  UNL1        0.0721
     16 C         -12.6951  -17.6906   21.3798 C.3     1  UNL1        0.0896
     17 N         -11.6117  -18.7253   21.4543 N.3     1  UNL1       -0.2726
     18 C         -10.9931  -19.0697   22.7767 C.3     1  UNL1        0.0625
     19 C         -11.2556  -18.2065   23.9750 C.3     1  UNL1        0.0481
     20 C         -10.6370  -18.5509   25.2974 C.3     1  UNL1        0.1435
     21 O          -9.7559  -19.7584   25.4215 O.3     1  UNL1       -0.3537
     22 C          -9.4933  -20.6217   24.2232 C.3     1  UNL1        0.1435
     23 C         -10.1119  -20.2773   22.9008 C.3     1  UNL1        0.0481
     24 C          -7.2504  -17.3536   21.1257 C.3     1  UNL1        0.0886
     25 C          -6.8895  -16.8475   22.4909 C.3     1  UNL1        0.0764
     26 C          -7.9640  -16.6047   23.5090 C.3     1  UNL1        0.0626
     27 C          -7.6031  -16.0986   24.8742 C.ar    1  UNL1        0.0577
     28 N          -8.6775  -15.8558   25.8923 N.ar    1  UNL1       -0.2484
     29 C          -8.3166  -15.3497   27.2575 C.ar    1  UNL1        0.0984
     30 C          -6.8812  -15.0865   27.6045 C.ar    1  UNL1        0.0204
     31 C          -5.8068  -15.3294   26.5864 C.ar    1  UNL1       -0.0002
     32 C          -6.1677  -15.8354   25.2213 C.ar    1  UNL1        0.0073
     33 C          -5.0932  -16.0783   24.2031 C.3     1  UNL1        0.0968
     34 N          -5.4542  -16.5843   22.8380 N.3     1  UNL1       -0.2934
     35 H          -4.9538  -17.4637   22.7081 H       1  UNL1        0.1236
@<TRIPOS>BOND
     1    16    17    1
     2    17    15    1
     3    15    14    1
     4    14    13    1
     5    13    12    1
     6    12     1    1
     7     1    24    1
     8    25    24    1
     9    25    26    1
    10    26    27    1
    11    27    28   ar
    12    28    29   ar
    13    29    30   ar
    14    30    31   ar
    15    31    32   ar
    16    32    33    1
    17    33    34    1
    18     2     1    1
    19     2     3    1
    20     3     4    1
    21     4     5    1
    22     5     6    1
    23     6     7   ar
    24     7     8   ar
    25     8     9   ar
    26     9    10   ar
    27    10    11   ar
    28    17    18    1
    29    18    19    1
    30    19    20    1
    31    20    21    1
    32    21    22    1
    33    22    23    1
    34    34    25    1
    35    11     2    1
    36    23    18    1
    37    32    27   ar
    38    11     6   ar
    39    34    35    1
@<TRIPOS>MOLECULE
*****
 35 39 0 0 0
SMALL
GASTEIGER

@<TRIPOS>ATOM
      1 N          -6.4670  -19.9726   20.8309 N.3     1  UNL1       -0.2679
      2 C          -5.0168  -19.6102   20.7066 C.3     1  UNL1        0.0978
      3 C          -4.1510  -20.3143   19.7043 C.3     1  UNL1        0.0224
      4 C          -2.7008  -19.9519   19.5800 C.3     1  UNL1        0.0065
      5 C          -2.1163  -18.8855   20.4581 C.3     1  UNL1        0.0277
      6 C          -2.9820  -18.1814   21.4604 C.ar    1  UNL1       -0.0073
      7 C          -2.3975  -17.1149   22.3385 C.ar    1  UNL1       -0.0015
      8 C          -3.2633  -16.4108   23.3408 C.ar    1  UNL1        0.0203
      9 C          -4.7135  -16.7732   23.4651 C.ar    1  UNL1        0.0985
     10 N          -5.2980  -17.8396   22.5871 N.ar    1  UNL1       -0.2471
     11 C          -4.4323  -18.5438   21.5847 C.ar    1  UNL1        0.0695
     12 C          -6.9363  -20.8014   21.9897 C.3     1  UNL1        0.0725
     13 C          -7.6570  -20.1515   23.1336 C.3     1  UNL1        0.0188
     14 C          -9.0682  -20.5470   23.4528 C.3     1  UNL1        0.0188
     15 C          -9.6712  -20.1731   24.7743 C.3     1  UNL1        0.0721
     16 C         -11.7104  -18.5647   24.7079 C.3     1  UNL1        0.0896
     17 N         -10.2538  -18.8051   24.9728 N.3     1  UNL1       -0.2726
     18 C          -9.3796  -17.6777   25.4361 C.3     1  UNL1        0.0625
     19 C          -8.7534  -16.7536   24.4342 C.3     1  UNL1        0.0481
     20 C          -7.8792  -15.6262   24.8976 C.3     1  UNL1        0.1435
     21 O          -7.6312  -15.4228   26.3629 O.3     1  UNL1       -0.3537
     22 C          -8.2575  -16.3469   27.3649 C.3     1  UNL1        0.1435
     23 C          -9.1316  -17.4744   26.9015 C.3     1  UNL1        0.0481
     24 C          -7.4480  -19.5061   19.7965 C.3     1  UNL1        0.0886
     25 C          -8.8267  -19.0818   20.2077 C.3     1  UNL1        0.0764
     26 C          -9.0292  -17.7757   20.9170 C.3     1  UNL1        0.0626
     27 C         -10.4080  -17.3514   21.3282 C.ar    1  UNL1        0.0577
     28 N         -10.6104  -16.0453   22.0375 N.ar    1  UNL1       -0.2484
     29 C         -11.9891  -15.6210   22.4487 C.ar    1  UNL1        0.0984
     30 C         -13.1654  -16.5028   22.1506 C.ar    1  UNL1        0.0204
     31 C         -12.9629  -17.8089   21.4413 C.ar    1  UNL1       -0.0002
     32 C         -11.5842  -18.2332   21.0301 C.ar    1  UNL1        0.0073
     33 C         -11.3817  -19.5393   20.3208 C.3     1  UNL1        0.0968
     34 N         -10.0030  -19.9636   19.9096 N.3     1  UNL1       -0.2934
     35 H         -10.0244  -20.0940   18.8982 H       1  UNL1        0.1236
@<TRIPOS>BOND
     1    16    17    1
     2    17    15    1
     3    15    14    1
     4    14    13    1
     5    13    12    1
     6    12     1    1
     7     1    24    1
     8    25    24    1
     9    25    26    1
    10    26    27    1
    11    27    28   ar
    12    28    29   ar
    13    29    30   ar
    14    30    31   ar
    15    31    32   ar
    16    32    33    1
    17    33    34    1
    18     2     1    1
    19     2     3    1
    20     3     4    1
    21     4     5    1
    22     5     6    1
    23     6     7   ar
    24     7     8   ar
    25     8     9   ar
    26     9    10   ar
    27    10    11   ar
    28    17    18    1
    29    18    19    1
    30    19    20    1
    31    20    21    1
    32    21    22    1
    33    22    23    1
    34    34    25    1
    35    11     2    1
    36    23    18    1
    37    32    27   ar
    38    11     6   ar
    39    34    35    1
@<TRIPOS>MOLECULE
*****
 35 39 0 0 0
SMALL
GASTEIGER

@<TRIPOS>ATOM
      1 N          -6.7711  -18.4833   22.8622 N.3     1  UNL1       -0.2679
      2 C          -8.1844  -18.9857   22.8776 C.3     1  UNL1        0.0978
      3 C          -8.8801  -19.2278   24.1841 C.3     1  UNL1        0.0224
      4 C         -10.2934  -19.7302   24.1995 C.3     1  UNL1        0.0065
      5 C         -11.0109  -19.9905   22.9082 C.3     1  UNL1        0.0277
      6 C         -10.3151  -19.7485   21.6016 C.ar    1  UNL1       -0.0073
      7 C         -11.0326  -20.0088   20.3103 C.ar    1  UNL1       -0.0015
      8 C         -10.3368  -19.7668   19.0037 C.ar    1  UNL1        0.0203
      9 C          -8.9236  -19.2644   18.9884 C.ar    1  UNL1        0.0985
     10 N          -8.2061  -19.0040   20.2796 N.ar    1  UNL1       -0.2471
     11 C          -8.9019  -19.2461   21.5863 C.ar    1  UNL1        0.0695
     12 C          -6.4837  -17.0432   23.1675 C.3     1  UNL1        0.0725
     13 C          -6.7201  -16.5076   24.5486 C.3     1  UNL1        0.0188
     14 C          -7.8171  -15.5135   24.7900 C.3     1  UNL1        0.0188
     15 C          -9.1612  -15.7109   24.1541 C.3     1  UNL1        0.0721
     16 C          -8.2427  -14.8728   21.8729 C.3     1  UNL1        0.0896
     17 N          -9.3226  -15.5391   22.6727 N.3     1  UNL1       -0.2726
     18 C         -10.5640  -16.0337   21.9912 C.3     1  UNL1        0.0625
     19 C         -10.6688  -15.9847   20.4957 C.3     1  UNL1        0.0481
     20 C         -11.9101  -16.4792   19.8142 C.3     1  UNL1        0.1435
     21 O         -13.0467  -17.0228   20.6282 O.3     1  UNL1       -0.3537
     22 C         -12.9420  -17.0718   22.1238 C.3     1  UNL1        0.1435
     23 C         -11.7006  -16.5772   22.8053 C.3     1  UNL1        0.0481
     24 C          -5.6452  -19.4211   22.5415 C.3     1  UNL1        0.0886
     25 C          -4.6282  -19.0453   21.5048 C.3     1  UNL1        0.0764
     26 C          -3.1931  -18.8538   21.8968 C.3     1  UNL1        0.0626
     27 C          -2.1762  -18.4781   20.8601 C.ar    1  UNL1        0.0577
     28 N          -0.7410  -18.2866   21.2521 N.ar    1  UNL1       -0.2484
     29 C           0.2758  -17.9108   20.2154 C.ar    1  UNL1        0.0984
     30 C          -0.1425  -17.7266   18.7867 C.ar    1  UNL1        0.0204
     31 C          -1.5776  -17.9181   18.3947 C.ar    1  UNL1       -0.0002
     32 C          -2.5944  -18.2938   19.4314 C.ar    1  UNL1        0.0073
     33 C          -4.0297  -18.4853   19.0395 C.3     1  UNL1        0.0968
     34 N          -5.0465  -18.8611   20.0762 N.3     1  UNL1       -0.2934
     35 H          -5.4622  -19.7425   19.7750 H       1  UNL1        0.1236
@<TRIPOS>BOND
     1    16    17    1
     2    17    15    1
     3    15    14    1
     4    14    13    1
     5    13    12    1
     6    12     1    1
     7     1    24    1
     8    25    24    1
     9    25    26    1
    10    26    27    1
    11    27    28   ar
    12    28    29   ar
    13    29    30   ar
    14    30    31   ar
    15    31    32   ar
    16    32    33    1
    17    33    34    1
    18     2     1    1
    19     2     3    1
    20     3     4    1
    21     4     5    1
    22     5     6    1
    23     6     7   ar
    24     7     8   ar
    25     8     9   ar
    26     9    10   ar
    27    10    11   ar
    28    17    18    1
    29    18    19    1
    30    19    20    1
    31    20    21    1
    32    21    22    1
    33    22    23    1
    34    34    25    1
    35    11     2    1
    36    23    18    1
    37    32    27   ar
    38    11     6   ar
    39    34    35    1
