@<TRIPOS>MOLECULE
*****
 25 28 0 0 0
SMALL
GASTEIGER

@<TRIPOS>ATOM
      1 C          -3.2244  -20.1369   20.2013 C.3     1  UNL1        0.0323
      2 C          -4.4305  -19.6371   20.9399 C.ar    1  UNL1       -0.0071
      3 C          -5.7911  -20.2686   20.9362 C.ar    1  UNL1        0.0336
      4 C          -6.1844  -21.5110   20.1932 C.3     1  UNL1        0.0497
      5 N          -6.6892  -19.4398   21.8059 N.ar    1  UNL1       -0.3272
      6 C          -5.8836  -18.2959   22.3471 C.ar    1  UNL1        0.1163
      7 C          -6.2409  -17.1591   23.2581 C.ar    1  UNL1        0.2601
      8 N          -5.2023  -16.1442   23.6339 N.ar    1  UNL1       -0.1087
      9 N          -3.8064  -16.2662   23.0987 N.ar    1  UNL1       -0.1434
     10 C          -3.4491  -17.4030   22.1877 C.ar    1  UNL1        0.1235
     11 C          -4.4877  -18.4179   21.8119 C.ar    1  UNL1        0.0385
     12 C          -8.1384  -19.7076   22.0853 C.3     1  UNL1        0.1058
     13 C          -9.1400  -19.6516   20.9702 C.3     1  UNL1        0.0226
     14 C         -10.4959  -19.2620   20.4602 C.3     1  UNL1        0.0020
     15 C          -9.5191  -19.9441   19.5486 C.3     1  UNL1        0.0019
     16 C          -9.1742  -20.5067   18.2016 C.3     1  UNL1        0.0001
     17 O          -7.6369  -17.0371   23.7933 O.3     1  UNL1       -0.4533
     18 C          -8.7128  -16.4214   22.9487 C.3     1  UNL1        0.2338
     19 C         -10.1374  -16.8623   23.1101 C.ar    1  UNL1        0.0214
     20 C         -10.4705  -18.0025   24.0260 C.ar    1  UNL1        0.0016
     21 C         -11.8951  -18.4434   24.1874 C.ar    1  UNL1        0.0294
     22 C         -12.9867  -17.7441   23.4328 C.ar    1  UNL1        0.1401
     23 F         -14.4113  -18.1850   23.5941 F       1  UNL1       -0.2042
     24 C         -12.6537  -16.6039   22.5168 C.ar    1  UNL1        0.0294
     25 C         -11.2290  -16.1630   22.3554 C.ar    1  UNL1        0.0016
@<TRIPOS>BOND
     1     1     2    1
     2     2     3   ar
     3     3     4    1
     4     3     5   ar
     5     5    12    1
     6    13    12    1
     7    13    14    1
     8    14    15    1
     9    15    16    1
    10     5     6   ar
    11     6     7   ar
    12     7    17    1
    13    17    18    1
    14    18    19    1
    15    19    20   ar
    16    20    21   ar
    17    21    22   ar
    18    22    23    1
    19    22    24   ar
    20    24    25   ar
    21     7     8   ar
    22     8     9   ar
    23     9    10   ar
    24    10    11   ar
    25    11     2   ar
    26    15    13    1
    27    11     6   ar
    28    25    19   ar
@<TRIPOS>MOLECULE
*****
 25 28 0 0 0
SMALL
GASTEIGER

@<TRIPOS>ATOM
      1 C         -12.0306  -18.7724   23.5225 C.3     1  UNL1        0.0323
      2 C         -10.6469  -18.5780   22.9770 C.ar    1  UNL1       -0.0071
      3 C          -9.4927  -17.9527   23.7030 C.ar    1  UNL1        0.0336
      4 C          -9.5197  -17.4121   25.1019 C.3     1  UNL1        0.0497
      5 N          -8.3069  -17.9631   22.7844 N.ar    1  UNL1       -0.3272
      6 C          -8.7283  -18.5947   21.4907 C.ar    1  UNL1        0.1163
      7 C          -7.9819  -18.8729   20.2197 C.ar    1  UNL1        0.2601
      8 N          -8.6817  -19.5312   19.0677 N.ar    1  UNL1       -0.1087
      9 N         -10.1278  -19.9112   19.1868 N.ar    1  UNL1       -0.1434
     10 C         -10.8742  -19.6330   20.4578 C.ar    1  UNL1        0.1235
     11 C         -10.1744  -18.9748   21.6098 C.ar    1  UNL1        0.0385
     12 C          -6.9399  -17.4346   23.1034 C.3     1  UNL1        0.1058
     13 C          -6.7905  -16.1303   23.8291 C.3     1  UNL1        0.0226
     14 C          -7.1766  -14.6920   24.0087 C.3     1  UNL1        0.0020
     15 C          -6.1457  -15.3096   24.9064 C.3     1  UNL1        0.0019
     16 C          -5.1782  -15.1922   26.0467 C.3     1  UNL1        0.0001
     17 O          -6.5357  -18.4929   20.1006 O.3     1  UNL1       -0.4533
     18 C          -5.4677  -19.4973   20.4178 C.3     1  UNL1        0.2338
     19 C          -4.0236  -19.0935   20.3809 C.ar    1  UNL1        0.0214
     20 C          -3.4440  -18.4945   19.1337 C.ar    1  UNL1        0.0016
     21 C          -1.9999  -18.0907   19.0967 C.ar    1  UNL1        0.0294
     22 C          -1.1353  -18.2859   20.3069 C.ar    1  UNL1        0.1401
     23 F           0.3089  -17.8822   20.2699 F       1  UNL1       -0.2042
     24 C          -1.7148  -18.8849   21.5539 C.ar    1  UNL1        0.0294
     25 C          -3.1590  -19.2887   21.5910 C.ar    1  UNL1        0.0016
@<TRIPOS>BOND
     1     1     2    1
     2     2     3   ar
     3     3     4    1
     4     3     5   ar
     5     5    12    1
     6    13    12    1
     7    13    14    1
     8    14    15    1
     9    15    16    1
    10     5     6   ar
    11     6     7   ar
    12     7    17    1
    13    17    18    1
    14    18    19    1
    15    19    20   ar
    16    20    21   ar
    17    21    22   ar
    18    22    23    1
    19    22    24   ar
    20    24    25   ar
    21     7     8   ar
    22     8     9   ar
    23     9    10   ar
    24    10    11   ar
    25    11     2   ar
    26    15    13    1
    27    11     6   ar
    28    25    19   ar
@<TRIPOS>MOLECULE
*****
 25 28 0 0 0
SMALL
GASTEIGER

@<TRIPOS>ATOM
      1 C          -2.6690  -18.0953   23.4774 C.3     1  UNL1        0.0323
      2 C          -4.0969  -17.9649   23.0370 C.ar    1  UNL1       -0.0071
      3 C          -5.0908  -16.9665   23.5522 C.ar    1  UNL1        0.0336
      4 C          -4.8312  -15.9232   24.5983 C.3     1  UNL1        0.0497
      5 N          -6.3898  -17.1945   22.8376 N.ar    1  UNL1       -0.3272
      6 C          -6.1987  -18.3338   21.8808 C.ar    1  UNL1        0.1163
      7 C          -7.1321  -18.9993   20.9133 C.ar    1  UNL1        0.2601
      8 N          -6.6483  -20.1408   20.0690 N.ar    1  UNL1       -0.1087
      9 N          -5.2313  -20.6169   20.1922 N.ar    1  UNL1       -0.1434
     10 C          -4.2980  -19.9515   21.1597 C.ar    1  UNL1        0.1235
     11 C          -4.7817  -18.8099   22.0041 C.ar    1  UNL1        0.0385
     12 C          -7.6573  -16.4193   23.0437 C.3     1  UNL1        0.1058
     13 C          -8.3409  -16.4407   24.3787 C.3     1  UNL1        0.0226
     14 C          -9.5012  -16.8482   25.2377 C.3     1  UNL1        0.0020
     15 C          -8.3647  -16.0702   25.8321 C.3     1  UNL1        0.0019
     16 C          -7.7223  -15.4072   27.0144 C.3     1  UNL1        0.0001
     17 O          -8.5492  -18.5231   20.7901 O.3     1  UNL1       -0.4533
     18 C          -9.6834  -19.4626   21.0743 C.3     1  UNL1        0.2338
     19 C         -10.8400  -19.0095   21.9151 C.ar    1  UNL1        0.0214
     20 C         -10.9255  -19.4180   23.3559 C.ar    1  UNL1        0.0016
     21 C         -12.0820  -18.9649   24.1966 C.ar    1  UNL1        0.0294
     22 C         -13.1532  -18.1031   23.5967 C.ar    1  UNL1        0.1401
     23 F         -14.3098  -17.6499   24.4374 F       1  UNL1       -0.2042
     24 C         -13.0678  -17.6945   22.1560 C.ar    1  UNL1        0.0294
     25 C         -11.9112  -18.1477   21.3151 C.ar    1  UNL1        0.0016
@<TRIPOS>BOND
     1     1     2    1
     2     2     3   ar
     3     3     4    1
     4     3     5   ar
     5     5    12    1
     6    13    12    1
     7    13    14    1
     8    14    15    1
     9    15    16    1
    10     5     6   ar
    11     6     7   ar
    12     7    17    1
    13    17    18    1
    14    18    19    1
    15    19    20   ar
    16    20    21   ar
    17    21    22   ar
    18    22    23    1
    19    22    24   ar
    20    24    25   ar
    21     7     8   ar
    22     8     9   ar
    23     9    10   ar
    24    10    11   ar
    25    11     2   ar
    26    15    13    1
    27    11     6   ar
    28    25    19   ar
@<TRIPOS>MOLECULE
*****
 25 28 0 0 0
SMALL
GASTEIGER

@<TRIPOS>ATOM
      1 C         -11.8206  -18.4142   20.7666 C.3     1  UNL1        0.0323
      2 C         -10.5384  -17.9689   21.4051 C.ar    1  UNL1       -0.0071
      3 C         -10.3937  -16.8801   22.4267 C.ar    1  UNL1        0.0336
      4 C         -11.5060  -16.0455   22.9892 C.3     1  UNL1        0.0497
      5 N          -8.9417  -16.7726   22.7870 N.ar    1  UNL1       -0.3272
      6 C          -8.1889  -17.7949   21.9881 C.ar    1  UNL1        0.1163
      7 C          -6.7323  -18.1481   21.9280 C.ar    1  UNL1        0.2601
      8 N          -6.2625  -19.2405   21.0138 N.ar    1  UNL1       -0.1087
      9 N          -7.2493  -19.9799   20.1598 N.ar    1  UNL1       -0.1434
     10 C          -8.7059  -19.6267   20.2199 C.ar    1  UNL1        0.1235
     11 C          -9.1757  -18.5342   21.1340 C.ar    1  UNL1        0.0385
     12 C          -8.3468  -15.8115   23.7731 C.3     1  UNL1        0.1058
     13 C          -8.3360  -16.1475   25.2350 C.3     1  UNL1        0.0226
     14 C          -8.8550  -16.9581   26.3855 C.3     1  UNL1        0.0020
     15 C          -7.7983  -15.9188   26.6165 C.3     1  UNL1        0.0019
     16 C          -6.8778  -15.1868   27.5476 C.3     1  UNL1        0.0001
     17 O          -5.7454  -17.4086   22.7821 O.3     1  UNL1       -0.4533
     18 C          -4.4373  -18.0485   23.1419 C.3     1  UNL1        0.2338
     19 C          -3.2592  -17.9147   22.2231 C.ar    1  UNL1        0.0214
     20 C          -2.5713  -16.5901   22.0736 C.ar    1  UNL1        0.0016
     21 C          -1.3932  -16.4563   21.1549 C.ar    1  UNL1        0.0294
     22 C          -0.9029  -17.6471   20.3856 C.ar    1  UNL1        0.1401
     23 F           0.2752  -17.5133   19.4669 F       1  UNL1       -0.2042
     24 C          -1.5908  -18.9716   20.5351 C.ar    1  UNL1        0.0294
     25 C          -2.7689  -19.1055   21.4539 C.ar    1  UNL1        0.0016
@<TRIPOS>BOND
     1     1     2    1
     2     2     3   ar
     3     3     4    1
     4     3     5   ar
     5     5    12    1
     6    13    12    1
     7    13    14    1
     8    14    15    1
     9    15    16    1
    10     5     6   ar
    11     6     7   ar
    12     7    17    1
    13    17    18    1
    14    18    19    1
    15    19    20   ar
    16    20    21   ar
    17    21    22   ar
    18    22    23    1
    19    22    24   ar
    20    24    25   ar
    21     7     8   ar
    22     8     9   ar
    23     9    10   ar
    24    10    11   ar
    25    11     2   ar
    26    15    13    1
    27    11     6   ar
    28    25    19   ar
@<TRIPOS>MOLECULE
*****
 25 28 0 0 0
SMALL
GASTEIGER

@<TRIPOS>ATOM
      1 C          -8.9869  -15.2028   25.1252 C.3     1  UNL1        0.0323
      2 C          -8.5373  -16.3118   24.2208 C.ar    1  UNL1       -0.0071
      3 C          -9.4200  -17.3468   23.5886 C.ar    1  UNL1        0.0336
      4 C         -10.9075  -17.4545   23.7500 C.3     1  UNL1        0.0497
      5 N          -8.5542  -18.2551   22.7668 N.ar    1  UNL1       -0.3272
      6 C          -7.1363  -17.7814   22.8911 C.ar    1  UNL1        0.1163
      7 C          -5.8534  -18.2886   22.3021 C.ar    1  UNL1        0.2601
      8 N          -4.5601  -17.5948   22.6117 N.ar    1  UNL1       -0.1087
      9 N          -4.5497  -16.3938   23.5102 N.ar    1  UNL1       -0.1434
     10 C          -5.8326  -15.8866   24.0992 C.ar    1  UNL1        0.1235
     11 C          -7.1259  -16.5804   23.7897 C.ar    1  UNL1        0.0385
     12 C          -9.0238  -19.4306   21.9621 C.3     1  UNL1        0.1058
     13 C          -9.8245  -19.2124   20.7126 C.3     1  UNL1        0.0226
     14 C         -10.2851  -19.6852   19.3656 C.3     1  UNL1        0.0020
     15 C         -10.7508  -18.3614   19.8954 C.3     1  UNL1        0.0019
     16 C         -11.5545  -17.1058   19.7293 C.3     1  UNL1        0.0001
     17 O          -5.8639  -19.4897   21.4035 O.3     1  UNL1       -0.4533
     18 C          -5.1518  -19.4454   20.0841 C.3     1  UNL1        0.2338
     19 C          -3.7097  -19.0374   20.0235 C.ar    1  UNL1        0.0214
     20 C          -2.7081  -19.6853   20.9330 C.ar    1  UNL1        0.0016
     21 C          -1.2659  -19.2774   20.8724 C.ar    1  UNL1        0.0294
     22 C          -0.8253  -18.2215   19.9023 C.ar    1  UNL1        0.1401
     23 F           0.6169  -17.8136   19.8417 F       1  UNL1       -0.2042
     24 C          -1.8267  -17.5737   18.9928 C.ar    1  UNL1        0.0294
     25 C          -3.2690  -17.9816   19.0534 C.ar    1  UNL1        0.0016
@<TRIPOS>BOND
     1     1     2    1
     2     2     3   ar
     3     3     4    1
     4     3     5   ar
     5     5    12    1
     6    13    12    1
     7    13    14    1
     8    14    15    1
     9    15    16    1
    10     5     6   ar
    11     6     7   ar
    12     7    17    1
    13    17    18    1
    14    18    19    1
    15    19    20   ar
    16    20    21   ar
    17    21    22   ar
    18    22    23    1
    19    22    24   ar
    20    24    25   ar
    21     7     8   ar
    22     8     9   ar
    23     9    10   ar
    24    10    11   ar
    25    11     2   ar
    26    15    13    1
    27    11     6   ar
    28    25    19   ar
@<TRIPOS>MOLECULE
*****
 25 28 0 0 0
SMALL
GASTEIGER

@<TRIPOS>ATOM
      1 C         -13.7739  -17.8336   21.5580 C.3     1  UNL1        0.0323
      2 C         -12.4154  -18.1729   22.0959 C.ar    1  UNL1       -0.0071
      3 C         -12.0604  -18.3576   23.5416 C.ar    1  UNL1        0.0336
      4 C         -13.0017  -18.2354   24.7032 C.3     1  UNL1        0.0497
      5 N         -10.5990  -18.6860   23.6217 N.ar    1  UNL1       -0.3272
      6 C         -10.0508  -18.7042   22.2256 C.ar    1  UNL1        0.1163
      7 C          -8.6744  -18.9686   21.6911 C.ar    1  UNL1        0.2601
      8 N          -8.4206  -18.9159   20.2137 N.ar    1  UNL1       -0.1087
      9 N          -9.5432  -18.5988   19.2708 N.ar    1  UNL1       -0.1434
     10 C         -10.9196  -18.3344   19.8052 C.ar    1  UNL1        0.1235
     11 C         -11.1734  -18.3871   21.2826 C.ar    1  UNL1        0.0385
     12 C          -9.8222  -18.9498   24.8775 C.3     1  UNL1        0.1058
     13 C          -9.2323  -17.8064   25.6486 C.3     1  UNL1        0.0226
     14 C          -8.8025  -17.2039   26.9534 C.3     1  UNL1        0.0020
     15 C          -8.6404  -16.4284   25.6795 C.3     1  UNL1        0.0019
     16 C          -8.2051  -15.1852   24.9620 C.3     1  UNL1        0.0001
     17 O          -7.5518  -19.2857   22.6341 O.3     1  UNL1       -0.4533
     18 C          -6.5327  -20.3227   22.2652 C.3     1  UNL1        0.2338
     19 C          -5.2214  -19.9062   21.6678 C.ar    1  UNL1        0.0214
     20 C          -4.9180  -20.2191   20.2324 C.ar    1  UNL1        0.0016
     21 C          -3.6067  -19.8026   19.6350 C.ar    1  UNL1        0.0294
     22 C          -2.5987  -19.0732   20.4728 C.ar    1  UNL1        0.1401
     23 F          -1.2874  -18.6568   19.8754 F       1  UNL1       -0.2042
     24 C          -2.9020  -18.7603   21.9081 C.ar    1  UNL1        0.0294
     25 C          -4.2134  -19.1768   22.5056 C.ar    1  UNL1        0.0016
@<TRIPOS>BOND
     1     1     2    1
     2     2     3   ar
     3     3     4    1
     4     3     5   ar
     5     5    12    1
     6    13    12    1
     7    13    14    1
     8    14    15    1
     9    15    16    1
    10     5     6   ar
    11     6     7   ar
    12     7    17    1
    13    17    18    1
    14    18    19    1
    15    19    20   ar
    16    20    21   ar
    17    21    22   ar
    18    22    23    1
    19    22    24   ar
    20    24    25   ar
    21     7     8   ar
    22     8     9   ar
    23     9    10   ar
    24    10    11   ar
    25    11     2   ar
    26    15    13    1
    27    11     6   ar
    28    25    19   ar
@<TRIPOS>MOLECULE
*****
 25 28 0 0 0
SMALL
GASTEIGER

@<TRIPOS>ATOM
      1 C          -2.0564  -17.3657   22.3221 C.3     1  UNL1        0.0323
      2 C          -3.5124  -17.7028   22.4508 C.ar    1  UNL1       -0.0071
      3 C          -4.1802  -18.9407   21.9297 C.ar    1  UNL1        0.0336
      4 C          -3.5092  -20.0589   21.1883 C.3     1  UNL1        0.0497
      5 N          -5.6367  -18.8641   22.2800 N.ar    1  UNL1       -0.3272
      6 C          -5.8690  -17.5788   23.0177 C.ar    1  UNL1        0.1163
      7 C          -7.1065  -16.9693   23.6069 C.ar    1  UNL1        0.2601
      8 N          -7.0311  -15.6421   24.3016 N.ar    1  UNL1       -0.1087
      9 N          -5.7182  -14.9244   24.4072 N.ar    1  UNL1       -0.1434
     10 C          -4.4807  -15.5339   23.8180 C.ar    1  UNL1        0.1235
     11 C          -4.5561  -16.8611   23.1232 C.ar    1  UNL1        0.0385
     12 C          -6.6780  -19.8923   21.9505 C.3     1  UNL1        0.1058
     13 C          -7.6026  -19.6778   20.7890 C.3     1  UNL1        0.0226
     14 C          -7.8134  -19.3757   19.3349 C.3     1  UNL1        0.0020
     15 C          -8.9934  -19.6085   20.2314 C.3     1  UNL1        0.0019
     16 C         -10.4776  -19.7028   20.4268 C.3     1  UNL1        0.0001
     17 O          -8.4194  -17.6871   23.5013 O.3     1  UNL1       -0.4533
     18 C          -9.5871  -17.0207   22.8363 C.3     1  UNL1        0.2338
     19 C         -10.9863  -17.3912   23.2301 C.ar    1  UNL1        0.0214
     20 C         -12.1538  -16.7076   22.5822 C.ar    1  UNL1        0.0016
     21 C         -13.5529  -17.0781   22.9760 C.ar    1  UNL1        0.0294
     22 C         -13.7846  -18.1323   24.0176 C.ar    1  UNL1        0.1401
     23 F         -15.1837  -18.5029   24.4114 F       1  UNL1       -0.2042
     24 C         -12.6172  -18.8160   24.6655 C.ar    1  UNL1        0.0294
     25 C         -11.2180  -18.4454   24.2717 C.ar    1  UNL1        0.0016
@<TRIPOS>BOND
     1     1     2    1
     2     2     3   ar
     3     3     4    1
     4     3     5   ar
     5     5    12    1
     6    13    12    1
     7    13    14    1
     8    14    15    1
     9    15    16    1
    10     5     6   ar
    11     6     7   ar
    12     7    17    1
    13    17    18    1
    14    18    19    1
    15    19    20   ar
    16    20    21   ar
    17    21    22   ar
    18    22    23    1
    19    22    24   ar
    20    24    25   ar
    21     7     8   ar
    22     8     9   ar
    23     9    10   ar
    24    10    11   ar
    25    11     2   ar
    26    15    13    1
    27    11     6   ar
    28    25    19   ar
@<TRIPOS>MOLECULE
*****
 25 28 0 0 0
SMALL
GASTEIGER

@<TRIPOS>ATOM
      1 C          -9.7154  -21.5000   24.6346 C.3     1  UNL1        0.0323
      2 C          -9.5972  -20.1568   23.9774 C.ar    1  UNL1       -0.0071
      3 C         -10.6234  -19.0635   24.0150 C.ar    1  UNL1        0.0336
      4 C         -11.9481  -19.1214   24.7164 C.3     1  UNL1        0.0497
      5 N         -10.0925  -17.9021   23.2280 N.ar    1  UNL1       -0.3272
      6 C          -8.7380  -18.2778   22.7040 C.ar    1  UNL1        0.1163
      7 C          -7.7439  -17.5309   21.8650 C.ar    1  UNL1        0.2601
      8 N          -6.4437  -18.1776   21.4891 N.ar    1  UNL1       -0.1087
      9 N          -6.1376  -19.5710   21.9523 N.ar    1  UNL1       -0.1434
     10 C          -7.1318  -20.3178   22.7913 C.ar    1  UNL1        0.1235
     11 C          -8.4320  -19.6712   23.1672 C.ar    1  UNL1        0.0385
     12 C         -10.7929  -16.5947   23.0042 C.3     1  UNL1        0.1058
     13 C         -11.7002  -16.4226   21.8222 C.3     1  UNL1        0.0226
     14 C         -13.0683  -16.5016   21.2122 C.3     1  UNL1        0.0020
     15 C         -11.9033  -16.0456   20.3846 C.3     1  UNL1        0.0019
     16 C         -11.3481  -15.5647   19.0767 C.3     1  UNL1        0.0001
     17 O          -8.0501  -16.1374   21.4018 O.3     1  UNL1       -0.4533
     18 C          -7.7432  -14.9677   22.2893 C.3     1  UNL1        0.2338
     19 C          -7.3843  -15.1919   23.7284 C.ar    1  UNL1        0.0214
     20 C          -5.9483  -15.3673   24.1247 C.ar    1  UNL1        0.0016
     21 C          -5.5894  -15.5915   25.5638 C.ar    1  UNL1        0.0294
     22 C          -6.6666  -15.6404   26.6065 C.ar    1  UNL1        0.1401
     23 F          -6.3077  -15.8646   28.0456 F       1  UNL1       -0.2042
     24 C          -8.1026  -15.4650   26.2103 C.ar    1  UNL1        0.0294
     25 C          -8.4615  -15.2408   24.7711 C.ar    1  UNL1        0.0016
@<TRIPOS>BOND
     1     1     2    1
     2     2     3   ar
     3     3     4    1
     4     3     5   ar
     5     5    12    1
     6    13    12    1
     7    13    14    1
     8    14    15    1
     9    15    16    1
    10     5     6   ar
    11     6     7   ar
    12     7    17    1
    13    17    18    1
    14    18    19    1
    15    19    20   ar
    16    20    21   ar
    17    21    22   ar
    18    22    23    1
    19    22    24   ar
    20    24    25   ar
    21     7     8   ar
    22     8     9   ar
    23     9    10   ar
    24    10    11   ar
    25    11     2   ar
    26    15    13    1
    27    11     6   ar
    28    25    19   ar
@<TRIPOS>MOLECULE
*****
 25 28 0 0 0
SMALL
GASTEIGER

@<TRIPOS>ATOM
      1 C          -2.2622  -17.2162   22.3618 C.3     1  UNL1        0.0323
      2 C          -3.7017  -17.6149   22.4986 C.ar    1  UNL1       -0.0071
      3 C          -4.3309  -18.8541   21.9340 C.ar    1  UNL1        0.0336
      4 C          -3.6308  -19.9121   21.1336 C.3     1  UNL1        0.0497
      5 N          -5.7828  -18.8495   22.3104 N.ar    1  UNL1       -0.3272
      6 C          -6.0511  -17.6074   23.1077 C.ar    1  UNL1        0.1163
      7 C          -7.3004  -17.0727   23.7427 C.ar    1  UNL1        0.2601
      8 N          -7.2635  -15.7750   24.4940 N.ar    1  UNL1       -0.1087
      9 N          -5.9773  -15.0120   24.6103 N.ar    1  UNL1       -0.1434
     10 C          -4.7280  -15.5467   23.9752 C.ar    1  UNL1        0.1235
     11 C          -4.7649  -16.8444   23.2239 C.ar    1  UNL1        0.0385
     12 C          -6.7898  -19.9020   21.9525 C.3     1  UNL1        0.1058
     13 C          -7.7315  -19.6802   20.8062 C.3     1  UNL1        0.0226
     14 C          -7.9639  -19.3643   19.3584 C.3     1  UNL1        0.0020
     15 C          -9.1302  -19.6118   20.2686 C.3     1  UNL1        0.0019
     16 C         -10.6111  -19.7153   20.4837 C.3     1  UNL1        0.0001
     17 O          -8.5866  -17.8357   23.6264 O.3     1  UNL1       -0.4533
     18 C          -9.8979  -17.1112   23.7014 C.3     1  UNL1        0.2338
     19 C         -10.6035  -16.7053   22.4415 C.ar    1  UNL1        0.0214
     20 C         -12.0777  -16.9426   22.2978 C.ar    1  UNL1        0.0016
     21 C         -12.7834  -16.5367   21.0380 C.ar    1  UNL1        0.0294
     22 C         -12.0150  -15.8936   19.9218 C.ar    1  UNL1        0.1401
     23 F         -12.7206  -15.4877   18.6619 F       1  UNL1       -0.2042
     24 C         -10.5409  -15.6563   20.0654 C.ar    1  UNL1        0.0294
     25 C          -9.8351  -16.0622   21.3253 C.ar    1  UNL1        0.0016
@<TRIPOS>BOND
     1     1     2    1
     2     2     3   ar
     3     3     4    1
     4     3     5   ar
     5     5    12    1
     6    13    12    1
     7    13    14    1
     8    14    15    1
     9    15    16    1
    10     5     6   ar
    11     6     7   ar
    12     7    17    1
    13    17    18    1
    14    18    19    1
    15    19    20   ar
    16    20    21   ar
    17    21    22   ar
    18    22    23    1
    19    22    24   ar
    20    24    25   ar
    21     7     8   ar
    22     8     9   ar
    23     9    10   ar
    24    10    11   ar
    25    11     2   ar
    26    15    13    1
    27    11     6   ar
    28    25    19   ar
