@<TRIPOS>MOLECULE
*****
 39 45 0 0 0
SMALL
GASTEIGER

@<TRIPOS>ATOM
      1 C           5.3197   -2.5138   18.2319 C.3     1  UNL1        0.0700
      2 C           4.7563   -3.3913   19.3101 C.3     1  UNL1        0.0193
      3 C           5.6203   -3.8136   20.4612 C.3     1  UNL1        0.0287
      4 C           7.0478   -3.3584   20.5341 C.3     1  UNL1        0.0958
      5 C           7.6112   -2.4809   19.4559 C.3     1  UNL1        0.0287
      6 C           6.7471   -2.0586   18.3048 C.3     1  UNL1        0.0193
      7 O           6.6131   -3.1012   19.8839 O.3     1  UNL1       -0.3571
      8 C           5.8318   -2.7193   18.8431 C.3     1  UNL1        0.1562
      9 N           4.4556   -2.0914   17.0808 N.3     1  UNL1       -0.2926
     10 H           4.9021   -2.4420   16.2333 H       1  UNL1        0.1236
     11 C           4.1716   -0.6367   16.8505 C.3     1  UNL1        0.1152
     12 O          -1.7669    2.4682   20.8311 O.2     1  UNL1       -0.2707
     13 C          -0.2915    2.2864   20.6303 C.2     1  UNL1        0.2718
     14 C           0.6796    2.9577   21.5555 C.3     1  UNL1        0.2898
     15 O           2.1550    2.7759   21.3548 O.3     1  UNL1       -0.4628
     16 C           2.6592    1.9228   20.2287 C.ar    1  UNL1        0.1708
     17 C           4.1345    1.7409   20.0279 C.ar    1  UNL1        0.0411
     18 C           4.6386    0.8878   18.9018 C.ar    1  UNL1        0.0193
     19 C           3.6674    0.2165   17.9766 C.ar    1  UNL1        0.0765
     20 N           2.1921    0.3983   18.1774 N.ar    1  UNL1       -0.2304
     21 C           1.6880    1.2515   19.3035 C.ar    1  UNL1        0.1682
     22 N           0.2126    1.4333   19.5042 N.am    1  UNL1       -0.2639
     23 H          -0.4248    0.9926   18.8969 H       1  UNL1        0.1565
     24 C           7.9119   -3.7808   21.6852 C.3     1  UNL1        0.0661
     25 C           7.4371   -3.5775   23.0935 C.3     1  UNL1        0.1790
     26 F           7.0555   -2.2131   22.6009 F       1  UNL1       -0.2333
     27 C           6.8826   -3.0890   24.3988 C.3     1  UNL1        0.1459
     28 N           7.0207   -4.1940   25.4038 N.ar    1  UNL1       -0.2912
     29 C           6.6465   -4.2848   26.8535 C.ar    1  UNL1        0.2611
     30 O           6.0066   -3.1133   27.5377 O.2     1  UNL1       -0.2670
     31 C           6.9122   -5.5470   27.6190 C.ar    1  UNL1        0.0623
     32 C           7.5522   -6.7185   26.9347 C.ar    1  UNL1        0.0254
     33 C           7.9264   -6.6277   25.4851 C.ar    1  UNL1        0.0972
     34 N           8.5689   -7.6256   24.5568 N.ar    1  UNL1       -0.2400
     35 C           8.8864   -7.3884   23.1101 C.ar    1  UNL1        0.1282
     36 C           8.5610   -6.0678   22.4776 C.ar    1  UNL1        0.1591
     37 F           8.8785   -5.8306   21.0309 F       1  UNL1       -0.2027
     38 C           7.9180   -4.9844   23.2918 C.ar    1  UNL1        0.0553
     39 C           7.6607   -5.3654   24.7196 C.ar    1  UNL1        0.0809
@<TRIPOS>BOND
     1    12    13    2
     2    13    14    1
     3    14    15    1
     4    15    16    1
     5    16    17   ar
     6    17    18   ar
     7    18    19   ar
     8    19    11    1
     9    11     9    1
    10     9     1    1
    11     1     2    1
    12     2     3    1
    13     3     4    1
    14     4    24    1
    15    24    25    1
    16    25    26    1
    17    25    27    1
    18    27    28    1
    19    28    29   ar
    20    29    30    2
    21    29    31   ar
    22    31    32   ar
    23    32    33   ar
    24    33    34   ar
    25    34    35   ar
    26    35    36   ar
    27    36    37    1
    28    36    38   ar
    29    38    39   ar
    30     4     5    1
    31     5     6    1
    32     4     7    1
    33     7     8    1
    34    19    20   ar
    35    20    21   ar
    36    21    22    1
    37    22    13   am
    38    21    16   ar
    39     6     1    1
    40     8     1    1
    41    38    25    1
    42    39    28   ar
    43    39    33   ar
    44     9    10    1
    45    22    23    1
@<TRIPOS>MOLECULE
*****
 39 45 0 0 0
SMALL
GASTEIGER

@<TRIPOS>ATOM
      1 C           4.9949   -3.1194   19.8094 C.3     1  UNL1        0.0700
      2 C           6.4880   -3.0343   19.6933 C.3     1  UNL1        0.0193
      3 C           7.3525   -3.3770   20.8702 C.3     1  UNL1        0.0287
      4 C           6.7240   -3.8047   22.1634 C.3     1  UNL1        0.0958
      5 C           5.2309   -3.8898   22.2795 C.3     1  UNL1        0.0287
      6 C           4.3664   -3.5471   21.1025 C.3     1  UNL1        0.0193
      7 O           6.2091   -3.6269   21.5459 O.3     1  UNL1       -0.3571
      8 C           5.4274   -3.3171   20.4817 C.3     1  UNL1        0.1562
      9 N           4.1304   -2.7768   18.6325 N.3     1  UNL1       -0.2926
     10 H           4.5479   -3.2286   17.8189 H       1  UNL1        0.1236
     11 C           3.9032   -1.3412   18.2615 C.3     1  UNL1        0.1152
     12 O          -0.8439    4.8407   18.2366 O.2     1  UNL1       -0.2707
     13 C          -0.4164    3.5334   18.8353 C.2     1  UNL1        0.2718
     14 C          -1.1438    2.9797   20.0245 C.3     1  UNL1        0.2898
     15 O          -0.7164    1.6724   20.6233 O.3     1  UNL1       -0.4628
     16 C           0.4385    0.9190   20.0328 C.ar    1  UNL1        0.1708
     17 C           0.8660   -0.3882   20.6316 C.ar    1  UNL1        0.0411
     18 C           2.0208   -1.1416   20.0411 C.ar    1  UNL1        0.0193
     19 C           2.7483   -0.5878   18.8519 C.ar    1  UNL1        0.0765
     20 N           2.3208    0.7194   18.2532 N.ar    1  UNL1       -0.2304
     21 C           1.1659    1.4728   18.8437 C.ar    1  UNL1        0.1682
     22 N           0.7385    2.7800   18.2449 N.am    1  UNL1       -0.2639
     23 H           1.2160    3.1435   17.4644 H       1  UNL1        0.1565
     24 C           7.5885   -4.1473   23.3403 C.3     1  UNL1        0.0661
     25 C           7.2929   -3.5543   24.6860 C.3     1  UNL1        0.1790
     26 F           7.1796   -2.2695   23.9202 F       1  UNL1       -0.2333
     27 C           6.9736   -2.6927   25.8716 C.3     1  UNL1        0.1459
     28 N           6.9513   -3.5690   27.0889 N.ar    1  UNL1       -0.2912
     29 C           6.6923   -3.2705   28.5358 C.ar    1  UNL1        0.2611
     30 O           6.3868   -1.8673   28.9692 O.2     1  UNL1       -0.2670
     31 C           6.7388   -4.3751   29.5495 C.ar    1  UNL1        0.0623
     32 C           7.0444   -5.7783   29.1162 C.ar    1  UNL1        0.0254
     33 C           7.3034   -6.0768   27.6692 C.ar    1  UNL1        0.0972
     34 N           7.6286   -7.3657   26.9597 N.ar    1  UNL1       -0.2400
     35 C           7.8650   -7.5112   25.4857 C.ar    1  UNL1        0.1282
     36 C           7.7847   -6.3099   24.5910 C.ar    1  UNL1        0.1591
     37 F           8.0210   -6.4554   23.1170 F       1  UNL1       -0.2027
     38 C           7.4680   -4.9631   25.1705 C.ar    1  UNL1        0.0553
     39 C           7.2569   -4.9721   26.6556 C.ar    1  UNL1        0.0809
@<TRIPOS>BOND
     1    12    13    2
     2    13    14    1
     3    14    15    1
     4    15    16    1
     5    16    17   ar
     6    17    18   ar
     7    18    19   ar
     8    19    11    1
     9    11     9    1
    10     9     1    1
    11     1     2    1
    12     2     3    1
    13     3     4    1
    14     4    24    1
    15    24    25    1
    16    25    26    1
    17    25    27    1
    18    27    28    1
    19    28    29   ar
    20    29    30    2
    21    29    31   ar
    22    31    32   ar
    23    32    33   ar
    24    33    34   ar
    25    34    35   ar
    26    35    36   ar
    27    36    37    1
    28    36    38   ar
    29    38    39   ar
    30     4     5    1
    31     5     6    1
    32     4     7    1
    33     7     8    1
    34    19    20   ar
    35    20    21   ar
    36    21    22    1
    37    22    13   am
    38    21    16   ar
    39     6     1    1
    40     8     1    1
    41    38    25    1
    42    39    28   ar
    43    39    33   ar
    44     9    10    1
    45    22    23    1
@<TRIPOS>MOLECULE
*****
 39 45 0 0 0
SMALL
GASTEIGER

@<TRIPOS>ATOM
      1 C           7.5546   -7.1577   27.5932 C.3     1  UNL1        0.0700
      2 C           6.4694   -6.1536   27.3402 C.3     1  UNL1        0.0193
      3 C           6.5146   -4.8144   28.0143 C.3     1  UNL1        0.0287
      4 C           7.6452   -4.4793   28.9416 C.3     1  UNL1        0.0958
      5 C           8.7304   -5.4834   29.1946 C.3     1  UNL1        0.0287
      6 C           8.6851   -6.8226   28.5204 C.3     1  UNL1        0.0193
      7 O           7.6634   -5.2260   28.5951 O.3     1  UNL1       -0.3571
      8 C           7.6225   -6.4369   27.9856 C.3     1  UNL1        0.1562
      9 N           7.5094   -8.4969   26.9191 N.3     1  UNL1       -0.2926
     10 H           6.5279   -8.6961   26.7254 H       1  UNL1        0.1236
     11 C           8.0678   -9.7045   27.6119 C.3     1  UNL1        0.1152
     12 O           1.0055  -13.0021   27.6565 O.2     1  UNL1       -0.2707
     13 C           2.4834  -13.0932   27.8971 C.2     1  UNL1        0.2718
     14 C           3.0848  -14.3746   28.3931 C.3     1  UNL1        0.2898
     15 O           4.5626  -14.4658   28.6338 O.3     1  UNL1       -0.4628
     16 C           5.4389  -13.2755   28.3783 C.ar    1  UNL1        0.1708
     17 C           6.9166  -13.3666   28.6189 C.ar    1  UNL1        0.0411
     18 C           7.7929  -12.1762   28.3634 C.ar    1  UNL1        0.0193
     19 C           7.1914  -10.8948   27.8673 C.ar    1  UNL1        0.0765
     20 N           5.7136  -10.8037   27.6267 N.ar    1  UNL1       -0.2304
     21 C           4.8374  -11.9940   27.8822 C.ar    1  UNL1        0.1682
     22 N           3.3597  -11.9029   27.6416 N.am    1  UNL1       -0.2639
     23 H           2.9649  -11.0618   27.3160 H       1  UNL1        0.1565
     24 C           7.6904   -3.1401   29.6157 C.3     1  UNL1        0.0661
     25 C           6.7741   -2.8486   30.7670 C.3     1  UNL1        0.1790
     26 F           7.3569   -4.1043   31.3445 F       1  UNL1       -0.2333
     27 C           5.9796   -2.8196   32.0390 C.3     1  UNL1        0.1459
     28 N           5.0974   -1.6069   32.0070 N.ar    1  UNL1       -0.2912
     29 C           4.0993   -1.0657   32.9872 C.ar    1  UNL1        0.2611
     30 O           3.8501   -1.7862   34.2790 O.2     1  UNL1       -0.2670
     31 C           3.3504    0.1961   32.6756 C.ar    1  UNL1        0.0623
     32 C           3.5996    0.9166   31.3838 C.ar    1  UNL1        0.0254
     33 C           4.5977    0.3754   30.4036 C.ar    1  UNL1        0.0972
     34 N           5.0439    0.8776   29.0548 N.ar    1  UNL1       -0.2400
     35 C           6.0667    0.2197   28.1768 C.ar    1  UNL1        0.1282
     36 C           6.7361   -1.0460   28.6238 C.ar    1  UNL1        0.1591
     37 F           7.7589   -1.7039   27.7457 F       1  UNL1       -0.2027
     38 C           6.3829   -1.6538   29.9489 C.ar    1  UNL1        0.0553
     39 C           5.3466   -0.8864   30.7152 C.ar    1  UNL1        0.0809
@<TRIPOS>BOND
     1    12    13    2
     2    13    14    1
     3    14    15    1
     4    15    16    1
     5    16    17   ar
     6    17    18   ar
     7    18    19   ar
     8    19    11    1
     9    11     9    1
    10     9     1    1
    11     1     2    1
    12     2     3    1
    13     3     4    1
    14     4    24    1
    15    24    25    1
    16    25    26    1
    17    25    27    1
    18    27    28    1
    19    28    29   ar
    20    29    30    2
    21    29    31   ar
    22    31    32   ar
    23    32    33   ar
    24    33    34   ar
    25    34    35   ar
    26    35    36   ar
    27    36    37    1
    28    36    38   ar
    29    38    39   ar
    30     4     5    1
    31     5     6    1
    32     4     7    1
    33     7     8    1
    34    19    20   ar
    35    20    21   ar
    36    21    22    1
    37    22    13   am
    38    21    16   ar
    39     6     1    1
    40     8     1    1
    41    38    25    1
    42    39    28   ar
    43    39    33   ar
    44     9    10    1
    45    22    23    1
@<TRIPOS>MOLECULE
*****
 39 45 0 0 0
SMALL
GASTEIGER

@<TRIPOS>ATOM
      1 C           4.6992   -3.4319   21.8364 C.3     1  UNL1        0.0700
      2 C           4.4077   -3.8040   20.4128 C.3     1  UNL1        0.0193
      3 C           3.7438   -2.8159   19.5002 C.3     1  UNL1        0.0287
      4 C           3.3714   -1.4556   20.0112 C.3     1  UNL1        0.0958
      5 C           3.6629   -1.0835   21.4348 C.3     1  UNL1        0.0287
      6 C           4.3268   -2.0717   22.3474 C.3     1  UNL1        0.0193
      7 O           3.7336   -1.9634   20.5488 O.3     1  UNL1       -0.3571
      8 C           4.3339   -2.8568   21.3739 C.3     1  UNL1        0.1562
      9 N           5.3632   -4.4200   22.7490 N.3     1  UNL1       -0.2926
     10 H           4.6833   -4.6564   23.4717 H       1  UNL1        0.1236
     11 C           6.6348   -4.0524   23.4545 C.3     1  UNL1        0.1152
     12 O           6.4547   -4.0170   31.2466 O.2     1  UNL1       -0.2707
     13 C           6.8587   -4.6729   29.9594 C.2     1  UNL1        0.2718
     14 C           7.6067   -5.9728   29.9827 C.3     1  UNL1        0.2898
     15 O           8.0108   -6.6288   28.6956 O.3     1  UNL1       -0.4628
     16 C           7.6668   -5.9847   27.3853 C.ar    1  UNL1        0.1708
     17 C           8.0708   -6.6406   26.0983 C.ar    1  UNL1        0.0411
     18 C           7.7268   -5.9965   24.7880 C.ar    1  UNL1        0.0193
     19 C           6.9788   -4.6965   24.7648 C.ar    1  UNL1        0.0765
     20 N           6.5748   -4.0406   26.0519 N.ar    1  UNL1       -0.2304
     21 C           6.9188   -4.6847   27.3622 C.ar    1  UNL1        0.1682
     22 N           6.5147   -4.0288   28.6492 N.am    1  UNL1       -0.2639
     23 H           6.0238   -3.1756   28.6339 H       1  UNL1        0.1565
     24 C           2.7074   -0.4675   19.0986 C.3     1  UNL1        0.0661
     25 C           1.4670    0.2488   19.5439 C.3     1  UNL1        0.1790
     26 F           1.0005   -1.1248   19.9257 F       1  UNL1       -0.2333
     27 C           0.1290    0.6779   20.0689 C.3     1  UNL1        0.1459
     28 N           0.0279    2.1670   19.9185 N.ar    1  UNL1       -0.2912
     29 C          -1.0608    3.1391   20.2645 C.ar    1  UNL1        0.2611
     30 O          -2.3363    2.6479   20.8824 O.2     1  UNL1       -0.2670
     31 C          -0.8740    4.6023   19.9924 C.ar    1  UNL1        0.0623
     32 C           0.4015    5.0934   19.3744 C.ar    1  UNL1        0.0254
     33 C           1.4902    4.1213   19.0285 C.ar    1  UNL1        0.0972
     34 N           2.8497    4.3249   18.4115 N.ar    1  UNL1       -0.2400
     35 C           3.8442    3.2402   18.1212 C.ar    1  UNL1        0.1282
     36 C           3.5157    1.8140   18.4499 C.ar    1  UNL1        0.1591
     37 F           4.5102    0.7293   18.1596 F       1  UNL1       -0.2027
     38 C           2.1928    1.4726   19.0690 C.ar    1  UNL1        0.0553
     39 C           1.3034    2.6581   19.3005 C.ar    1  UNL1        0.0809
@<TRIPOS>BOND
     1    12    13    2
     2    13    14    1
     3    14    15    1
     4    15    16    1
     5    16    17   ar
     6    17    18   ar
     7    18    19   ar
     8    19    11    1
     9    11     9    1
    10     9     1    1
    11     1     2    1
    12     2     3    1
    13     3     4    1
    14     4    24    1
    15    24    25    1
    16    25    26    1
    17    25    27    1
    18    27    28    1
    19    28    29   ar
    20    29    30    2
    21    29    31   ar
    22    31    32   ar
    23    32    33   ar
    24    33    34   ar
    25    34    35   ar
    26    35    36   ar
    27    36    37    1
    28    36    38   ar
    29    38    39   ar
    30     4     5    1
    31     5     6    1
    32     4     7    1
    33     7     8    1
    34    19    20   ar
    35    20    21   ar
    36    21    22    1
    37    22    13   am
    38    21    16   ar
    39     6     1    1
    40     8     1    1
    41    38    25    1
    42    39    28   ar
    43    39    33   ar
    44     9    10    1
    45    22    23    1
@<TRIPOS>MOLECULE
*****
 39 45 0 0 0
SMALL
GASTEIGER

@<TRIPOS>ATOM
      1 C          -0.5790    3.1149   22.5163 C.3     1  UNL1        0.0700
      2 C           0.8024    2.5861   22.7654 C.3     1  UNL1        0.0193
      3 C           1.5114    1.8077   21.6970 C.3     1  UNL1        0.0287
      4 C           0.8389    1.5582   20.3795 C.3     1  UNL1        0.0958
      5 C          -0.5425    2.0870   20.1304 C.3     1  UNL1        0.0287
      6 C          -1.2514    2.8654   21.1989 C.3     1  UNL1        0.0193
      7 O           0.4106    1.9901   20.9344 O.3     1  UNL1       -0.3571
      8 C          -0.2304    2.6938   21.9005 C.3     1  UNL1        0.1562
      9 N          -1.2880    3.8933   23.5847 N.3     1  UNL1       -0.2926
     10 H          -0.5780    4.1868   24.2556 H       1  UNL1        0.1236
     11 C          -2.3903    3.2513   24.3739 C.3     1  UNL1        0.1152
     12 O          -8.7332    7.1288   26.7153 O.2     1  UNL1       -0.2707
     13 C          -8.0423    6.2537   25.7119 C.2     1  UNL1        0.2718
     14 C          -8.7748    5.7960   24.4856 C.3     1  UNL1        0.2898
     15 O          -8.0839    4.9209   23.4821 O.3     1  UNL1       -0.4628
     16 C          -6.6605    4.5035   23.7051 C.ar    1  UNL1        0.1708
     17 C          -5.9696    3.6284   22.7017 C.ar    1  UNL1        0.0411
     18 C          -4.5462    3.2110   22.9246 C.ar    1  UNL1        0.0193
     19 C          -3.8137    3.6687   24.1510 C.ar    1  UNL1        0.0765
     20 N          -4.5046    4.5438   25.1544 N.ar    1  UNL1       -0.2304
     21 C          -5.9280    4.9612   24.9314 C.ar    1  UNL1        0.1682
     22 N          -6.6189    5.8363   25.9348 N.am    1  UNL1       -0.2639
     23 H          -6.1381    6.1367   26.7397 H       1  UNL1        0.1565
     24 C           1.5480    0.7798   19.3111 C.3     1  UNL1        0.0661
     25 C           2.2254   -0.5147   19.6508 C.3     1  UNL1        0.1790
     26 F           0.8842   -0.8885   20.2087 F       1  UNL1       -0.2333
     27 C           2.6225   -1.8873   20.1071 C.3     1  UNL1        0.1459
     28 N           4.0675   -2.0913   19.7601 N.ar    1  UNL1       -0.2912
     29 C           4.9957   -3.2510   19.9683 C.ar    1  UNL1        0.2611
     30 O           4.4996   -4.4976   20.6390 O.2     1  UNL1       -0.2670
     31 C           6.4199   -3.1641   19.5057 C.ar    1  UNL1        0.0623
     32 C           6.9159   -1.9175   18.8350 C.ar    1  UNL1        0.0254
     33 C           5.9877   -0.7578   18.6268 C.ar    1  UNL1        0.0972
     34 N           6.2057    0.5930   17.9956 N.ar    1  UNL1       -0.2400
     35 C           5.1667    1.6659   17.8570 C.ar    1  UNL1        0.1282
     36 C           3.7763    1.4343   18.3701 C.ar    1  UNL1        0.1591
     37 F           2.7373    2.5072   18.2314 F       1  UNL1       -0.2027
     38 C           3.4250    0.1297   19.0218 C.ar    1  UNL1        0.0553
     39 C           4.5635   -0.8446   19.0894 C.ar    1  UNL1        0.0809
@<TRIPOS>BOND
     1    12    13    2
     2    13    14    1
     3    14    15    1
     4    15    16    1
     5    16    17   ar
     6    17    18   ar
     7    18    19   ar
     8    19    11    1
     9    11     9    1
    10     9     1    1
    11     1     2    1
    12     2     3    1
    13     3     4    1
    14     4    24    1
    15    24    25    1
    16    25    26    1
    17    25    27    1
    18    27    28    1
    19    28    29   ar
    20    29    30    2
    21    29    31   ar
    22    31    32   ar
    23    32    33   ar
    24    33    34   ar
    25    34    35   ar
    26    35    36   ar
    27    36    37    1
    28    36    38   ar
    29    38    39   ar
    30     4     5    1
    31     5     6    1
    32     4     7    1
    33     7     8    1
    34    19    20   ar
    35    20    21   ar
    36    21    22    1
    37    22    13   am
    38    21    16   ar
    39     6     1    1
    40     8     1    1
    41    38    25    1
    42    39    28   ar
    43    39    33   ar
    44     9    10    1
    45    22    23    1
@<TRIPOS>MOLECULE
*****
 39 45 0 0 0
SMALL
GASTEIGER

@<TRIPOS>ATOM
      1 C           5.0931   -2.3578   18.6250 C.3     1  UNL1        0.0700
      2 C           4.4092   -2.5986   19.9381 C.3     1  UNL1        0.0193
      3 C           5.2201   -2.7292   21.1933 C.3     1  UNL1        0.0287
      4 C           6.7150   -2.6190   21.1353 C.3     1  UNL1        0.0958
      5 C           7.3989   -2.3782   19.8222 C.3     1  UNL1        0.0287
      6 C           6.5879   -2.2476   18.5671 C.3     1  UNL1        0.0193
      7 O           6.3130   -2.5406   20.4210 O.3     1  UNL1       -0.3571
      8 C           5.5798   -2.4225   19.2861 C.3     1  UNL1        0.1562
      9 N           4.2822   -2.2272   17.3699 N.3     1  UNL1       -0.2926
     10 H           4.7860   -2.7311   16.6400 H       1  UNL1        0.1236
     11 C           3.9667   -0.8682   16.8189 C.3     1  UNL1        0.1152
     12 O          -1.6649    2.5433   20.9901 O.2     1  UNL1       -0.2707
     13 C          -0.2413    2.5012   20.5188 C.2     1  UNL1        0.2718
     14 C           0.7283    3.5543   20.9667 C.3     1  UNL1        0.2898
     15 O           2.1518    3.5124   20.4955 O.3     1  UNL1       -0.4628
     16 C           2.6055    2.4172   19.5763 C.ar    1  UNL1        0.1708
     17 C           4.0289    2.3752   19.1051 C.ar    1  UNL1        0.0411
     18 C           4.4826    1.2800   18.1859 C.ar    1  UNL1        0.0193
     19 C           3.5129    0.2269   17.7381 C.ar    1  UNL1        0.0765
     20 N           2.0895    0.2690   18.2093 N.ar    1  UNL1       -0.2304
     21 C           1.6358    1.3641   19.1284 C.ar    1  UNL1        0.1682
     22 N           0.2124    1.4061   19.5996 N.am    1  UNL1       -0.2639
     23 H          -0.4241    0.7149   19.3057 H       1  UNL1        0.1565
     24 C           7.5259   -2.7496   22.3904 C.3     1  UNL1        0.0661
     25 C           7.5630   -4.0559   23.1268 C.3     1  UNL1        0.1790
     26 F           7.9360   -4.6200   21.7880 F       1  UNL1       -0.2333
     27 C           7.6781   -5.4800   23.5834 C.3     1  UNL1        0.1459
     28 N           7.3685   -5.5230   25.0504 N.ar    1  UNL1       -0.2912
     29 C           7.3261   -6.6543   26.0345 C.ar    1  UNL1        0.2611
     30 O           7.6325   -8.0519   25.5843 O.2     1  UNL1       -0.2670
     31 C           6.9771   -6.3878   27.4688 C.ar    1  UNL1        0.0623
     32 C           6.6706   -4.9902   27.9190 C.ar    1  UNL1        0.0254
     33 C           6.7131   -3.8590   26.9349 C.ar    1  UNL1        0.0972
     34 N           6.4563   -2.3835   27.1002 N.ar    1  UNL1       -0.2400
     35 C           6.5381   -1.3589   26.0078 C.ar    1  UNL1        0.1282
     36 C           6.9011   -1.7765   24.6135 C.ar    1  UNL1        0.1591
     37 F           6.9829   -0.7519   23.5211 F       1  UNL1       -0.2027
     38 C           7.1823   -3.2187   24.3118 C.ar    1  UNL1        0.0553
     39 C           7.0620   -4.1254   25.5006 C.ar    1  UNL1        0.0809
@<TRIPOS>BOND
     1    12    13    2
     2    13    14    1
     3    14    15    1
     4    15    16    1
     5    16    17   ar
     6    17    18   ar
     7    18    19   ar
     8    19    11    1
     9    11     9    1
    10     9     1    1
    11     1     2    1
    12     2     3    1
    13     3     4    1
    14     4    24    1
    15    24    25    1
    16    25    26    1
    17    25    27    1
    18    27    28    1
    19    28    29   ar
    20    29    30    2
    21    29    31   ar
    22    31    32   ar
    23    32    33   ar
    24    33    34   ar
    25    34    35   ar
    26    35    36   ar
    27    36    37    1
    28    36    38   ar
    29    38    39   ar
    30     4     5    1
    31     5     6    1
    32     4     7    1
    33     7     8    1
    34    19    20   ar
    35    20    21   ar
    36    21    22    1
    37    22    13   am
    38    21    16   ar
    39     6     1    1
    40     8     1    1
    41    38    25    1
    42    39    28   ar
    43    39    33   ar
    44     9    10    1
    45    22    23    1
@<TRIPOS>MOLECULE
*****
 39 45 0 0 0
SMALL
GASTEIGER

@<TRIPOS>ATOM
      1 C           0.6708    3.0428   21.6824 C.3     1  UNL1        0.0700
      2 C          -0.2107    1.8999   21.2740 C.3     1  UNL1        0.0193
      3 C           0.3731    0.7251   20.5467 C.3     1  UNL1        0.0287
      4 C           1.8385    0.6933   20.2276 C.3     1  UNL1        0.0958
      5 C           2.7200    1.8362   20.6359 C.3     1  UNL1        0.0287
      6 C           2.1361    3.0109   21.3633 C.3     1  UNL1        0.0193
      7 O           1.5642    1.3585   20.6279 O.3     1  UNL1       -0.3571
      8 C           1.0363    2.4207   21.2855 C.3     1  UNL1        0.1562
      9 N           0.0869    4.2176   22.4097 N.3     1  UNL1       -0.2926
     10 H           0.2935    5.0438   21.8484 H       1  UNL1        0.1236
     11 C           0.5252    4.5254   23.8108 C.3     1  UNL1        0.1152
     12 O           2.4312   -1.0015   28.9656 O.2     1  UNL1       -0.2707
     13 C           1.4119   -0.0750   28.3715 C.2     1  UNL1        0.2718
     14 C           0.0089   -0.0645   28.9017 C.3     1  UNL1        0.2898
     15 O          -1.0104    0.8619   28.3077 O.3     1  UNL1       -0.4628
     16 C          -0.6265    1.7778   27.1835 C.ar    1  UNL1        0.1708
     17 C          -1.6457    2.7042   26.5894 C.ar    1  UNL1        0.0411
     18 C          -1.2618    3.6201   25.4652 C.ar    1  UNL1        0.0193
     19 C           0.1413    3.6095   24.9351 C.ar    1  UNL1        0.0765
     20 N           1.1605    2.6830   25.5291 N.ar    1  UNL1       -0.2304
     21 C           0.7766    1.7672   26.6533 C.ar    1  UNL1        0.1682
     22 N           1.7959    0.8408   27.2473 N.am    1  UNL1       -0.2639
     23 H           2.7168    0.8339   26.8993 H       1  UNL1        0.1565
     24 C           2.4224   -0.4815   19.5002 C.3     1  UNL1        0.0661
     25 C           3.3923   -1.3888   20.1974 C.3     1  UNL1        0.1790
     26 F           2.2712   -1.5761   21.1761 F       1  UNL1       -0.2333
     27 C           4.1279   -2.3352   21.0992 C.3     1  UNL1        0.1459
     28 N           5.5009   -2.5431   20.5320 N.ar    1  UNL1       -0.2912
     29 C           6.6628   -3.3716   20.9941 C.ar    1  UNL1        0.2611
     30 O           6.5498   -4.1895   22.2464 O.2     1  UNL1       -0.2670
     31 C           7.9377   -3.3821   20.2039 C.ar    1  UNL1        0.0623
     32 C           8.0507   -2.5642   18.9516 C.ar    1  UNL1        0.0254
     33 C           6.8888   -1.7358   18.4895 C.ar    1  UNL1        0.0972
     34 N           6.7200   -0.8340   17.2942 N.ar    1  UNL1       -0.2400
     35 C           5.4807   -0.0588   16.9579 C.ar    1  UNL1        0.1282
     36 C           4.2760   -0.1477   17.8473 C.ar    1  UNL1        0.1591
     37 F           3.0367    0.6275   17.5110 F       1  UNL1       -0.2027
     38 C           4.3107   -1.0118   19.0729 C.ar    1  UNL1        0.0553
     39 C           5.6139   -1.7252   19.2797 C.ar    1  UNL1        0.0809
@<TRIPOS>BOND
     1    12    13    2
     2    13    14    1
     3    14    15    1
     4    15    16    1
     5    16    17   ar
     6    17    18   ar
     7    18    19   ar
     8    19    11    1
     9    11     9    1
    10     9     1    1
    11     1     2    1
    12     2     3    1
    13     3     4    1
    14     4    24    1
    15    24    25    1
    16    25    26    1
    17    25    27    1
    18    27    28    1
    19    28    29   ar
    20    29    30    2
    21    29    31   ar
    22    31    32   ar
    23    32    33   ar
    24    33    34   ar
    25    34    35   ar
    26    35    36   ar
    27    36    37    1
    28    36    38   ar
    29    38    39   ar
    30     4     5    1
    31     5     6    1
    32     4     7    1
    33     7     8    1
    34    19    20   ar
    35    20    21   ar
    36    21    22    1
    37    22    13   am
    38    21    16   ar
    39     6     1    1
    40     8     1    1
    41    38    25    1
    42    39    28   ar
    43    39    33   ar
    44     9    10    1
    45    22    23    1
@<TRIPOS>MOLECULE
*****
 39 45 0 0 0
SMALL
GASTEIGER

@<TRIPOS>ATOM
      1 C           5.4977   -2.4241   18.2805 C.3     1  UNL1        0.0700
      2 C           6.7907   -1.7107   18.5436 C.3     1  UNL1        0.0193
      3 C           7.6491   -2.1178   19.7043 C.3     1  UNL1        0.0287
      4 C           7.2145   -3.2382   20.6021 C.3     1  UNL1        0.0958
      5 C           5.9215   -3.9515   20.3390 C.3     1  UNL1        0.0287
      6 C           5.0631   -3.5445   19.1782 C.3     1  UNL1        0.0193
      7 O           6.7107   -3.0508   19.9784 O.3     1  UNL1       -0.3571
      8 C           5.9345   -2.6828   18.9289 C.3     1  UNL1        0.1562
      9 N           4.6392   -2.0171   17.1197 N.3     1  UNL1       -0.2926
     10 H           5.2714   -1.7701   16.3583 H       1  UNL1        0.1236
     11 C           3.6714   -0.8804   17.2650 C.3     1  UNL1        0.1152
     12 O           4.8101    4.4423   22.8439 O.2     1  UNL1       -0.2707
     13 C           4.1114    3.2121   22.3452 C.2     1  UNL1        0.2718
     14 C           3.0938    2.5261   23.2075 C.3     1  UNL1        0.2898
     15 O           2.3951    1.2959   22.7088 O.3     1  UNL1       -0.4628
     16 C           2.7142    0.7519   21.3479 C.ar    1  UNL1        0.1708
     17 C           2.0155   -0.4782   20.8492 C.ar    1  UNL1        0.0411
     18 C           2.3346   -1.0223   19.4882 C.ar    1  UNL1        0.0193
     19 C           3.3524   -0.3362   18.6260 C.ar    1  UNL1        0.0765
     20 N           4.0510    0.8939   19.1247 N.ar    1  UNL1       -0.2304
     21 C           3.7319    1.4379   20.4856 C.ar    1  UNL1        0.1682
     22 N           4.4305    2.6681   20.9842 N.am    1  UNL1       -0.2639
     23 H           5.0985    3.1183   20.4182 H       1  UNL1        0.1565
     24 C           8.0730   -3.6452   21.7629 C.3     1  UNL1        0.0661
     25 C           7.5595   -3.4955   23.1643 C.3     1  UNL1        0.1790
     26 F           7.2310   -2.0988   22.7269 F       1  UNL1       -0.2333
     27 C           6.9774   -3.0538   24.4743 C.3     1  UNL1        0.1459
     28 N           7.0535   -4.2088   25.4283 N.ar    1  UNL1       -0.2912
     29 C           6.6312   -4.3576   26.8599 C.ar    1  UNL1        0.2611
     30 O           6.0020   -3.2021   27.5803 O.2     1  UNL1       -0.2670
     31 C           6.8380   -5.6620   27.5711 C.ar    1  UNL1        0.0623
     32 C           7.4671   -6.8175   26.8507 C.ar    1  UNL1        0.0254
     33 C           7.8895   -6.6687   25.4192 C.ar    1  UNL1        0.0972
     34 N           8.5337   -7.6394   24.4636 N.ar    1  UNL1       -0.2400
     35 C           8.9032   -7.3430   23.0404 C.ar    1  UNL1        0.1282
     36 C           8.6341   -5.9850   22.4630 C.ar    1  UNL1        0.1591
     37 F           9.0036   -5.6886   21.0398 F       1  UNL1       -0.2027
     38 C           7.9954   -4.9235   23.3087 C.ar    1  UNL1        0.0553
     39 C           7.6826   -5.3644   24.7080 C.ar    1  UNL1        0.0809
@<TRIPOS>BOND
     1    12    13    2
     2    13    14    1
     3    14    15    1
     4    15    16    1
     5    16    17   ar
     6    17    18   ar
     7    18    19   ar
     8    19    11    1
     9    11     9    1
    10     9     1    1
    11     1     2    1
    12     2     3    1
    13     3     4    1
    14     4    24    1
    15    24    25    1
    16    25    26    1
    17    25    27    1
    18    27    28    1
    19    28    29   ar
    20    29    30    2
    21    29    31   ar
    22    31    32   ar
    23    32    33   ar
    24    33    34   ar
    25    34    35   ar
    26    35    36   ar
    27    36    37    1
    28    36    38   ar
    29    38    39   ar
    30     4     5    1
    31     5     6    1
    32     4     7    1
    33     7     8    1
    34    19    20   ar
    35    20    21   ar
    36    21    22    1
    37    22    13   am
    38    21    16   ar
    39     6     1    1
    40     8     1    1
    41    38    25    1
    42    39    28   ar
    43    39    33   ar
    44     9    10    1
    45    22    23    1
@<TRIPOS>MOLECULE
*****
 39 45 0 0 0
SMALL
GASTEIGER

@<TRIPOS>ATOM
      1 C           7.1714   -3.5130   32.2145 C.3     1  UNL1        0.0700
      2 C           8.1142   -2.3726   32.4609 C.3     1  UNL1        0.0193
      3 C           7.5946   -1.0731   33.0005 C.3     1  UNL1        0.0287
      4 C           6.1321   -0.9139   33.2937 C.3     1  UNL1        0.0958
      5 C           5.1893   -2.0543   33.0473 C.3     1  UNL1        0.0287
      6 C           5.7090   -3.3538   32.5077 C.3     1  UNL1        0.0193
      7 O           6.3701   -1.6449   32.9990 O.3     1  UNL1       -0.3571
      8 C           6.8399   -2.8200   32.5111 C.3     1  UNL1        0.1562
      9 N           7.6910   -4.8125   31.6749 N.3     1  UNL1       -0.2926
     10 H           8.5892   -4.6108   31.2354 H       1  UNL1        0.1236
     11 C           6.8836   -5.5857   30.6748 C.3     1  UNL1        0.1152
     12 O           8.4108   -7.3850   23.2464 O.2     1  UNL1       -0.2707
     13 C           7.9351   -6.4003   24.2732 C.2     1  UNL1        0.2718
     14 C           7.4928   -5.0308   23.8505 C.3     1  UNL1        0.2898
     15 O           7.0170   -4.0461   24.8772 O.3     1  UNL1       -0.4628
     16 C           6.9837   -4.4310   26.3266 C.ar    1  UNL1        0.1708
     17 C           6.5080   -3.4464   27.3533 C.ar    1  UNL1        0.0411
     18 C           6.4746   -3.8313   28.8027 C.ar    1  UNL1        0.0193
     19 C           6.9170   -5.2009   29.2254 C.ar    1  UNL1        0.0765
     20 N           7.3927   -6.1855   28.1986 N.ar    1  UNL1       -0.2304
     21 C           7.4260   -5.8006   26.7492 C.ar    1  UNL1        0.1682
     22 N           7.9017   -6.7852   25.7226 N.am    1  UNL1       -0.2639
     23 H           8.1920   -7.6841   26.0000 H       1  UNL1        0.1565
     24 C           5.6125    0.3857   33.8333 C.3     1  UNL1        0.0661
     25 C           5.0862    0.4585   35.2361 C.3     1  UNL1        0.1790
     26 F           6.0019   -0.7058   35.4724 F       1  UNL1       -0.2333
     27 C           4.7514    0.2879   36.6882 C.3     1  UNL1        0.1459
     28 N           3.7387    1.3316   37.0562 N.ar    1  UNL1       -0.2912
     29 C           3.0441    1.6446   38.3482 C.ar    1  UNL1        0.2611
     30 O           3.3351    0.8290   39.5730 O.2     1  UNL1       -0.2670
     31 C           2.0584    2.7732   38.4155 C.ar    1  UNL1        0.0623
     32 C           1.7674    3.5888   37.1907 C.ar    1  UNL1        0.0254
     33 C           2.4620    3.2758   35.8986 C.ar    1  UNL1        0.0972
     34 N           2.3686    3.9131   34.5365 N.ar    1  UNL1       -0.2400
     35 C           3.1365    3.4845   33.3214 C.ar    1  UNL1        0.1282
     36 C           4.0925    2.3317   33.4064 C.ar    1  UNL1        0.1591
     37 F           4.8604    1.9030   32.1913 F       1  UNL1       -0.2027
     38 C           4.2805    1.6075   34.7065 C.ar    1  UNL1        0.0553
     39 C           3.4477    2.1472   35.8314 C.ar    1  UNL1        0.0809
@<TRIPOS>BOND
     1    12    13    2
     2    13    14    1
     3    14    15    1
     4    15    16    1
     5    16    17   ar
     6    17    18   ar
     7    18    19   ar
     8    19    11    1
     9    11     9    1
    10     9     1    1
    11     1     2    1
    12     2     3    1
    13     3     4    1
    14     4    24    1
    15    24    25    1
    16    25    26    1
    17    25    27    1
    18    27    28    1
    19    28    29   ar
    20    29    30    2
    21    29    31   ar
    22    31    32   ar
    23    32    33   ar
    24    33    34   ar
    25    34    35   ar
    26    35    36   ar
    27    36    37    1
    28    36    38   ar
    29    38    39   ar
    30     4     5    1
    31     5     6    1
    32     4     7    1
    33     7     8    1
    34    19    20   ar
    35    20    21   ar
    36    21    22    1
    37    22    13   am
    38    21    16   ar
    39     6     1    1
    40     8     1    1
    41    38    25    1
    42    39    28   ar
    43    39    33   ar
    44     9    10    1
    45    22    23    1
