@<TRIPOS>MOLECULE
*****
 46 50 0 0 0
SMALL
GASTEIGER

@<TRIPOS>ATOM
      1 O           5.5258   -4.4503   22.4263 O.2     1  UNL1       -0.1499
      2 S           6.4326   -3.4592   23.0935 S.O2    1  UNL1        0.0736
      3 O           7.3394   -2.4680   23.7607 O.2     1  UNL1       -0.1499
      4 C           5.3406   -2.4316   23.0514 C.ar    1  UNL1        0.1252
      5 C           4.6262   -2.0443   24.3122 C.ar    1  UNL1        0.0202
      6 C           3.5342   -1.0168   24.2701 C.ar    1  UNL1        0.0034
      7 C           3.1566   -0.3767   22.9672 C.ar    1  UNL1        0.0239
      8 C           3.8710   -0.7640   21.7064 C.ar    1  UNL1        0.0034
      9 C           4.9630   -1.7915   21.7485 C.ar    1  UNL1        0.0202
     10 C           2.0646    0.6509   22.9251 C.ar    1  UNL1        0.1107
     11 N           1.1393    1.0009   24.0526 N.ar    1  UNL1       -0.2383
     12 C           0.2090    2.0751   23.5723 C.ar    1  UNL1        0.0883
     13 C           0.5594    2.3891   22.1480 C.ar    1  UNL1        0.0560
     14 S           1.7062    1.5088   21.7480 S.2     1  UNL1       -0.0659
     15 C          -0.8803    2.7219   24.3754 C.ar    1  UNL1        0.0182
     16 C          -1.8584    3.6426   23.7080 C.ar    1  UNL1        0.0015
     17 C          -2.9478    4.2894   24.5110 C.ar    1  UNL1        0.0039
     18 C          -3.0590    4.0154   25.9816 C.ar    1  UNL1        0.0714
     19 C          -2.0810    3.0947   26.6491 C.ar    1  UNL1        0.0039
     20 C          -0.9916    2.4479   25.8460 C.ar    1  UNL1        0.0015
     21 C          -4.1484    4.6622   26.7847 C.3     1  UNL1        0.4186
     22 F          -5.2378    5.3090   27.5878 F       1  UNL1       -0.1659
     23 F          -3.1187    5.4068   27.5818 F       1  UNL1       -0.1659
     24 F          -5.1780    3.9176   25.9876 F       1  UNL1       -0.1659
     25 N           7.5246   -4.4866   23.1357 N.pl3   1  UNL1       -0.2150
     26 H           8.1968   -4.5203   22.4172 H       1  UNL1        0.1737
     27 C           7.5924   -5.4629   24.2725 C.ar    1  UNL1        0.0648
     28 C           6.9872   -5.1121   25.5994 C.ar    1  UNL1        0.0155
     29 C           7.0550   -6.0884   26.7362 C.ar    1  UNL1       -0.0029
     30 C           7.7280   -7.4154   26.5461 C.ar    1  UNL1       -0.0207
     31 C           8.3332   -7.7661   25.2192 C.ar    1  UNL1       -0.0029
     32 C           8.2654   -6.7899   24.0824 C.ar    1  UNL1        0.0155
     33 C           7.7958   -8.3916   27.6830 C.3     1  UNL1        0.0434
     34 C           8.7006   -9.5847   27.5941 C.3     1  UNL1        0.0734
     35 N           8.1407  -10.9653   27.7690 N.3     1  UNL1       -0.2949
     36 H           8.6679  -11.4033   28.5244 H       1  UNL1        0.1233
     37 C           6.6875  -11.1500   28.0913 C.3     1  UNL1        0.1029
     38 C           6.1833  -12.4893   28.5406 C.3     1  UNL1        0.1499
     39 O           7.1169  -13.4583   29.2036 O.3     1  UNL1       -0.3786
     40 H           6.6346  -14.2690   29.4295 H       1  UNL1        0.2108
     41 C           4.7455  -12.8597   28.3271 C.ar    1  UNL1        0.0248
     42 C           3.6911  -12.3417   29.2597 C.ar    1  UNL1        0.0012
     43 C           2.2533  -12.7120   29.0462 C.ar    1  UNL1        0.0204
     44 C           1.8700  -13.6005   27.9001 C.ar    1  UNL1        0.0989
     45 N           2.9244  -14.1185   26.9674 N.ar    1  UNL1       -0.2426
     46 C           4.3622  -13.7482   27.1809 C.ar    1  UNL1        0.0969
@<TRIPOS>BOND
     1     1     2    2
     2     2     3    2
     3     2    25    1
     4    25    27    1
     5    27    28   ar
     6    28    29   ar
     7    29    30   ar
     8    30    33    1
     9    33    34    1
    10    34    35    1
    11    35    37    1
    12    37    38    1
    13    38    39    1
    14    38    41    1
    15    41    42   ar
    16    42    43   ar
    17    43    44   ar
    18    44    45   ar
    19    45    46   ar
    20    30    31   ar
    21    31    32   ar
    22     2     4    1
    23     4     5   ar
    24     5     6   ar
    25     6     7   ar
    26     7    10    1
    27    10    11   ar
    28    11    12   ar
    29    12    15    1
    30    15    16   ar
    31    16    17   ar
    32    17    18   ar
    33    18    21    1
    34    21    22    1
    35    21    23    1
    36    21    24    1
    37    18    19   ar
    38    19    20   ar
    39    12    13   ar
    40    13    14   ar
    41     7     8   ar
    42     8     9   ar
    43    32    27   ar
    44     9     4   ar
    45    46    41   ar
    46    14    10   ar
    47    20    15   ar
    48    25    26    1
    49    35    36    1
    50    39    40    1
@<TRIPOS>MOLECULE
*****
 46 50 0 0 0
SMALL
GASTEIGER

@<TRIPOS>ATOM
      1 O           8.5839   -6.1387   28.6006 O.2     1  UNL1       -0.1499
      2 S           7.1196   -5.9740   28.3201 S.O2    1  UNL1        0.0736
      3 O           5.6553   -5.8093   28.0395 O.2     1  UNL1       -0.1499
      4 C           7.0288   -4.9385   29.4016 C.ar    1  UNL1        0.1252
      5 C           7.0009   -3.4818   29.0447 C.ar    1  UNL1        0.0202
      6 C           6.9101   -2.4463   30.1261 C.ar    1  UNL1        0.0034
      7 C           6.8471   -2.8675   31.5644 C.ar    1  UNL1        0.0239
      8 C           6.8750   -4.3242   31.9212 C.ar    1  UNL1        0.0034
      9 C           6.9658   -5.3597   30.8398 C.ar    1  UNL1        0.0202
     10 C           6.7563   -1.8320   32.6459 C.ar    1  UNL1        0.1107
     11 N           5.5102   -1.4264   33.3758 N.ar    1  UNL1       -0.2383
     12 C           5.8794   -0.3641   34.3683 C.ar    1  UNL1        0.0883
     13 C           7.3538   -0.1131   34.2518 C.ar    1  UNL1        0.0560
     14 S           7.8956   -1.0203   33.1872 S.2     1  UNL1       -0.0659
     15 C           4.9394    0.3261   35.3117 C.ar    1  UNL1        0.0182
     16 C           5.0247    0.0582   36.7851 C.ar    1  UNL1        0.0015
     17 C           4.0848    0.7484   37.7286 C.ar    1  UNL1        0.0039
     18 C           3.0595    1.7065   37.1985 C.ar    1  UNL1        0.0714
     19 C           2.9742    1.9744   35.7252 C.ar    1  UNL1        0.0039
     20 C           3.9142    1.2842   34.7817 C.ar    1  UNL1        0.0015
     21 C           2.1195    2.3967   38.1419 C.3     1  UNL1        0.4186
     22 F           1.1794    3.0869   39.0854 F       1  UNL1       -0.1659
     23 F           2.5678    3.7276   37.6149 F       1  UNL1       -0.1659
     24 F           1.6712    1.0659   38.6689 F       1  UNL1       -0.1659
     25 N           7.2104   -7.0094   27.2386 N.pl3   1  UNL1       -0.2150
     26 H           7.0143   -7.9525   27.4424 H       1  UNL1        0.1737
     27 C           7.5998   -6.6081   25.8467 C.ar    1  UNL1        0.0648
     28 C           8.2845   -7.5929   24.9461 C.ar    1  UNL1        0.0155
     29 C           8.6739   -7.1915   23.5542 C.ar    1  UNL1       -0.0029
     30 C           8.3786   -5.8053   23.0631 C.ar    1  UNL1       -0.0207
     31 C           7.6939   -4.8205   23.9637 C.ar    1  UNL1       -0.0029
     32 C           7.3045   -5.2219   25.3556 C.ar    1  UNL1        0.0155
     33 C           8.7680   -5.4039   21.6712 C.3     1  UNL1        0.0434
     34 C           7.9874   -4.3457   20.9496 C.3     1  UNL1        0.0734
     35 N           6.5992   -4.6388   20.4624 N.3     1  UNL1       -0.2949
     36 H           6.2202   -5.3636   21.0718 H       1  UNL1        0.1233
     37 C           5.5771   -3.5425   20.4058 C.3     1  UNL1        0.1029
     38 C           4.5959   -3.4897   19.2725 C.3     1  UNL1        0.1499
     39 O           4.3722   -4.7014   18.4171 O.3     1  UNL1       -0.3786
     40 H           3.7120   -4.4989   17.7360 H       1  UNL1        0.2108
     41 C           3.8382   -2.2253   18.9947 C.ar    1  UNL1        0.0248
     42 C           2.7772   -1.7618   19.9483 C.ar    1  UNL1        0.0012
     43 C           2.0195   -0.4974   19.6705 C.ar    1  UNL1        0.0204
     44 C           2.3229    0.3035   18.4391 C.ar    1  UNL1        0.0989
     45 N           3.3840   -0.1599   17.4855 N.ar    1  UNL1       -0.2426
     46 C           4.1416   -1.4243   17.7633 C.ar    1  UNL1        0.0969
@<TRIPOS>BOND
     1     1     2    2
     2     2     3    2
     3     2    25    1
     4    25    27    1
     5    27    28   ar
     6    28    29   ar
     7    29    30   ar
     8    30    33    1
     9    33    34    1
    10    34    35    1
    11    35    37    1
    12    37    38    1
    13    38    39    1
    14    38    41    1
    15    41    42   ar
    16    42    43   ar
    17    43    44   ar
    18    44    45   ar
    19    45    46   ar
    20    30    31   ar
    21    31    32   ar
    22     2     4    1
    23     4     5   ar
    24     5     6   ar
    25     6     7   ar
    26     7    10    1
    27    10    11   ar
    28    11    12   ar
    29    12    15    1
    30    15    16   ar
    31    16    17   ar
    32    17    18   ar
    33    18    21    1
    34    21    22    1
    35    21    23    1
    36    21    24    1
    37    18    19   ar
    38    19    20   ar
    39    12    13   ar
    40    13    14   ar
    41     7     8   ar
    42     8     9   ar
    43    32    27   ar
    44     9     4   ar
    45    46    41   ar
    46    14    10   ar
    47    20    15   ar
    48    25    26    1
    49    35    36    1
    50    39    40    1
@<TRIPOS>MOLECULE
*****
 46 50 0 0 0
SMALL
GASTEIGER

@<TRIPOS>ATOM
      1 O           8.9189   -4.1055   22.9285 O.2     1  UNL1       -0.1499
      2 S           7.4339   -4.2651   22.7891 S.O2    1  UNL1        0.0736
      3 O           5.9490   -4.4246   22.6496 O.2     1  UNL1       -0.1499
      4 C           7.2915   -4.2448   24.2822 C.ar    1  UNL1        0.1252
      5 C           7.5018   -5.5021   25.0728 C.ar    1  UNL1        0.0202
      6 C           7.3594   -5.4819   26.5658 C.ar    1  UNL1        0.0034
      7 C           7.0067   -4.2045   27.2683 C.ar    1  UNL1        0.0239
      8 C           6.7963   -2.9472   26.4778 C.ar    1  UNL1        0.0034
      9 C           6.9387   -2.9674   24.9847 C.ar    1  UNL1        0.0202
     10 C           6.8642   -4.1842   28.7615 C.ar    1  UNL1        0.1107
     11 N           6.4405   -3.0085   29.5909 N.ar    1  UNL1       -0.2383
     12 C           6.4349   -3.4338   31.0293 C.ar    1  UNL1        0.0883
     13 C           6.8552   -4.8726   31.0889 C.ar    1  UNL1        0.0560
     14 S           7.1206   -5.3363   29.6873 S.2     1  UNL1       -0.0659
     15 C           6.0727   -2.5718   32.2022 C.ar    1  UNL1        0.0182
     16 C           4.6928   -2.6413   32.7861 C.ar    1  UNL1        0.0015
     17 C           4.3304   -1.7793   33.9591 C.ar    1  UNL1        0.0039
     18 C           5.3482   -0.8479   34.5480 C.ar    1  UNL1        0.0714
     19 C           6.7280   -0.7784   33.9641 C.ar    1  UNL1        0.0039
     20 C           7.0903   -1.6404   32.7912 C.ar    1  UNL1        0.0015
     21 C           4.9859    0.0141   35.7210 C.3     1  UNL1        0.4186
     22 F           4.6236    0.8761   36.8939 F       1  UNL1       -0.1659
     23 F           3.8764    0.6331   34.9234 F       1  UNL1       -0.1659
     24 F           6.0953   -0.6049   36.5184 F       1  UNL1       -0.1659
     25 N           7.5763   -4.2853   21.2960 N.pl3   1  UNL1       -0.2150
     26 H           8.0809   -5.0091   20.8594 H       1  UNL1        0.1737
     27 C           6.9498   -3.2026   20.4681 C.ar    1  UNL1        0.0648
     28 C           5.9761   -3.5564   19.3833 C.ar    1  UNL1        0.0155
     29 C           5.3497   -2.4738   18.5555 C.ar    1  UNL1       -0.0029
     30 C           5.6969   -1.0373   18.8124 C.ar    1  UNL1       -0.0207
     31 C           6.6706   -0.6835   19.8971 C.ar    1  UNL1       -0.0029
     32 C           7.2970   -1.7661   20.7250 C.ar    1  UNL1        0.0155
     33 C           5.0704    0.0454   17.9845 C.3     1  UNL1        0.0434
     34 C           3.6136   -0.0262   17.6344 C.3     1  UNL1        0.0734
     35 N           2.6483    0.9505   18.2382 N.3     1  UNL1       -0.2949
     36 H           2.5370    1.7087   17.5651 H       1  UNL1        0.1233
     37 C           1.2681    0.5031   18.6185 C.3     1  UNL1        0.1029
     38 C           0.9498    0.1876   20.0500 C.3     1  UNL1        0.1499
     39 O          -0.4773    0.1500   20.5104 O.3     1  UNL1       -0.3786
     40 H          -0.5066   -0.0670   21.4553 H       1  UNL1        0.2108
     41 C           2.0587   -0.0904   21.0212 C.ar    1  UNL1        0.0248
     42 C           2.7256   -1.4339   21.0336 C.ar    1  UNL1        0.0012
     43 C           3.8345   -1.7119   22.0047 C.ar    1  UNL1        0.0204
     44 C           4.2764   -0.6463   22.9635 C.ar    1  UNL1        0.0989
     45 N           3.6095    0.6972   22.9510 N.ar    1  UNL1       -0.2426
     46 C           2.5007    0.9752   21.9799 C.ar    1  UNL1        0.0969
@<TRIPOS>BOND
     1     1     2    2
     2     2     3    2
     3     2    25    1
     4    25    27    1
     5    27    28   ar
     6    28    29   ar
     7    29    30   ar
     8    30    33    1
     9    33    34    1
    10    34    35    1
    11    35    37    1
    12    37    38    1
    13    38    39    1
    14    38    41    1
    15    41    42   ar
    16    42    43   ar
    17    43    44   ar
    18    44    45   ar
    19    45    46   ar
    20    30    31   ar
    21    31    32   ar
    22     2     4    1
    23     4     5   ar
    24     5     6   ar
    25     6     7   ar
    26     7    10    1
    27    10    11   ar
    28    11    12   ar
    29    12    15    1
    30    15    16   ar
    31    16    17   ar
    32    17    18   ar
    33    18    21    1
    34    21    22    1
    35    21    23    1
    36    21    24    1
    37    18    19   ar
    38    19    20   ar
    39    12    13   ar
    40    13    14   ar
    41     7     8   ar
    42     8     9   ar
    43    32    27   ar
    44     9     4   ar
    45    46    41   ar
    46    14    10   ar
    47    20    15   ar
    48    25    26    1
    49    35    36    1
    50    39    40    1
@<TRIPOS>MOLECULE
*****
 46 50 0 0 0
SMALL
GASTEIGER

@<TRIPOS>ATOM
      1 O           3.3164   -0.8952   32.3012 O.2     1  UNL1       -0.1499
      2 S           3.1679    0.5944   32.2078 S.O2    1  UNL1        0.0736
      3 O           3.0194    2.0841   32.1144 O.2     1  UNL1       -0.1499
      4 C           3.1567    0.4995   30.7108 C.ar    1  UNL1        0.1252
      5 C           2.5751    1.6144   29.8930 C.ar    1  UNL1        0.0202
      6 C           2.5639    1.5195   28.3961 C.ar    1  UNL1        0.0034
      7 C           3.1343    0.3098   27.7170 C.ar    1  UNL1        0.0239
      8 C           3.7159   -0.8050   28.5348 C.ar    1  UNL1        0.0034
      9 C           3.7271   -0.7102   30.0317 C.ar    1  UNL1        0.0202
     10 C           3.1232    0.2149   26.2200 C.ar    1  UNL1        0.1107
     11 N           3.5145   -0.9852   25.4096 N.ar    1  UNL1       -0.2383
     12 C           3.3519   -0.6383   23.9594 C.ar    1  UNL1        0.0883
     13 C           2.8600    0.7762   23.8734 C.ar    1  UNL1        0.0560
     14 S           2.7187    1.3035   25.2705 S.2     1  UNL1       -0.0659
     15 C           3.6319   -1.5465   22.7989 C.ar    1  UNL1        0.0182
     16 C           4.4934   -2.7599   22.9870 C.ar    1  UNL1        0.0015
     17 C           4.7735   -3.6681   21.8265 C.ar    1  UNL1        0.0039
     18 C           4.1920   -3.3628   20.4778 C.ar    1  UNL1        0.0714
     19 C           3.3305   -2.1494   20.2897 C.ar    1  UNL1        0.0039
     20 C           3.0505   -1.2412   21.4503 C.ar    1  UNL1        0.0015
     21 C           4.4720   -4.2709   19.3173 C.3     1  UNL1        0.4186
     22 F           4.7521   -5.1791   18.1568 F       1  UNL1       -0.1659
     23 F           5.8700   -4.4809   19.8189 F       1  UNL1       -0.1659
     24 F           3.0741   -4.0610   18.8157 F       1  UNL1       -0.1659
     25 N           3.1791    0.6894   33.7047 N.pl3   1  UNL1       -0.2150
     26 H           2.3387    0.8413   34.1946 H       1  UNL1        0.1737
     27 C           4.4706    0.5529   34.4553 C.ar    1  UNL1        0.0648
     28 C           4.4937   -0.1312   35.7900 C.ar    1  UNL1        0.0155
     29 C           5.7852   -0.2677   36.5405 C.ar    1  UNL1       -0.0029
     30 C           7.0537    0.2799   35.9564 C.ar    1  UNL1       -0.0207
     31 C           7.0306    0.9639   34.6217 C.ar    1  UNL1       -0.0029
     32 C           5.7390    1.1004   33.8712 C.ar    1  UNL1        0.0155
     33 C           8.3452    0.1433   36.7069 C.3     1  UNL1        0.0434
     34 C           8.8222    1.2596   37.5881 C.3     1  UNL1        0.0734
     35 N           7.9721    1.7279   38.7318 N.3     1  UNL1       -0.2949
     36 H           8.6079    1.9676   39.4925 H       1  UNL1        0.1233
     37 C           7.0514    2.8983   38.5519 C.3     1  UNL1        0.1029
     38 C           5.6053    2.7805   38.9325 C.3     1  UNL1        0.1499
     39 O           5.2258    2.4674   40.3495 O.3     1  UNL1       -0.3786
     40 H           4.2595    2.4272   40.4241 H       1  UNL1        0.2108
     41 C           4.5387    2.9756   37.8960 C.ar    1  UNL1        0.0248
     42 C           4.8695    3.6486   36.5969 C.ar    1  UNL1        0.0012
     43 C           3.8029    3.8437   35.5604 C.ar    1  UNL1        0.0204
     44 C           2.4055    3.3660   35.8231 C.ar    1  UNL1        0.0989
     45 N           2.0747    2.6931   37.1223 N.ar    1  UNL1       -0.2426
     46 C           3.1413    2.4979   38.1587 C.ar    1  UNL1        0.0969
@<TRIPOS>BOND
     1     1     2    2
     2     2     3    2
     3     2    25    1
     4    25    27    1
     5    27    28   ar
     6    28    29   ar
     7    29    30   ar
     8    30    33    1
     9    33    34    1
    10    34    35    1
    11    35    37    1
    12    37    38    1
    13    38    39    1
    14    38    41    1
    15    41    42   ar
    16    42    43   ar
    17    43    44   ar
    18    44    45   ar
    19    45    46   ar
    20    30    31   ar
    21    31    32   ar
    22     2     4    1
    23     4     5   ar
    24     5     6   ar
    25     6     7   ar
    26     7    10    1
    27    10    11   ar
    28    11    12   ar
    29    12    15    1
    30    15    16   ar
    31    16    17   ar
    32    17    18   ar
    33    18    21    1
    34    21    22    1
    35    21    23    1
    36    21    24    1
    37    18    19   ar
    38    19    20   ar
    39    12    13   ar
    40    13    14   ar
    41     7     8   ar
    42     8     9   ar
    43    32    27   ar
    44     9     4   ar
    45    46    41   ar
    46    14    10   ar
    47    20    15   ar
    48    25    26    1
    49    35    36    1
    50    39    40    1
@<TRIPOS>MOLECULE
*****
 46 50 0 0 0
SMALL
GASTEIGER

@<TRIPOS>ATOM
      1 O           0.1466    0.7642   21.4971 O.2     1  UNL1       -0.1499
      2 S           0.5326    2.2023   21.6781 S.O2    1  UNL1        0.0736
      3 O           0.9186    3.6404   21.8590 O.2     1  UNL1       -0.1499
      4 C           0.3994    2.0511   23.1645 C.ar    1  UNL1        0.1252
      5 C           1.3221    1.1335   23.9106 C.ar    1  UNL1        0.0202
      6 C           1.1890    0.9822   25.3970 C.ar    1  UNL1        0.0034
      7 C           0.1333    1.7485   26.1373 C.ar    1  UNL1        0.0239
      8 C          -0.7894    2.6661   25.3912 C.ar    1  UNL1        0.0034
      9 C          -0.6563    2.8174   23.9048 C.ar    1  UNL1        0.0202
     10 C           0.0001    1.5973   27.6237 C.ar    1  UNL1        0.1107
     11 N           0.6915    2.4324   28.6604 N.ar    1  UNL1       -0.2383
     12 C           0.2709    1.9356   30.0118 C.ar    1  UNL1        0.0883
     13 C          -0.6805    0.7934   29.8103 C.ar    1  UNL1        0.0560
     14 S          -0.8478    0.5844   28.3345 S.2     1  UNL1       -0.0659
     15 C           0.7223    2.4845   31.3327 C.ar    1  UNL1        0.0182
     16 C           1.6872    1.7069   32.1778 C.ar    1  UNL1        0.0015
     17 C           2.1386    2.2557   33.4987 C.ar    1  UNL1        0.0039
     18 C           1.6252    3.5824   33.9745 C.ar    1  UNL1        0.0714
     19 C           0.6603    4.3601   33.1295 C.ar    1  UNL1        0.0039
     20 C           0.2089    3.8112   31.8085 C.ar    1  UNL1        0.0015
     21 C           2.0766    4.1314   35.2955 C.3     1  UNL1        0.4186
     22 F           2.5281    4.6804   36.6164 F       1  UNL1       -0.1659
     23 F           0.8794    5.0345   35.3293 F       1  UNL1       -0.1659
     24 F           3.2738    3.2284   35.2616 F       1  UNL1       -0.1659
     25 N           0.6657    2.3536   20.1917 N.pl3   1  UNL1       -0.2150
     26 H           0.0031    2.8805   19.6892 H       1  UNL1        0.1737
     27 C           1.8085    1.7020   19.4708 C.ar    1  UNL1        0.0648
     28 C           3.2189    2.1115   19.7759 C.ar    1  UNL1        0.0155
     29 C           4.3616    1.4599   19.0550 C.ar    1  UNL1       -0.0029
     30 C           4.0939    0.3988   18.0292 C.ar    1  UNL1       -0.0207
     31 C           2.6835   -0.0107   17.7241 C.ar    1  UNL1       -0.0029
     32 C           1.5408    0.6409   18.4450 C.ar    1  UNL1        0.0155
     33 C           5.2367   -0.2528   17.3083 C.3     1  UNL1        0.0434
     34 C           6.4273   -0.7426   18.0779 C.3     1  UNL1        0.0734
     35 N           6.4122   -2.1111   18.6922 N.3     1  UNL1       -0.2949
     36 H           6.2781   -1.9822   19.6951 H       1  UNL1        0.1233
     37 C           5.3979   -3.1222   18.2462 C.3     1  UNL1        0.1029
     38 C           4.2286   -3.4501   19.1266 C.3     1  UNL1        0.1499
     39 O           3.0947   -4.2736   18.5918 O.3     1  UNL1       -0.3786
     40 H           2.4262   -4.3921   19.2846 H       1  UNL1        0.2108
     41 C           4.1931   -2.9544   20.5420 C.ar    1  UNL1        0.0248
     42 C           3.4490   -1.6960   20.8775 C.ar    1  UNL1        0.0012
     43 C           3.4135   -1.2003   22.2928 C.ar    1  UNL1        0.0204
     44 C           4.1221   -1.9631   23.3725 C.ar    1  UNL1        0.0989
     45 N           4.8662   -3.2216   23.0370 N.ar    1  UNL1       -0.2426
     46 C           4.9017   -3.7172   21.6218 C.ar    1  UNL1        0.0969
@<TRIPOS>BOND
     1     1     2    2
     2     2     3    2
     3     2    25    1
     4    25    27    1
     5    27    28   ar
     6    28    29   ar
     7    29    30   ar
     8    30    33    1
     9    33    34    1
    10    34    35    1
    11    35    37    1
    12    37    38    1
    13    38    39    1
    14    38    41    1
    15    41    42   ar
    16    42    43   ar
    17    43    44   ar
    18    44    45   ar
    19    45    46   ar
    20    30    31   ar
    21    31    32   ar
    22     2     4    1
    23     4     5   ar
    24     5     6   ar
    25     6     7   ar
    26     7    10    1
    27    10    11   ar
    28    11    12   ar
    29    12    15    1
    30    15    16   ar
    31    16    17   ar
    32    17    18   ar
    33    18    21    1
    34    21    22    1
    35    21    23    1
    36    21    24    1
    37    18    19   ar
    38    19    20   ar
    39    12    13   ar
    40    13    14   ar
    41     7     8   ar
    42     8     9   ar
    43    32    27   ar
    44     9     4   ar
    45    46    41   ar
    46    14    10   ar
    47    20    15   ar
    48    25    26    1
    49    35    36    1
    50    39    40    1
@<TRIPOS>MOLECULE
*****
 46 50 0 0 0
SMALL
GASTEIGER

@<TRIPOS>ATOM
      1 O           0.2138    0.7826   21.6394 O.2     1  UNL1       -0.1499
      2 S           0.8141    2.1459   21.8155 S.O2    1  UNL1        0.0736
      3 O           1.4145    3.5091   21.9915 O.2     1  UNL1       -0.1499
      4 C           0.8087    1.9562   23.3035 C.ar    1  UNL1        0.1252
      5 C           2.0106    1.3784   23.9903 C.ar    1  UNL1        0.0202
      6 C           2.0052    1.1887   25.4782 C.ar    1  UNL1        0.0034
      7 C           0.7979    1.5767   26.2793 C.ar    1  UNL1        0.0239
      8 C          -0.4040    2.1545   25.5925 C.ar    1  UNL1        0.0034
      9 C          -0.3986    2.3442   24.1046 C.ar    1  UNL1        0.0202
     10 C           0.7924    1.3870   27.7673 C.ar    1  UNL1        0.1107
     11 N           1.9705    0.9998   28.6111 N.ar    1  UNL1       -0.2383
     12 C           1.5141    0.9247   30.0379 C.ar    1  UNL1        0.0883
     13 C           0.0538    1.2656   30.0760 C.ar    1  UNL1        0.0560
     14 S          -0.3922    1.5513   28.6727 S.2     1  UNL1       -0.0659
     15 C           2.3680    0.5709   31.2194 C.ar    1  UNL1        0.0182
     16 C           3.1724   -0.6951   31.2109 C.ar    1  UNL1        0.0015
     17 C           4.0263   -1.0490   32.3923 C.ar    1  UNL1        0.0039
     18 C           4.0757   -0.1368   33.5821 C.ar    1  UNL1        0.0714
     19 C           3.2713    1.1292   33.5905 C.ar    1  UNL1        0.0039
     20 C           2.4174    1.4830   32.4091 C.ar    1  UNL1        0.0015
     21 C           4.9296   -0.4906   34.7635 C.3     1  UNL1        0.4186
     22 F           5.7835   -0.8444   35.9449 F       1  UNL1       -0.1659
     23 F           5.6908   -1.4699   33.9200 F       1  UNL1       -0.1659
     24 F           4.1684    0.4887   35.6069 F       1  UNL1       -0.1659
     25 N           0.8196    2.3356   20.3276 N.pl3   1  UNL1       -0.2150
     26 H           0.1041    2.8554   19.8950 H       1  UNL1        0.1737
     27 C           1.9153    1.7334   19.4987 C.ar    1  UNL1        0.0648
     28 C           1.6091    0.6103   18.5527 C.ar    1  UNL1        0.0155
     29 C           2.7047    0.0082   17.7239 C.ar    1  UNL1       -0.0029
     30 C           4.1065    0.5291   17.8410 C.ar    1  UNL1       -0.0207
     31 C           4.4126    1.6522   18.7870 C.ar    1  UNL1       -0.0029
     32 C           3.3170    2.2543   19.6158 C.ar    1  UNL1        0.0155
     33 C           5.2021   -0.0731   17.0122 C.3     1  UNL1        0.0434
     34 C           6.4136   -0.6545   17.6787 C.3     1  UNL1        0.0734
     35 N           6.6970   -2.1235   17.5701 N.3     1  UNL1       -0.2949
     36 H           7.7034   -2.2200   17.4346 H       1  UNL1        0.1233
     37 C           6.3210   -3.0449   18.6924 C.3     1  UNL1        0.1029
     38 C           4.9000   -3.1052   19.1690 C.3     1  UNL1        0.1499
     39 O           3.8143   -3.5531   18.2358 O.3     1  UNL1       -0.3786
     40 H           2.9621   -3.5345   18.6987 H       1  UNL1        0.2108
     41 C           4.5646   -2.7177   20.5788 C.ar    1  UNL1        0.0248
     42 C           3.6753   -1.5386   20.8411 C.ar    1  UNL1        0.0012
     43 C           3.3399   -1.1511   22.2508 C.ar    1  UNL1        0.0204
     44 C           3.8938   -1.9427   23.3982 C.ar    1  UNL1        0.0989
     45 N           4.7831   -3.1219   23.1358 N.ar    1  UNL1       -0.2426
     46 C           5.1185   -3.5094   21.7261 C.ar    1  UNL1        0.0969
@<TRIPOS>BOND
     1     1     2    2
     2     2     3    2
     3     2    25    1
     4    25    27    1
     5    27    28   ar
     6    28    29   ar
     7    29    30   ar
     8    30    33    1
     9    33    34    1
    10    34    35    1
    11    35    37    1
    12    37    38    1
    13    38    39    1
    14    38    41    1
    15    41    42   ar
    16    42    43   ar
    17    43    44   ar
    18    44    45   ar
    19    45    46   ar
    20    30    31   ar
    21    31    32   ar
    22     2     4    1
    23     4     5   ar
    24     5     6   ar
    25     6     7   ar
    26     7    10    1
    27    10    11   ar
    28    11    12   ar
    29    12    15    1
    30    15    16   ar
    31    16    17   ar
    32    17    18   ar
    33    18    21    1
    34    21    22    1
    35    21    23    1
    36    21    24    1
    37    18    19   ar
    38    19    20   ar
    39    12    13   ar
    40    13    14   ar
    41     7     8   ar
    42     8     9   ar
    43    32    27   ar
    44     9     4   ar
    45    46    41   ar
    46    14    10   ar
    47    20    15   ar
    48    25    26    1
    49    35    36    1
    50    39    40    1
@<TRIPOS>MOLECULE
*****
 46 50 0 0 0
SMALL
GASTEIGER

@<TRIPOS>ATOM
      1 O           3.6099    1.6295   30.9543 O.2     1  UNL1       -0.1499
      2 S           2.8333    0.3462   30.9640 S.O2    1  UNL1        0.0736
      3 O           2.0568   -0.9370   30.9736 O.2     1  UNL1       -0.1499
      4 C           1.9434    0.8766   29.8791 C.ar    1  UNL1        0.1252
      5 C           0.9998   -0.0455   29.1654 C.ar    1  UNL1        0.0202
      6 C           0.1099    0.4848   28.0806 C.ar    1  UNL1        0.0034
      7 C           0.1637    1.9371   27.7094 C.ar    1  UNL1        0.0239
      8 C           1.1074    2.8591   28.4230 C.ar    1  UNL1        0.0034
      9 C           1.9972    2.3289   29.5079 C.ar    1  UNL1        0.0202
     10 C          -0.7262    2.4674   26.6245 C.ar    1  UNL1        0.1107
     11 N          -2.1305    2.9645   26.8003 N.ar    1  UNL1       -0.2383
     12 C          -2.6401    3.3980   25.4578 C.ar    1  UNL1        0.0883
     13 C          -1.5508    3.1689   24.4523 C.ar    1  UNL1        0.0560
     14 S          -0.3680    2.5938   25.1734 S.2     1  UNL1       -0.0659
     15 C          -4.0003    3.9617   25.1711 C.ar    1  UNL1        0.0182
     16 C          -4.7371    4.7204   26.2348 C.ar    1  UNL1        0.0015
     17 C          -6.0973    5.2841   25.9482 C.ar    1  UNL1        0.0039
     18 C          -6.7206    5.0891   24.5977 C.ar    1  UNL1        0.0714
     19 C          -5.9838    4.3305   23.5341 C.ar    1  UNL1        0.0039
     20 C          -4.6236    3.7668   23.8208 C.ar    1  UNL1        0.0015
     21 C          -8.0808    5.6528   24.3111 C.3     1  UNL1        0.4186
     22 F          -9.4410    6.2165   24.0244 F       1  UNL1       -0.1659
     23 F          -7.5385    7.0423   24.4702 F       1  UNL1       -0.1659
     24 F          -8.6230    4.2634   24.1519 F       1  UNL1       -0.1659
     25 N           3.7231   -0.1841   32.0488 N.pl3   1  UNL1       -0.2150
     26 H           3.6710    0.1932   32.9566 H       1  UNL1        0.1737
     27 C           4.6924   -1.2894   31.7505 C.ar    1  UNL1        0.0648
     28 C           5.3577   -1.3615   30.4081 C.ar    1  UNL1        0.0155
     29 C           6.3269   -2.4668   30.1098 C.ar    1  UNL1       -0.0029
     30 C           6.6308   -3.5000   31.1540 C.ar    1  UNL1       -0.0207
     31 C           5.9654   -3.4279   32.4964 C.ar    1  UNL1       -0.0029
     32 C           4.9962   -2.3226   32.7946 C.ar    1  UNL1        0.0155
     33 C           7.6000   -4.6053   30.8557 C.3     1  UNL1        0.0434
     34 C           7.7703   -5.0938   29.4477 C.3     1  UNL1        0.0734
     35 N           7.5032   -6.5320   29.1154 N.3     1  UNL1       -0.2949
     36 H           6.5003   -6.6143   28.9487 H       1  UNL1        0.1233
     37 C           8.1905   -7.1716   27.9456 C.3     1  UNL1        0.1029
     38 C           7.4264   -7.4438   26.6839 C.3     1  UNL1        0.1499
     39 O           6.6171   -8.7000   26.5534 O.3     1  UNL1       -0.3786
     40 H           6.1896   -8.7203   25.6829 H       1  UNL1        0.2108
     41 C           7.4715   -6.4598   25.5525 C.ar    1  UNL1        0.0248
     42 C           6.9210   -5.0770   25.7389 C.ar    1  UNL1        0.0012
     43 C           6.9661   -4.0930   24.6077 C.ar    1  UNL1        0.0204
     44 C           7.5617   -4.4919   23.2901 C.ar    1  UNL1        0.0989
     45 N           8.1122   -5.8747   23.1037 N.ar    1  UNL1       -0.2426
     46 C           8.0671   -6.8587   24.2349 C.ar    1  UNL1        0.0969
@<TRIPOS>BOND
     1     1     2    2
     2     2     3    2
     3     2    25    1
     4    25    27    1
     5    27    28   ar
     6    28    29   ar
     7    29    30   ar
     8    30    33    1
     9    33    34    1
    10    34    35    1
    11    35    37    1
    12    37    38    1
    13    38    39    1
    14    38    41    1
    15    41    42   ar
    16    42    43   ar
    17    43    44   ar
    18    44    45   ar
    19    45    46   ar
    20    30    31   ar
    21    31    32   ar
    22     2     4    1
    23     4     5   ar
    24     5     6   ar
    25     6     7   ar
    26     7    10    1
    27    10    11   ar
    28    11    12   ar
    29    12    15    1
    30    15    16   ar
    31    16    17   ar
    32    17    18   ar
    33    18    21    1
    34    21    22    1
    35    21    23    1
    36    21    24    1
    37    18    19   ar
    38    19    20   ar
    39    12    13   ar
    40    13    14   ar
    41     7     8   ar
    42     8     9   ar
    43    32    27   ar
    44     9     4   ar
    45    46    41   ar
    46    14    10   ar
    47    20    15   ar
    48    25    26    1
    49    35    36    1
    50    39    40    1
@<TRIPOS>MOLECULE
*****
 46 50 0 0 0
SMALL
GASTEIGER

@<TRIPOS>ATOM
      1 O           9.2820   -3.5982   23.3734 O.2     1  UNL1       -0.1499
      2 S           8.6589   -4.9618   23.3275 S.O2    1  UNL1        0.0736
      3 O           8.0357   -6.3254   23.2815 O.2     1  UNL1       -0.1499
      4 C           8.3152   -4.8539   24.7836 C.ar    1  UNL1        0.1252
      5 C           9.0000   -3.8321   25.6421 C.ar    1  UNL1        0.0202
      6 C           8.6564   -3.7242   27.0982 C.ar    1  UNL1        0.0034
      7 C           7.6280   -4.6381   27.6958 C.ar    1  UNL1        0.0239
      8 C           6.9432   -5.6599   26.8373 C.ar    1  UNL1        0.0034
      9 C           7.2868   -5.7678   25.3812 C.ar    1  UNL1        0.0202
     10 C           7.2843   -4.5302   29.1520 C.ar    1  UNL1        0.1107
     11 N           6.8332   -3.2882   29.8618 N.ar    1  UNL1       -0.2383
     12 C           6.6016   -3.6358   31.3024 C.ar    1  UNL1        0.0883
     13 C           6.9095   -5.0928   31.4830 C.ar    1  UNL1        0.0560
     14 S           7.3315   -5.6455   30.1540 S.2     1  UNL1       -0.0659
     15 C           6.1425   -2.6922   32.3743 C.ar    1  UNL1        0.0182
     16 C           4.7450   -2.7888   32.9103 C.ar    1  UNL1        0.0015
     17 C           4.2859   -1.8453   33.9822 C.ar    1  UNL1        0.0039
     18 C           5.2246   -0.8050   34.5180 C.ar    1  UNL1        0.0714
     19 C           6.6221   -0.7084   33.9820 C.ar    1  UNL1        0.0039
     20 C           7.0811   -1.6520   32.9101 C.ar    1  UNL1        0.0015
     21 C           4.7655    0.1386   35.5899 C.3     1  UNL1        0.4186
     22 F           4.3065    1.0822   36.6618 F       1  UNL1       -0.1659
     23 F           3.8584    0.8155   34.6056 F       1  UNL1       -0.1659
     24 F           5.6726   -0.5383   36.5742 F       1  UNL1       -0.1659
     25 N           9.0025   -5.0697   21.8714 N.pl3   1  UNL1       -0.2150
     26 H           9.6686   -5.7292   21.5704 H       1  UNL1        0.1737
     27 C           8.3312   -4.1728   20.8739 C.ar    1  UNL1        0.0648
     28 C           9.1566   -3.3054   19.9705 C.ar    1  UNL1        0.0155
     29 C           8.4853   -2.4086   18.9730 C.ar    1  UNL1       -0.0029
     30 C           6.9885   -2.3791   18.8789 C.ar    1  UNL1       -0.0207
     31 C           6.1631   -3.2465   19.7823 C.ar    1  UNL1       -0.0029
     32 C           6.8344   -4.1434   20.7798 C.ar    1  UNL1        0.0155
     33 C           6.3172   -1.4822   17.8814 C.3     1  UNL1        0.0434
     34 C           6.8448   -0.0985   17.6427 C.3     1  UNL1        0.0734
     35 N           5.9020    1.0127   17.2873 N.3     1  UNL1       -0.2949
     36 H           5.4655    0.7567   16.4017 H       1  UNL1        0.1233
     37 C           4.7921    1.3835   18.2257 C.3     1  UNL1        0.1029
     38 C           5.0517    1.4608   19.7010 C.3     1  UNL1        0.1499
     39 O           5.6912    2.6846   20.2869 O.3     1  UNL1       -0.3786
     40 H           5.7867    2.5721   21.2456 H       1  UNL1        0.2108
     41 C           4.6720    0.3142   20.5905 C.ar    1  UNL1        0.0248
     42 C           3.4668   -0.5184   20.2675 C.ar    1  UNL1        0.0012
     43 C           3.0870   -1.6650   21.1569 C.ar    1  UNL1        0.0204
     44 C           3.9124   -1.9790   22.3694 C.ar    1  UNL1        0.0989
     45 N           5.1176   -1.1464   22.6924 N.ar    1  UNL1       -0.2426
     46 C           5.4974    0.0002   21.8030 C.ar    1  UNL1        0.0969
@<TRIPOS>BOND
     1     1     2    2
     2     2     3    2
     3     2    25    1
     4    25    27    1
     5    27    28   ar
     6    28    29   ar
     7    29    30   ar
     8    30    33    1
     9    33    34    1
    10    34    35    1
    11    35    37    1
    12    37    38    1
    13    38    39    1
    14    38    41    1
    15    41    42   ar
    16    42    43   ar
    17    43    44   ar
    18    44    45   ar
    19    45    46   ar
    20    30    31   ar
    21    31    32   ar
    22     2     4    1
    23     4     5   ar
    24     5     6   ar
    25     6     7   ar
    26     7    10    1
    27    10    11   ar
    28    11    12   ar
    29    12    15    1
    30    15    16   ar
    31    16    17   ar
    32    17    18   ar
    33    18    21    1
    34    21    22    1
    35    21    23    1
    36    21    24    1
    37    18    19   ar
    38    19    20   ar
    39    12    13   ar
    40    13    14   ar
    41     7     8   ar
    42     8     9   ar
    43    32    27   ar
    44     9     4   ar
    45    46    41   ar
    46    14    10   ar
    47    20    15   ar
    48    25    26    1
    49    35    36    1
    50    39    40    1
@<TRIPOS>MOLECULE
*****
 46 50 0 0 0
SMALL
GASTEIGER

@<TRIPOS>ATOM
      1 O           1.2472    1.0480   30.9585 O.2     1  UNL1       -0.1499
      2 S           1.4676    2.4932   30.6229 S.O2    1  UNL1        0.0736
      3 O           1.6881    3.9384   30.2872 O.2     1  UNL1       -0.1499
      4 C           1.6814    2.1265   29.1841 C.ar    1  UNL1        0.1252
      5 C           0.5187    1.6984   28.3386 C.ar    1  UNL1        0.0202
      6 C           0.7324    1.3317   26.8999 C.ar    1  UNL1        0.0034
      7 C           2.1088    1.3931   26.3068 C.ar    1  UNL1        0.0239
      8 C           3.2714    1.8211   27.1523 C.ar    1  UNL1        0.0034
      9 C           3.0577    2.1878   28.5910 C.ar    1  UNL1        0.0202
     10 C           2.3225    1.0263   24.8680 C.ar    1  UNL1        0.1107
     11 N           2.7629   -0.3128   24.3556 N.ar    1  UNL1       -0.2383
     12 C           2.8460   -0.2324   22.8600 C.ar    1  UNL1        0.0883
     13 C           2.4569    1.1566   22.4482 C.ar    1  UNL1        0.0560
     14 S           2.1334    1.9345   23.6892 S.2     1  UNL1       -0.0659
     15 C           3.2476   -1.3454   21.9381 C.ar    1  UNL1        0.0182
     16 C           4.0738   -2.4858   22.4547 C.ar    1  UNL1        0.0015
     17 C           4.4755   -3.5988   21.5329 C.ar    1  UNL1        0.0039
     18 C           4.0508   -3.5714   20.0944 C.ar    1  UNL1        0.0714
     19 C           3.2247   -2.4310   19.5779 C.ar    1  UNL1        0.0039
     20 C           2.8230   -1.3180   20.4998 C.ar    1  UNL1        0.0015
     21 C           4.4525   -4.6844   19.1725 C.3     1  UNL1        0.4186
     22 F           4.8541   -5.7975   18.2506 F       1  UNL1       -0.1659
     23 F           3.5487   -5.6245   19.9138 F       1  UNL1       -0.1659
     24 F           5.3561   -3.7444   18.4313 F       1  UNL1       -0.1659
     25 N           1.2539    2.8600   32.0615 N.pl3   1  UNL1       -0.2150
     26 H           0.3844    3.2166   32.3546 H       1  UNL1        0.1737
     27 C           2.3650    2.6833   33.0536 C.ar    1  UNL1        0.0648
     28 C           3.7911    2.6737   32.5887 C.ar    1  UNL1        0.0155
     29 C           4.9022    2.4971   33.5808 C.ar    1  UNL1       -0.0029
     30 C           4.5871    2.3299   35.0378 C.ar    1  UNL1       -0.0207
     31 C           3.1611    2.3395   35.5027 C.ar    1  UNL1       -0.0029
     32 C           2.0500    2.5162   34.5106 C.ar    1  UNL1        0.0155
     33 C           5.6983    2.1533   36.0300 C.3     1  UNL1        0.0434
     34 C           6.1044    0.7761   36.4638 C.3     1  UNL1        0.0734
     35 N           5.4686   -0.4271   35.8327 N.3     1  UNL1       -0.2949
     36 H           4.4809   -0.2060   35.7064 H       1  UNL1        0.1233
     37 C           5.9707   -0.9358   34.5140 C.3     1  UNL1        0.1029
     38 C           5.0083   -1.1854   33.3909 C.3     1  UNL1        0.1499
     39 O           3.5610   -0.8243   33.5491 O.3     1  UNL1       -0.3786
     40 H           3.0809   -1.0493   32.7368 H       1  UNL1        0.2108
     41 C           5.4931   -1.7961   32.1094 C.ar    1  UNL1        0.0248
     42 C           5.3791   -1.0316   30.8240 C.ar    1  UNL1        0.0012
     43 C           5.8639   -1.6422   29.5426 C.ar    1  UNL1        0.0204
     44 C           6.4627   -3.0175   29.5467 C.ar    1  UNL1        0.0989
     45 N           6.5768   -3.7820   30.8321 N.ar    1  UNL1       -0.2426
     46 C           6.0920   -3.1714   32.1135 C.ar    1  UNL1        0.0969
@<TRIPOS>BOND
     1     1     2    2
     2     2     3    2
     3     2    25    1
     4    25    27    1
     5    27    28   ar
     6    28    29   ar
     7    29    30   ar
     8    30    33    1
     9    33    34    1
    10    34    35    1
    11    35    37    1
    12    37    38    1
    13    38    39    1
    14    38    41    1
    15    41    42   ar
    16    42    43   ar
    17    43    44   ar
    18    44    45   ar
    19    45    46   ar
    20    30    31   ar
    21    31    32   ar
    22     2     4    1
    23     4     5   ar
    24     5     6   ar
    25     6     7   ar
    26     7    10    1
    27    10    11   ar
    28    11    12   ar
    29    12    15    1
    30    15    16   ar
    31    16    17   ar
    32    17    18   ar
    33    18    21    1
    34    21    22    1
    35    21    23    1
    36    21    24    1
    37    18    19   ar
    38    19    20   ar
    39    12    13   ar
    40    13    14   ar
    41     7     8   ar
    42     8     9   ar
    43    32    27   ar
    44     9     4   ar
    45    46    41   ar
    46    14    10   ar
    47    20    15   ar
    48    25    26    1
    49    35    36    1
    50    39    40    1
