@<TRIPOS>MOLECULE
*****
 44 49 0 0 0
SMALL
GASTEIGER

@<TRIPOS>ATOM
      1 C          -2.9102    4.3075   21.7579 C.ar    1  UNL1        0.1348
      2 C          -2.7161    5.1274   22.9988 C.ar    1  UNL1        0.0346
      3 C          -1.5650    4.8386   23.9161 C.ar    1  UNL1        0.0065
      4 C          -0.6080    3.7298   23.5926 C.ar    1  UNL1        0.0432
      5 C          -0.8022    2.9098   22.3517 C.ar    1  UNL1        0.1256
      6 N          -1.9533    3.1986   21.4344 N.ar    1  UNL1       -0.2222
      7 C           0.5431    3.4410   24.5100 C.ar    1  UNL1        0.0851
      8 C           1.9388    3.9717   24.3674 C.ar    1  UNL1        0.1021
      9 N           2.7589    3.4295   25.5003 N.ar    1  UNL1       -0.2264
     10 C           1.8700    2.5637   26.3431 C.ar    1  UNL1        0.1474
     11 C           2.1307    1.7697   27.5887 C.ar    1  UNL1        0.0332
     12 C           1.0219    0.9829   28.2223 C.ar    1  UNL1       -0.0174
     13 C           1.2825    0.1889   29.4680 C.3     1  UNL1        0.0312
     14 C          -0.3476    0.9900   27.6103 C.ar    1  UNL1        0.0149
     15 C          -0.6083    1.7839   26.3647 C.ar    1  UNL1        0.0811
     16 N           0.5006    2.5708   25.7310 N.ar    1  UNL1       -0.2888
     17 C           2.4285    4.8843   23.2824 C.ar    1  UNL1        0.0587
     18 C           2.5837    6.3727   23.3854 C.ar    1  UNL1        0.1232
     19 N           3.1001    6.8771   22.0705 N.ar    1  UNL1       -0.1675
     20 N           3.2641    5.7004   21.1548 N.ar    1  UNL1       -0.2473
     21 C           3.7567    5.7471   19.7387 C.3     1  UNL1        0.1538
     22 C           2.8490    4.4688   21.9038 C.ar    1  UNL1        0.0982
     23 C          -5.4266    4.0630   21.1594 C.2     1  UNL1        0.2414
     24 O          -5.6407    3.2408   22.3956 O.2     1  UNL1       -0.2733
     25 N          -4.0613    4.5963   20.8405 N.am    1  UNL1       -0.2682
     26 H          -3.9208    5.1359   20.0292 H       1  UNL1        0.1563
     27 C          -6.5777    4.3518   20.2420 C.3     1  UNL1        0.1319
     28 C          -6.6464    3.6950   18.8951 C.3     1  UNL1        0.0270
     29 C          -7.3248    6.4811   21.5295 C.3     1  UNL1        0.0862
     30 N          -7.6600    5.2973   20.6715 N.3     1  UNL1       -0.2902
     31 H          -8.0870    5.6623   19.8201 H       1  UNL1        0.1237
     32 C           0.1548    1.8009   22.0281 C.1     1  UNL1       -0.0404
     33 C           1.1118    0.6921   21.7046 C.1     1  UNL1       -0.0583
     34 C           2.0688   -0.4168   21.3810 C.ar    1  UNL1        0.0420
     35 C           2.1444   -0.9585   19.9843 C.ar    1  UNL1        0.0083
     36 C           3.1013   -2.0673   19.6606 C.ar    1  UNL1        0.0018
     37 C           3.9826   -2.6344   20.7337 C.ar    1  UNL1        0.0137
     38 C           4.9396   -3.7433   20.4102 C.ar    1  UNL1        0.0594
     39 C           5.0152   -4.2850   19.0134 C.3     1  UNL1        0.0521
     40 N           5.8209   -4.3104   21.4833 N.ar    1  UNL1       -0.2481
     41 C           5.7453   -3.7687   22.8800 C.ar    1  UNL1        0.0984
     42 C           4.7884   -2.6599   23.2036 C.ar    1  UNL1        0.0207
     43 C           3.9070   -2.0927   22.1305 C.ar    1  UNL1        0.0033
     44 C           2.9501   -0.9839   22.4541 C.ar    1  UNL1        0.0083
@<TRIPOS>BOND
     1    29    30    1
     2    30    27    1
     3    27    28    1
     4    27    23    1
     5    23    24    2
     6    23    25   am
     7    25     1    1
     8     1     2   ar
     9     2     3   ar
    10     3     4   ar
    11     4     7    1
    12     7     8   ar
    13     8    17    1
    14    17    18   ar
    15    18    19   ar
    16    19    20   ar
    17    20    21    1
    18    20    22   ar
    19     8     9   ar
    20     9    10   ar
    21    10    11   ar
    22    11    12   ar
    23    12    13    1
    24    12    14   ar
    25    14    15   ar
    26    15    16   ar
    27     4     5   ar
    28     5    32    1
    29    32    33    3
    30    33    34    1
    31    34    35   ar
    32    35    36   ar
    33    36    37   ar
    34    37    38   ar
    35    38    39    1
    36    38    40   ar
    37    40    41   ar
    38    41    42   ar
    39    42    43   ar
    40    43    44   ar
    41     5     6   ar
    42     6     1   ar
    43    16     7   ar
    44    44    34   ar
    45    22    17   ar
    46    16    10   ar
    47    43    37   ar
    48    30    31    1
    49    25    26    1
@<TRIPOS>MOLECULE
*****
 44 49 0 0 0
SMALL
GASTEIGER

@<TRIPOS>ATOM
      1 C          -2.3266    4.5361   24.7347 C.ar    1  UNL1        0.1348
      2 C          -1.7154    5.3058   25.8678 C.ar    1  UNL1        0.0346
      3 C          -0.3192    4.9946   26.3190 C.ar    1  UNL1        0.0065
      4 C           0.4660    3.9137   25.6371 C.ar    1  UNL1        0.0432
      5 C          -0.1451    3.1440   24.5040 C.ar    1  UNL1        0.1256
      6 N          -1.5414    3.4552   24.0528 N.ar    1  UNL1       -0.2222
      7 C           1.8623    3.6025   26.0883 C.ar    1  UNL1        0.0851
      8 C           2.2406    2.7121   27.2346 C.ar    1  UNL1        0.1021
      9 N           3.7375    2.6864   27.3271 N.ar    1  UNL1       -0.2264
     10 C           4.2844    3.5609   26.2380 C.ar    1  UNL1        0.1474
     11 C           5.6879    3.9148   25.8445 C.ar    1  UNL1        0.0332
     12 C           5.9324    4.8349   24.6854 C.ar    1  UNL1       -0.0174
     13 C           7.3360    5.1888   24.2919 C.3     1  UNL1        0.0312
     14 C           4.7735    5.4011   23.9197 C.ar    1  UNL1        0.0149
     15 C           3.3700    5.0472   24.3132 C.ar    1  UNL1        0.0811
     16 N           3.1254    4.1271   25.4724 N.ar    1  UNL1       -0.2888
     17 C           1.2891    1.9766   28.1310 C.ar    1  UNL1        0.0587
     18 C           1.1912    2.1207   29.6208 C.ar    1  UNL1        0.1232
     19 N           0.1099    1.2010   30.1056 N.ar    1  UNL1       -0.1675
     20 N          -0.4604    0.4883   28.9152 N.ar    1  UNL1       -0.2473
     21 C          -1.5655   -0.5257   28.9408 C.3     1  UNL1        0.1538
     22 C           0.2683    0.9676   27.6949 C.ar    1  UNL1        0.0982
     23 C          -4.8937    4.4159   25.1159 C.2     1  UNL1        0.2414
     24 O          -4.6683    3.6733   26.3996 O.2     1  UNL1       -0.2733
     25 N          -3.7228    4.8473   24.2835 N.am    1  UNL1       -0.2682
     26 H          -3.8708    5.3347   23.4410 H       1  UNL1        0.1563
     27 C          -6.2900    4.7271   24.6647 C.3     1  UNL1        0.1319
     28 C          -7.0459    5.8605   25.2924 C.3     1  UNL1        0.0270
     29 C          -6.5691    4.1405   22.1492 C.3     1  UNL1        0.0862
     30 N          -6.9303    3.9049   23.5859 N.3     1  UNL1       -0.2902
     31 H          -6.7100    2.9299   23.7888 H       1  UNL1        0.1237
     32 C           0.6400    2.0630   23.8220 C.1     1  UNL1       -0.0404
     33 C           1.4251    0.9820   23.1401 C.1     1  UNL1       -0.0583
     34 C           2.2103   -0.0990   22.4581 C.ar    1  UNL1        0.0420
     35 C           1.9928   -0.3781   21.0004 C.ar    1  UNL1        0.0083
     36 C           2.7779   -1.4591   20.3184 C.ar    1  UNL1        0.0018
     37 C           3.7805   -2.2609   21.0941 C.ar    1  UNL1        0.0137
     38 C           4.5657   -3.3419   20.4121 C.ar    1  UNL1        0.0594
     39 C           4.3481   -3.6210   18.9545 C.3     1  UNL1        0.0521
     40 N           5.5683   -4.1437   21.1878 N.ar    1  UNL1       -0.2481
     41 C           5.7858   -3.8647   22.6455 C.ar    1  UNL1        0.0984
     42 C           5.0007   -2.7837   23.3275 C.ar    1  UNL1        0.0207
     43 C           3.9980   -1.9818   22.5518 C.ar    1  UNL1        0.0033
     44 C           3.2129   -0.9009   23.2338 C.ar    1  UNL1        0.0083
@<TRIPOS>BOND
     1    29    30    1
     2    30    27    1
     3    27    28    1
     4    27    23    1
     5    23    24    2
     6    23    25   am
     7    25     1    1
     8     1     2   ar
     9     2     3   ar
    10     3     4   ar
    11     4     7    1
    12     7     8   ar
    13     8    17    1
    14    17    18   ar
    15    18    19   ar
    16    19    20   ar
    17    20    21    1
    18    20    22   ar
    19     8     9   ar
    20     9    10   ar
    21    10    11   ar
    22    11    12   ar
    23    12    13    1
    24    12    14   ar
    25    14    15   ar
    26    15    16   ar
    27     4     5   ar
    28     5    32    1
    29    32    33    3
    30    33    34    1
    31    34    35   ar
    32    35    36   ar
    33    36    37   ar
    34    37    38   ar
    35    38    39    1
    36    38    40   ar
    37    40    41   ar
    38    41    42   ar
    39    42    43   ar
    40    43    44   ar
    41     5     6   ar
    42     6     1   ar
    43    16     7   ar
    44    44    34   ar
    45    22    17   ar
    46    16    10   ar
    47    43    37   ar
    48    30    31    1
    49    25    26    1
@<TRIPOS>MOLECULE
*****
 44 49 0 0 0
SMALL
GASTEIGER

@<TRIPOS>ATOM
      1 C          -2.6608    4.6114   22.7032 C.ar    1  UNL1        0.1348
      2 C          -2.1877    5.5374   23.7842 C.ar    1  UNL1        0.0346
      3 C          -0.8557    5.3111   24.4358 C.ar    1  UNL1        0.0065
      4 C           0.0031    4.1587   24.0065 C.ar    1  UNL1        0.0432
      5 C          -0.4700    3.2327   22.9255 C.ar    1  UNL1        0.1256
      6 N          -1.8020    3.4590   22.2738 N.ar    1  UNL1       -0.2222
      7 C           1.3351    3.9324   24.6581 C.ar    1  UNL1        0.0851
      8 C           1.5826    3.1364   25.9052 C.ar    1  UNL1        0.1021
      9 N           3.0539    3.1743   26.1949 N.ar    1  UNL1       -0.2264
     10 C           3.7157    3.9938   25.1269 C.ar    1  UNL1        0.1474
     11 C           5.1483    4.3739   24.8966 C.ar    1  UNL1        0.0332
     12 C           5.5186    5.2225   23.7164 C.ar    1  UNL1       -0.0174
     13 C           6.9512    5.6026   23.4861 C.3     1  UNL1        0.0312
     14 C           4.4563    5.6910   22.7666 C.ar    1  UNL1        0.0149
     15 C           3.0237    5.3109   22.9970 C.ar    1  UNL1        0.0811
     16 N           2.6533    4.4623   24.1772 N.ar    1  UNL1       -0.2888
     17 C           0.5417    2.4270   26.7195 C.ar    1  UNL1        0.0587
     18 C          -0.7841    2.9893   27.1387 C.ar    1  UNL1        0.1232
     19 N          -1.5015    1.9406   27.9360 N.ar    1  UNL1       -0.1675
     20 N          -0.6188    0.7299   28.0094 N.ar    1  UNL1       -0.2473
     21 C          -0.9421   -0.5557   28.7115 C.3     1  UNL1        0.1538
     22 C           0.6439    1.0305   27.2576 C.ar    1  UNL1        0.0982
     23 C          -5.1747    4.0053   22.4518 C.2     1  UNL1        0.2414
     24 O          -5.0246    2.9465   23.5037 O.2     1  UNL1       -0.2733
     25 N          -3.9928    4.8377   22.0515 N.am    1  UNL1       -0.2682
     26 H          -4.0913    5.5326   21.3611 H       1  UNL1        0.1563
     27 C          -6.5066    4.2316   21.8001 C.3     1  UNL1        0.1319
     28 C          -6.5869    4.4744   20.3220 C.3     1  UNL1        0.0270
     29 C          -7.8574    5.0706   23.8548 C.3     1  UNL1        0.0862
     30 N          -7.7583    4.2153   22.6265 N.3     1  UNL1       -0.2902
     31 H          -8.5215    4.4952   22.0104 H       1  UNL1        0.1237
     32 C           0.3888    2.0802   22.4961 C.1     1  UNL1       -0.0404
     33 C           1.2477    0.9278   22.0668 C.1     1  UNL1       -0.0583
     34 C           2.1065   -0.2246   21.6374 C.ar    1  UNL1        0.0420
     35 C           2.0275   -0.7350   20.2291 C.ar    1  UNL1        0.0083
     36 C           2.8863   -1.8874   19.7997 C.ar    1  UNL1        0.0018
     37 C           3.8241   -2.5294   20.7785 C.ar    1  UNL1        0.0137
     38 C           4.6830   -3.6818   20.3492 C.ar    1  UNL1        0.0594
     39 C           4.6039   -4.1922   18.9409 C.3     1  UNL1        0.0521
     40 N           5.6208   -4.3238   21.3280 N.ar    1  UNL1       -0.2481
     41 C           5.6999   -3.8135   22.7363 C.ar    1  UNL1        0.0984
     42 C           4.8411   -2.6611   23.1657 C.ar    1  UNL1        0.0207
     43 C           3.9032   -2.0190   22.1868 C.ar    1  UNL1        0.0033
     44 C           3.0444   -0.8666   22.6162 C.ar    1  UNL1        0.0083
@<TRIPOS>BOND
     1    29    30    1
     2    30    27    1
     3    27    28    1
     4    27    23    1
     5    23    24    2
     6    23    25   am
     7    25     1    1
     8     1     2   ar
     9     2     3   ar
    10     3     4   ar
    11     4     7    1
    12     7     8   ar
    13     8    17    1
    14    17    18   ar
    15    18    19   ar
    16    19    20   ar
    17    20    21    1
    18    20    22   ar
    19     8     9   ar
    20     9    10   ar
    21    10    11   ar
    22    11    12   ar
    23    12    13    1
    24    12    14   ar
    25    14    15   ar
    26    15    16   ar
    27     4     5   ar
    28     5    32    1
    29    32    33    3
    30    33    34    1
    31    34    35   ar
    32    35    36   ar
    33    36    37   ar
    34    37    38   ar
    35    38    39    1
    36    38    40   ar
    37    40    41   ar
    38    41    42   ar
    39    42    43   ar
    40    43    44   ar
    41     5     6   ar
    42     6     1   ar
    43    16     7   ar
    44    44    34   ar
    45    22    17   ar
    46    16    10   ar
    47    43    37   ar
    48    30    31    1
    49    25    26    1
@<TRIPOS>MOLECULE
*****
 44 49 0 0 0
SMALL
GASTEIGER

@<TRIPOS>ATOM
      1 C           2.7286   -0.1380   29.8262 C.ar    1  UNL1        0.1348
      2 C           2.1828    1.2384   30.0665 C.ar    1  UNL1        0.0346
      3 C           1.9032    2.1474   28.9066 C.ar    1  UNL1        0.0065
      4 C           2.1693    1.6800   27.5063 C.ar    1  UNL1        0.0432
      5 C           2.7150    0.3036   27.2660 C.ar    1  UNL1        0.1256
      6 N           2.9946   -0.6054   28.4260 N.ar    1  UNL1       -0.2222
      7 C           1.8896    2.5890   26.3463 C.ar    1  UNL1        0.0851
      8 C           2.9142    3.3325   25.5418 C.ar    1  UNL1        0.1021
      9 N           2.1941    4.1171   24.4855 N.ar    1  UNL1       -0.2264
     10 C           0.7244    3.8585   24.6372 C.ar    1  UNL1        0.1474
     11 C          -0.4669    4.3610   23.8767 C.ar    1  UNL1        0.0332
     12 C          -1.8463    3.9191   24.2663 C.ar    1  UNL1       -0.0174
     13 C          -3.0376    4.4216   23.5058 C.3     1  UNL1        0.0312
     14 C          -2.0346    2.9747   25.4164 C.ar    1  UNL1        0.0149
     15 C          -0.8433    2.4722   26.1769 C.ar    1  UNL1        0.0811
     16 N           0.5362    2.9141   25.7873 N.ar    1  UNL1       -0.2888
     17 C           4.3985    3.2975   25.7559 C.ar    1  UNL1        0.0587
     18 C           5.1418    3.9464   26.8856 C.ar    1  UNL1        0.1232
     19 N           6.6027    3.6574   26.7059 N.ar    1  UNL1       -0.1675
     20 N           6.7622    2.8300   25.4649 N.ar    1  UNL1       -0.2473
     21 C           8.0568    2.3152   24.9087 C.3     1  UNL1        0.1538
     22 C           5.3999    2.6075   24.8778 C.ar    1  UNL1        0.0982
     23 C           4.4020   -1.1645   31.5280 C.2     1  UNL1        0.2414
     24 O           5.5162   -0.3729   30.9098 O.2     1  UNL1       -0.2733
     25 N           3.0082   -1.0470   30.9862 N.am    1  UNL1       -0.2682
     26 H           2.2770   -1.5665   31.3919 H       1  UNL1        0.1563
     27 C           4.6816   -2.0735   32.6879 C.3     1  UNL1        0.1319
     28 C           4.2592   -1.6758   34.0713 C.3     1  UNL1        0.0270
     29 C           6.8500   -3.3993   32.1490 C.3     1  UNL1        0.0862
     30 N           5.3837   -3.3801   32.4646 N.3     1  UNL1       -0.2902
     31 H           5.2581   -3.9307   33.3140 H       1  UNL1        0.1237
     32 C           2.9811   -0.1638   25.8657 C.1     1  UNL1       -0.0404
     33 C           3.2471   -0.6312   24.4655 C.1     1  UNL1       -0.0583
     34 C           3.5132   -1.0987   23.0652 C.ar    1  UNL1        0.0420
     35 C           4.1600   -2.4314   22.8296 C.ar    1  UNL1        0.0083
     36 C           4.4261   -2.8988   21.4294 C.ar    1  UNL1        0.0018
     37 C           4.0454   -2.0335   20.2648 C.ar    1  UNL1        0.0137
     38 C           4.3115   -2.5010   18.8645 C.ar    1  UNL1        0.0594
     39 C           4.9583   -3.8337   18.6288 C.3     1  UNL1        0.0521
     40 N           3.9308   -1.6357   17.6999 N.ar    1  UNL1       -0.2481
     41 C           3.2840   -0.3030   17.9355 C.ar    1  UNL1        0.0984
     42 C           3.0179    0.1645   19.3357 C.ar    1  UNL1        0.0207
     43 C           3.3986   -0.7008   20.5004 C.ar    1  UNL1        0.0033
     44 C           3.1325   -0.2334   21.9006 C.ar    1  UNL1        0.0083
@<TRIPOS>BOND
     1    29    30    1
     2    30    27    1
     3    27    28    1
     4    27    23    1
     5    23    24    2
     6    23    25   am
     7    25     1    1
     8     1     2   ar
     9     2     3   ar
    10     3     4   ar
    11     4     7    1
    12     7     8   ar
    13     8    17    1
    14    17    18   ar
    15    18    19   ar
    16    19    20   ar
    17    20    21    1
    18    20    22   ar
    19     8     9   ar
    20     9    10   ar
    21    10    11   ar
    22    11    12   ar
    23    12    13    1
    24    12    14   ar
    25    14    15   ar
    26    15    16   ar
    27     4     5   ar
    28     5    32    1
    29    32    33    3
    30    33    34    1
    31    34    35   ar
    32    35    36   ar
    33    36    37   ar
    34    37    38   ar
    35    38    39    1
    36    38    40   ar
    37    40    41   ar
    38    41    42   ar
    39    42    43   ar
    40    43    44   ar
    41     5     6   ar
    42     6     1   ar
    43    16     7   ar
    44    44    34   ar
    45    22    17   ar
    46    16    10   ar
    47    43    37   ar
    48    30    31    1
    49    25    26    1
@<TRIPOS>MOLECULE
*****
 44 49 0 0 0
SMALL
GASTEIGER

@<TRIPOS>ATOM
      1 C           6.9441   -2.7433   27.9836 C.ar    1  UNL1        0.1348
      2 C           7.8213   -3.0480   26.8057 C.ar    1  UNL1        0.0346
      3 C           7.4433   -2.5530   25.4411 C.ar    1  UNL1        0.0065
      4 C           6.1882   -1.7532   25.2545 C.ar    1  UNL1        0.0432
      5 C           5.3110   -1.4484   26.4325 C.ar    1  UNL1        0.1256
      6 N           5.6890   -1.9434   27.7971 N.ar    1  UNL1       -0.2222
      7 C           5.8102   -1.2581   23.8899 C.ar    1  UNL1        0.0851
      8 C           5.9488    0.1505   23.3934 C.ar    1  UNL1        0.1021
      9 N           5.4515    0.1945   21.9789 N.ar    1  UNL1       -0.2264
     10 C           5.0055   -1.1870   21.6012 C.ar    1  UNL1        0.1474
     11 C           4.4262   -1.7435   20.3345 C.ar    1  UNL1        0.0332
     12 C           4.0685   -3.1977   20.2488 C.ar    1  UNL1       -0.0174
     13 C           3.4892   -3.7542   18.9821 C.3     1  UNL1        0.0312
     14 C           4.2902   -4.0955   21.4299 C.ar    1  UNL1        0.0149
     15 C           4.8695   -3.5390   22.6967 C.ar    1  UNL1        0.0811
     16 N           5.2272   -2.0847   22.7823 N.ar    1  UNL1       -0.2888
     17 C           6.4897    1.3114   24.1742 C.ar    1  UNL1        0.0587
     18 C           7.9245    1.5256   24.5556 C.ar    1  UNL1        0.1232
     19 N           8.0124    2.8085   25.3279 N.ar    1  UNL1       -0.1675
     20 N           6.6319    3.3873   25.4237 N.ar    1  UNL1       -0.2473
     21 C           6.2580    4.6667   26.1117 C.3     1  UNL1        0.1538
     22 C           5.6908    2.4620   24.7107 C.ar    1  UNL1        0.0982
     23 C           6.9440   -4.6260   29.7739 C.2     1  UNL1        0.2414
     24 O           6.1879   -5.5188   28.8351 O.2     1  UNL1       -0.2733
     25 N           7.3221   -3.2383   29.3482 N.am    1  UNL1       -0.2682
     26 H           7.8184   -2.6524   29.9644 H       1  UNL1        0.1563
     27 C           7.3220   -5.1211   31.1385 C.3     1  UNL1        0.1319
     28 C           8.5099   -6.0214   31.3072 C.3     1  UNL1        0.0270
     29 C           6.0542   -3.2953   32.4835 C.3     1  UNL1        0.0862
     30 N           6.5122   -4.7159   32.3343 N.3     1  UNL1       -0.2902
     31 H           5.6739   -5.2969   32.3327 H       1  UNL1        0.1237
     32 C           4.0558   -0.6485   26.2459 C.1     1  UNL1       -0.0404
     33 C           2.8007    0.1513   26.0594 C.1     1  UNL1       -0.0583
     34 C           1.5455    0.9512   25.8728 C.ar    1  UNL1        0.0420
     35 C           0.6418    1.2122   27.0413 C.ar    1  UNL1        0.0083
     36 C          -0.6133    2.0120   26.8548 C.ar    1  UNL1        0.0018
     37 C          -0.9649    2.5508   25.4999 C.ar    1  UNL1        0.0137
     38 C          -2.2201    3.3507   25.3133 C.ar    1  UNL1        0.0594
     39 C          -3.1237    3.6117   26.4818 C.3     1  UNL1        0.0521
     40 N          -2.5716    3.8896   23.9583 N.ar    1  UNL1       -0.2481
     41 C          -1.6680    3.6286   22.7899 C.ar    1  UNL1        0.0984
     42 C          -0.4128    2.8288   22.9764 C.ar    1  UNL1        0.0207
     43 C          -0.0612    2.2899   24.3314 C.ar    1  UNL1        0.0033
     44 C           1.1939    1.4901   24.5179 C.ar    1  UNL1        0.0083
@<TRIPOS>BOND
     1    29    30    1
     2    30    27    1
     3    27    28    1
     4    27    23    1
     5    23    24    2
     6    23    25   am
     7    25     1    1
     8     1     2   ar
     9     2     3   ar
    10     3     4   ar
    11     4     7    1
    12     7     8   ar
    13     8    17    1
    14    17    18   ar
    15    18    19   ar
    16    19    20   ar
    17    20    21    1
    18    20    22   ar
    19     8     9   ar
    20     9    10   ar
    21    10    11   ar
    22    11    12   ar
    23    12    13    1
    24    12    14   ar
    25    14    15   ar
    26    15    16   ar
    27     4     5   ar
    28     5    32    1
    29    32    33    3
    30    33    34    1
    31    34    35   ar
    32    35    36   ar
    33    36    37   ar
    34    37    38   ar
    35    38    39    1
    36    38    40   ar
    37    40    41   ar
    38    41    42   ar
    39    42    43   ar
    40    43    44   ar
    41     5     6   ar
    42     6     1   ar
    43    16     7   ar
    44    44    34   ar
    45    22    17   ar
    46    16    10   ar
    47    43    37   ar
    48    30    31    1
    49    25    26    1
@<TRIPOS>MOLECULE
*****
 44 49 0 0 0
SMALL
GASTEIGER

@<TRIPOS>ATOM
      1 C           0.5571    0.8066   19.8029 C.ar    1  UNL1        0.1348
      2 C           0.8419    1.5410   18.5264 C.ar    1  UNL1        0.0346
      3 C           0.1423    2.8351   18.2335 C.ar    1  UNL1        0.0065
      4 C          -0.8421    3.3949   19.2172 C.ar    1  UNL1        0.0432
      5 C          -1.1269    2.6604   20.4936 C.ar    1  UNL1        0.1256
      6 N          -0.4273    1.3663   20.7865 N.ar    1  UNL1       -0.2222
      7 C          -1.5417    4.6890   18.9243 C.ar    1  UNL1        0.0851
      8 C          -0.9309    6.0572   18.9952 C.ar    1  UNL1        0.1021
      9 N          -1.9867    7.0559   18.6238 N.ar    1  UNL1       -0.2264
     10 C          -3.2499    6.3050   18.3234 C.ar    1  UNL1        0.1474
     11 C          -4.6151    6.7643   17.9047 C.ar    1  UNL1        0.0332
     12 C          -5.7053    5.7607   17.6717 C.ar    1  UNL1       -0.0174
     13 C          -7.0705    6.2200   17.2531 C.3     1  UNL1        0.0312
     14 C          -5.4304    4.2978   17.8574 C.ar    1  UNL1        0.0149
     15 C          -4.0652    3.8386   18.2761 C.ar    1  UNL1        0.0811
     16 N          -2.9749    4.8422   18.5091 N.ar    1  UNL1       -0.2888
     17 C           0.4867    6.3714   19.3714 C.ar    1  UNL1        0.0587
     18 C           1.5904    6.7361   18.4235 C.ar    1  UNL1        0.1232
     19 N           2.8354    6.9663   19.2278 N.ar    1  UNL1       -0.1675
     20 N           2.5010    6.7438   20.6731 N.ar    1  UNL1       -0.2473
     21 C           3.4514    6.8673   21.8271 C.3     1  UNL1        0.1538
     22 C           1.0495    6.3762   20.7619 C.ar    1  UNL1        0.0982
     23 C           2.6756   -0.4797   20.5822 C.2     1  UNL1        0.2414
     24 O           3.3949    0.8223   20.7759 O.2     1  UNL1       -0.2733
     25 N           1.2567   -0.4876   20.0957 N.am    1  UNL1       -0.2682
     26 H           0.7846   -1.3421   19.9687 H       1  UNL1        0.1563
     27 C           3.3752   -1.7739   20.8751 C.3     1  UNL1        0.1319
     28 C           3.9136   -2.0411   22.2495 C.3     1  UNL1        0.0270
     29 C           4.4098   -2.5115   18.6090 C.3     1  UNL1        0.0862
     30 N           3.5364   -2.8007   19.7937 N.3     1  UNL1       -0.2902
     31 H           3.9105   -3.6395   20.2375 H       1  UNL1        0.1237
     32 C          -2.1114    3.2202   21.4774 C.1     1  UNL1       -0.0404
     33 C          -3.0958    3.7798   22.4610 C.1     1  UNL1       -0.0583
     34 C          -4.0803    4.3396   23.4447 C.ar    1  UNL1        0.0420
     35 C          -3.6316    4.7078   24.8278 C.ar    1  UNL1        0.0083
     36 C          -4.6160    5.2675   25.8115 C.ar    1  UNL1        0.0018
     37 C          -6.0490    5.4590   25.4121 C.ar    1  UNL1        0.0137
     38 C          -7.0335    6.0187   26.3958 C.ar    1  UNL1        0.0594
     39 C          -6.5848    6.3870   27.7789 C.3     1  UNL1        0.0521
     40 N          -8.4666    6.2101   25.9964 N.ar    1  UNL1       -0.2481
     41 C          -8.9153    5.8418   24.6132 C.ar    1  UNL1        0.0984
     42 C          -7.9309    5.2821   23.6296 C.ar    1  UNL1        0.0207
     43 C          -6.4977    5.0907   24.0290 C.ar    1  UNL1        0.0033
     44 C          -5.5134    4.5310   23.0453 C.ar    1  UNL1        0.0083
@<TRIPOS>BOND
     1    29    30    1
     2    30    27    1
     3    27    28    1
     4    27    23    1
     5    23    24    2
     6    23    25   am
     7    25     1    1
     8     1     2   ar
     9     2     3   ar
    10     3     4   ar
    11     4     7    1
    12     7     8   ar
    13     8    17    1
    14    17    18   ar
    15    18    19   ar
    16    19    20   ar
    17    20    21    1
    18    20    22   ar
    19     8     9   ar
    20     9    10   ar
    21    10    11   ar
    22    11    12   ar
    23    12    13    1
    24    12    14   ar
    25    14    15   ar
    26    15    16   ar
    27     4     5   ar
    28     5    32    1
    29    32    33    3
    30    33    34    1
    31    34    35   ar
    32    35    36   ar
    33    36    37   ar
    34    37    38   ar
    35    38    39    1
    36    38    40   ar
    37    40    41   ar
    38    41    42   ar
    39    42    43   ar
    40    43    44   ar
    41     5     6   ar
    42     6     1   ar
    43    16     7   ar
    44    44    34   ar
    45    22    17   ar
    46    16    10   ar
    47    43    37   ar
    48    30    31    1
    49    25    26    1
@<TRIPOS>MOLECULE
*****
 44 49 0 0 0
SMALL
GASTEIGER

@<TRIPOS>ATOM
      1 C          -0.2243    2.0308   20.8005 C.ar    1  UNL1        0.1348
      2 C           0.1766    2.0945   19.3565 C.ar    1  UNL1        0.0346
      3 C           1.4339    1.4179   18.8966 C.ar    1  UNL1        0.0065
      4 C           2.2903    0.6775   19.8807 C.ar    1  UNL1        0.0432
      5 C           1.8894    0.6138   21.3247 C.ar    1  UNL1        0.1256
      6 N           0.6321    1.2905   21.7846 N.ar    1  UNL1       -0.2222
      7 C           3.5475    0.0009   19.4208 C.ar    1  UNL1        0.0851
      8 C           4.8240    0.6844   19.0292 C.ar    1  UNL1        0.1021
      9 N           5.8145   -0.3721   18.6382 N.ar    1  UNL1       -0.2264
     10 C           5.1501   -1.7085   18.7881 C.ar    1  UNL1        0.1474
     11 C           5.6398   -3.1056   18.5467 C.ar    1  UNL1        0.0332
     12 C           4.7285   -4.2721   18.7890 C.ar    1  UNL1       -0.0174
     13 C           5.2183   -5.6692   18.5476 C.3     1  UNL1        0.0312
     14 C           3.3275   -4.0417   19.2727 C.ar    1  UNL1        0.0149
     15 C           2.8377   -2.6446   19.5141 C.ar    1  UNL1        0.0811
     16 N           3.7490   -1.4780   19.2718 N.ar    1  UNL1       -0.2888
     17 C           5.0674    2.1645   19.0287 C.ar    1  UNL1        0.0587
     18 C           5.7626    2.9441   20.1051 C.ar    1  UNL1        0.1232
     19 N           5.7832    4.3864   19.6934 N.ar    1  UNL1       -0.1675
     20 N           5.1006    4.4981   18.3624 N.ar    1  UNL1       -0.2473
     21 C           4.8963    5.7612   17.5795 C.3     1  UNL1        0.1538
     22 C           4.6583    3.1249   17.9515 C.ar    1  UNL1        0.0982
     23 C          -1.4027    3.9049   22.1601 C.2     1  UNL1        0.2414
     24 O          -0.0666    4.4259   22.6001 O.2     1  UNL1       -0.2733
     25 N          -1.4815    2.7074   21.2604 N.am    1  UNL1       -0.2682
     26 H          -2.3584    2.3655   20.9716 H       1  UNL1        0.1563
     27 C          -2.6600    4.5815   22.6200 C.3     1  UNL1        0.1319
     28 C          -2.5802    5.8067   23.4818 C.3     1  UNL1        0.0270
     29 C          -4.7628    3.1559   23.1638 C.3     1  UNL1        0.0862
     30 N          -3.9970    4.0330   22.2182 N.3     1  UNL1       -0.2902
     31 H          -4.5936    4.8339   22.0108 H       1  UNL1        0.1237
     32 C           2.7457   -0.1265   22.3089 C.1     1  UNL1       -0.0404
     33 C           3.6021   -0.8668   23.2931 C.1     1  UNL1       -0.0583
     34 C           4.4584   -1.6071   24.2773 C.ar    1  UNL1        0.0420
     35 C           4.4432   -1.2185   25.7260 C.ar    1  UNL1        0.0083
     36 C           5.2995   -1.9588   26.7102 C.ar    1  UNL1        0.0018
     37 C           6.1711   -3.0877   26.2457 C.ar    1  UNL1        0.0137
     38 C           7.0274   -3.8280   27.2299 C.ar    1  UNL1        0.0594
     39 C           7.0121   -3.4394   28.6786 C.3     1  UNL1        0.0521
     40 N           7.8990   -4.9570   26.7654 N.ar    1  UNL1       -0.2481
     41 C           7.9143   -5.3456   25.3167 C.ar    1  UNL1        0.0984
     42 C           7.0580   -4.6053   24.3325 C.ar    1  UNL1        0.0207
     43 C           6.1863   -3.4763   24.7970 C.ar    1  UNL1        0.0033
     44 C           5.3300   -2.7360   23.8128 C.ar    1  UNL1        0.0083
@<TRIPOS>BOND
     1    29    30    1
     2    30    27    1
     3    27    28    1
     4    27    23    1
     5    23    24    2
     6    23    25   am
     7    25     1    1
     8     1     2   ar
     9     2     3   ar
    10     3     4   ar
    11     4     7    1
    12     7     8   ar
    13     8    17    1
    14    17    18   ar
    15    18    19   ar
    16    19    20   ar
    17    20    21    1
    18    20    22   ar
    19     8     9   ar
    20     9    10   ar
    21    10    11   ar
    22    11    12   ar
    23    12    13    1
    24    12    14   ar
    25    14    15   ar
    26    15    16   ar
    27     4     5   ar
    28     5    32    1
    29    32    33    3
    30    33    34    1
    31    34    35   ar
    32    35    36   ar
    33    36    37   ar
    34    37    38   ar
    35    38    39    1
    36    38    40   ar
    37    40    41   ar
    38    41    42   ar
    39    42    43   ar
    40    43    44   ar
    41     5     6   ar
    42     6     1   ar
    43    16     7   ar
    44    44    34   ar
    45    22    17   ar
    46    16    10   ar
    47    43    37   ar
    48    30    31    1
    49    25    26    1
@<TRIPOS>MOLECULE
*****
 44 49 0 0 0
SMALL
GASTEIGER

@<TRIPOS>ATOM
      1 C           1.4606    1.3925   19.0466 C.ar    1  UNL1        0.1348
      2 C           0.5387    2.3797   18.3943 C.ar    1  UNL1        0.0346
      3 C          -0.3208    3.2739   19.2379 C.ar    1  UNL1        0.0065
      4 C          -0.2586    3.1809   20.7336 C.ar    1  UNL1        0.0432
      5 C           0.6633    2.1937   21.3859 C.ar    1  UNL1        0.1256
      6 N           1.5228    1.2994   20.5424 N.ar    1  UNL1       -0.2222
      7 C          -1.1181    4.0751   21.5772 C.ar    1  UNL1        0.0851
      8 C          -0.6381    5.2152   22.4256 C.ar    1  UNL1        0.1021
      9 N          -1.8320    5.8309   23.0932 N.ar    1  UNL1       -0.2264
     10 C          -3.0498    5.0714   22.6573 C.ar    1  UNL1        0.1474
     11 C          -4.5035    5.2278   22.9925 C.ar    1  UNL1        0.0332
     12 C          -5.5160    4.2990   22.3907 C.ar    1  UNL1       -0.0174
     13 C          -6.9697    4.4553   22.7259 C.3     1  UNL1        0.0312
     14 C          -5.0749    3.2138   21.4538 C.ar    1  UNL1        0.0149
     15 C          -3.6212    3.0574   21.1186 C.ar    1  UNL1        0.0811
     16 N          -2.6086    3.9863   21.7204 N.ar    1  UNL1       -0.2888
     17 C           0.7857    5.6612   22.5795 C.ar    1  UNL1        0.0587
     18 C           1.6506    6.2384   21.4985 C.ar    1  UNL1        0.1232
     19 N           2.9942    6.5422   22.0923 N.ar    1  UNL1       -0.1675
     20 N           2.9595    6.1528   23.5405 N.ar    1  UNL1       -0.2473
     21 C           4.0912    6.2847   24.5163 C.3     1  UNL1        0.1538
     22 C           1.5947    5.6082   23.8416 C.ar    1  UNL1        0.0982
     23 C           3.8031    0.7169   18.1487 C.2     1  UNL1        0.2414
     24 O           4.4265    1.8298   18.9380 O.2     1  UNL1       -0.2733
     25 N           2.3201    0.4983   18.2031 N.am    1  UNL1       -0.2682
     26 H           1.9109   -0.2321   17.6851 H       1  UNL1        0.1563
     27 C           4.6626   -0.1773   17.3052 C.3     1  UNL1        0.1319
     28 C           5.8659    0.3816   16.6052 C.3     1  UNL1        0.0270
     29 C           4.7337   -2.6073   18.2216 C.3     1  UNL1        0.0862
     30 N           4.3190   -1.6303   17.1617 N.3     1  UNL1       -0.2902
     31 H           3.3031   -1.6869   17.0902 H       1  UNL1        0.1237
     32 C           0.7256    2.1006   22.8818 C.1     1  UNL1       -0.0404
     33 C           0.7879    2.0075   24.3775 C.1     1  UNL1       -0.0583
     34 C           0.8503    1.9144   25.8734 C.ar    1  UNL1        0.0420
     35 C           0.1779    2.9556   26.7183 C.ar    1  UNL1        0.0083
     36 C           0.2402    2.8625   28.2141 C.ar    1  UNL1        0.0018
     37 C           0.9749    1.7283   28.8650 C.ar    1  UNL1        0.0137
     38 C           1.0372    1.6352   30.3608 C.ar    1  UNL1        0.0594
     39 C           0.3648    2.6764   31.2057 C.3     1  UNL1        0.0521
     40 N           1.7719    0.5010   31.0117 N.ar    1  UNL1       -0.2481
     41 C           2.4443   -0.5402   30.1669 C.ar    1  UNL1        0.0984
     42 C           2.3820   -0.4471   28.6711 C.ar    1  UNL1        0.0207
     43 C           1.6473    0.6871   28.0201 C.ar    1  UNL1        0.0033
     44 C           1.5850    0.7802   26.5243 C.ar    1  UNL1        0.0083
@<TRIPOS>BOND
     1    29    30    1
     2    30    27    1
     3    27    28    1
     4    27    23    1
     5    23    24    2
     6    23    25   am
     7    25     1    1
     8     1     2   ar
     9     2     3   ar
    10     3     4   ar
    11     4     7    1
    12     7     8   ar
    13     8    17    1
    14    17    18   ar
    15    18    19   ar
    16    19    20   ar
    17    20    21    1
    18    20    22   ar
    19     8     9   ar
    20     9    10   ar
    21    10    11   ar
    22    11    12   ar
    23    12    13    1
    24    12    14   ar
    25    14    15   ar
    26    15    16   ar
    27     4     5   ar
    28     5    32    1
    29    32    33    3
    30    33    34    1
    31    34    35   ar
    32    35    36   ar
    33    36    37   ar
    34    37    38   ar
    35    38    39    1
    36    38    40   ar
    37    40    41   ar
    38    41    42   ar
    39    42    43   ar
    40    43    44   ar
    41     5     6   ar
    42     6     1   ar
    43    16     7   ar
    44    44    34   ar
    45    22    17   ar
    46    16    10   ar
    47    43    37   ar
    48    30    31    1
    49    25    26    1
@<TRIPOS>MOLECULE
*****
 44 49 0 0 0
SMALL
GASTEIGER

@<TRIPOS>ATOM
      1 C           3.9640   -1.7036   22.7376 C.ar    1  UNL1        0.1348
      2 C           5.1525   -1.5900   23.6455 C.ar    1  UNL1        0.0346
      3 C           5.1223   -0.6389   24.8051 C.ar    1  UNL1        0.0065
      4 C           3.9035    0.1984   25.0567 C.ar    1  UNL1        0.0432
      5 C           2.7150    0.0848   24.1487 C.ar    1  UNL1        0.1256
      6 N           2.7452   -0.8663   22.9892 N.ar    1  UNL1       -0.2222
      7 C           3.8733    1.1495   26.2163 C.ar    1  UNL1        0.0851
      8 C           4.1770    2.6174   26.1608 C.ar    1  UNL1        0.1021
      9 N           4.0255    3.1747   27.5452 N.ar    1  UNL1       -0.2264
     10 C           3.6281    2.0513   28.4562 C.ar    1  UNL1        0.1474
     11 C           3.3397    2.0063   29.9275 C.ar    1  UNL1        0.0332
     12 C           2.9573    0.7097   30.5775 C.ar    1  UNL1       -0.0174
     13 C           2.6689    0.6648   32.0489 C.3     1  UNL1        0.0312
     14 C           2.8632   -0.5420   29.7563 C.ar    1  UNL1        0.0149
     15 C           3.1516   -0.4970   28.2850 C.ar    1  UNL1        0.0811
     16 N           3.5340    0.7997   27.6349 N.ar    1  UNL1       -0.2888
     17 C           4.5643    3.3919   24.9361 C.ar    1  UNL1        0.0587
     18 C           5.9554    3.8063   24.5582 C.ar    1  UNL1        0.1232
     19 N           5.8794    4.5586   23.2627 N.ar    1  UNL1       -0.1675
     20 N           4.4410    4.6092   22.8400 N.ar    1  UNL1       -0.2473
     21 C           3.9089    5.2656   21.6005 C.3     1  UNL1        0.1538
     22 C           3.6283    3.8881   23.8741 C.ar    1  UNL1        0.0982
     23 C           4.2632   -2.1420   20.1943 C.2     1  UNL1        0.2414
     24 O           4.5020   -0.6781   19.9701 O.2     1  UNL1       -0.2733
     25 N           3.9942   -2.6547   21.5780 N.am    1  UNL1       -0.2682
     26 H           3.8374   -3.6154   21.7251 H       1  UNL1        0.1563
     27 C           4.2934   -3.0930   19.0347 C.3     1  UNL1        0.1319
     28 C           3.5443   -4.3905   19.1091 C.3     1  UNL1        0.0270
     29 C           6.5334   -2.4209   17.9029 C.3     1  UNL1        0.0862
     30 N           5.0727   -2.7466   17.8008 N.3     1  UNL1       -0.2902
     31 H           4.9921   -3.5429   17.1684 H       1  UNL1        0.1237
     32 C           1.4961    0.9222   24.4003 C.1     1  UNL1       -0.0404
     33 C           0.2773    1.7595   24.6519 C.1     1  UNL1       -0.0583
     34 C          -0.9415    2.5970   24.9035 C.ar    1  UNL1        0.0420
     35 C          -1.4408    2.7929   26.3044 C.ar    1  UNL1        0.0083
     36 C          -2.6595    3.6302   26.5560 C.ar    1  UNL1        0.0018
     37 C          -3.3791    4.2717   25.4068 C.ar    1  UNL1        0.0137
     38 C          -4.5979    5.1091   25.6584 C.ar    1  UNL1        0.0594
     39 C          -5.0972    5.3050   27.0592 C.3     1  UNL1        0.0521
     40 N          -5.3175    5.7505   24.5091 N.ar    1  UNL1       -0.2481
     41 C          -4.8182    5.5546   23.1083 C.ar    1  UNL1        0.0984
     42 C          -3.5994    4.7173   22.8567 C.ar    1  UNL1        0.0207
     43 C          -2.8798    4.0758   24.0059 C.ar    1  UNL1        0.0033
     44 C          -1.6611    3.2384   23.7543 C.ar    1  UNL1        0.0083
@<TRIPOS>BOND
     1    29    30    1
     2    30    27    1
     3    27    28    1
     4    27    23    1
     5    23    24    2
     6    23    25   am
     7    25     1    1
     8     1     2   ar
     9     2     3   ar
    10     3     4   ar
    11     4     7    1
    12     7     8   ar
    13     8    17    1
    14    17    18   ar
    15    18    19   ar
    16    19    20   ar
    17    20    21    1
    18    20    22   ar
    19     8     9   ar
    20     9    10   ar
    21    10    11   ar
    22    11    12   ar
    23    12    13    1
    24    12    14   ar
    25    14    15   ar
    26    15    16   ar
    27     4     5   ar
    28     5    32    1
    29    32    33    3
    30    33    34    1
    31    34    35   ar
    32    35    36   ar
    33    36    37   ar
    34    37    38   ar
    35    38    39    1
    36    38    40   ar
    37    40    41   ar
    38    41    42   ar
    39    42    43   ar
    40    43    44   ar
    41     5     6   ar
    42     6     1   ar
    43    16     7   ar
    44    44    34   ar
    45    22    17   ar
    46    16    10   ar
    47    43    37   ar
    48    30    31    1
    49    25    26    1
