@<TRIPOS>MOLECULE
*****
 26 28 0 0 0
SMALL
GASTEIGER

@<TRIPOS>ATOM
      1 S          -6.7065  -19.6818   20.1801 S.O2    1  UNL1        0.0129
      2 O          -6.3735  -21.1433   20.1264 O.2     1  UNL1       -0.1683
      3 O          -7.0395  -18.2202   20.2338 O.2     1  UNL1       -0.1683
      4 C          -5.2917  -19.3739   20.5720 C.ar    1  UNL1        0.1066
      5 C          -4.8138  -19.6825   21.9599 C.ar    1  UNL1        0.0199
      6 C          -3.3990  -19.3746   22.3518 C.ar    1  UNL1        0.0210
      7 C          -2.4621  -18.7581   21.3557 C.ar    1  UNL1        0.0893
      8 N          -1.0231  -18.3459   21.4529 N.ar    1  UNL1       -0.2245
      9 C          -0.6117  -17.7825   20.1250 C.ar    1  UNL1        0.1567
     10 N           0.7461  -17.2487   19.7761 N.pl3   1  UNL1       -0.3375
     11 S          -1.7964  -17.8465   19.2072 S.2     1  UNL1       -0.0519
     12 C          -2.9400  -18.4495   19.9678 C.ar    1  UNL1        0.0510
     13 C          -4.3548  -18.7573   19.5759 C.ar    1  UNL1        0.0264
     14 H           1.4633  -17.2490   20.4506 H       1  UNL1        0.1442
     15 H           0.9200  -16.8982   18.8728 H       1  UNL1        0.1442
     16 C          -8.1212  -19.9897   19.7882 C.3     1  UNL1        0.1822
     17 C         -11.5362  -18.0070   21.9462 C.ar    1  UNL1        0.0756
     18 C         -10.4383  -18.6674   22.7264 C.ar    1  UNL1        0.0062
     19 C          -9.3000  -19.3283   22.0070 C.ar    1  UNL1       -0.0023
     20 C          -9.2595  -19.3288   20.5075 C.ar    1  UNL1        0.0017
     21 C         -10.3574  -18.6684   19.7275 C.ar    1  UNL1       -0.0023
     22 C         -11.4957  -18.0075   20.4468 C.ar    1  UNL1        0.0062
     23 C         -12.6745  -17.3461   22.6656 C.2     1  UNL1        0.3413
     24 O         -12.7045  -15.8535   22.8106 O.2     1  UNL1       -0.2449
     25 C         -14.0153  -18.1975   24.7217 C.3     1  UNL1        0.2560
     26 O         -13.7828  -18.1779   23.2399 O.3     1  UNL1       -0.4413
@<TRIPOS>BOND
     1    25    26    1
     2    26    23    1
     3    23    24    2
     4    23    17    1
     5    17    18   ar
     6    18    19   ar
     7    19    20   ar
     8    20    16    1
     9    16     1    1
    10     1     2    2
    11     1     3    2
    12     1     4    1
    13     4     5   ar
    14     5     6   ar
    15     6     7   ar
    16     7     8   ar
    17     8     9   ar
    18     9    10    1
    19     9    11   ar
    20    11    12   ar
    21    12    13   ar
    22    20    21   ar
    23    21    22   ar
    24    22    17   ar
    25    13     4   ar
    26    12     7   ar
    27    10    14    1
    28    10    15    1
@<TRIPOS>MOLECULE
*****
 26 28 0 0 0
SMALL
GASTEIGER

@<TRIPOS>ATOM
      1 S          -7.4370  -20.2446   20.7425 S.O2    1  UNL1        0.0129
      2 O          -7.7296  -20.3736   19.2770 O.2     1  UNL1       -0.1683
      3 O          -7.1444  -20.1157   22.2080 O.2     1  UNL1       -0.1683
      4 C          -8.7653  -19.5790   20.9491 C.ar    1  UNL1        0.1066
      5 C          -9.4555  -18.9089   19.7982 C.ar    1  UNL1        0.0199
      6 C         -10.7837  -18.2433   20.0048 C.ar    1  UNL1        0.0210
      7 C         -11.4217  -18.2477   21.3624 C.ar    1  UNL1        0.0893
      8 N         -12.7147  -17.6775   21.8656 N.ar    1  UNL1       -0.2245
      9 C         -12.8236  -17.9952   23.3275 C.ar    1  UNL1        0.1567
     10 N         -13.9588  -17.6134   24.2306 N.pl3   1  UNL1       -0.3375
     11 S         -11.5979  -18.7617   23.7278 S.2     1  UNL1       -0.0519
     12 C         -10.7315  -18.9177   22.5133 C.ar    1  UNL1        0.0510
     13 C          -9.4033  -19.5833   22.3066 C.ar    1  UNL1        0.0264
     14 H         -14.7237  -17.1073   23.8728 H       1  UNL1        0.1442
     15 H         -13.9390  -17.8690   25.1811 H       1  UNL1        0.1442
     16 C          -6.1088  -20.9103   20.5358 C.3     1  UNL1        0.1822
     17 C          -2.3680  -18.4260   20.2446 C.ar    1  UNL1        0.0756
     18 C          -3.4932  -18.2036   19.2778 C.ar    1  UNL1        0.0062
     19 C          -4.7401  -19.0317   19.3749 C.ar    1  UNL1       -0.0023
     20 C          -4.8619  -20.0822   20.4388 C.ar    1  UNL1        0.0017
     21 C          -3.7367  -20.3045   21.4055 C.ar    1  UNL1       -0.0023
     22 C          -2.4898  -19.4764   21.3084 C.ar    1  UNL1        0.0062
     23 C          -1.1211  -17.5979   20.1475 C.2     1  UNL1        0.3413
     24 O           0.0477  -18.0930   19.3483 O.2     1  UNL1       -0.2449
     25 C          -2.0740  -15.9080   21.8757 C.3     1  UNL1        0.2560
     26 O          -1.0430  -16.2746   20.8497 O.3     1  UNL1       -0.4413
@<TRIPOS>BOND
     1    25    26    1
     2    26    23    1
     3    23    24    2
     4    23    17    1
     5    17    18   ar
     6    18    19   ar
     7    19    20   ar
     8    20    16    1
     9    16     1    1
    10     1     2    2
    11     1     3    2
    12     1     4    1
    13     4     5   ar
    14     5     6   ar
    15     6     7   ar
    16     7     8   ar
    17     8     9   ar
    18     9    10    1
    19     9    11   ar
    20    11    12   ar
    21    12    13   ar
    22    20    21   ar
    23    21    22   ar
    24    22    17   ar
    25    13     4   ar
    26    12     7   ar
    27    10    14    1
    28    10    15    1
@<TRIPOS>MOLECULE
*****
 26 28 0 0 0
SMALL
GASTEIGER

@<TRIPOS>ATOM
      1 S          -6.3316  -19.7823   21.8694 S.O2    1  UNL1        0.0129
      2 O          -6.1958  -18.4720   22.5868 O.2     1  UNL1       -0.1683
      3 O          -6.4674  -21.0926   21.1520 O.2     1  UNL1       -0.1683
      4 C          -5.0282  -19.5342   21.1696 C.ar    1  UNL1        0.1066
      5 C          -4.6332  -20.3821   19.9970 C.ar    1  UNL1        0.0199
      6 C          -3.3298  -20.1340   19.2973 C.ar    1  UNL1        0.0210
      7 C          -2.4215  -19.0379   19.7701 C.ar    1  UNL1        0.0893
      8 N          -1.0850  -18.5619   19.2831 N.ar    1  UNL1       -0.2245
      9 C          -0.6540  -17.4197   20.1547 C.ar    1  UNL1        0.1567
     10 N           0.6229  -16.6436   20.0236 N.pl3   1  UNL1       -0.3375
     11 S          -1.7242  -17.1899   21.1803 S.2     1  UNL1       -0.0519
     12 C          -2.8165  -18.1900   20.9426 C.ar    1  UNL1        0.0510
     13 C          -4.1199  -18.4381   21.6424 C.ar    1  UNL1        0.0264
     14 H           1.2665  -16.8708   19.3142 H       1  UNL1        0.1442
     15 H           0.8174  -15.9069   20.6471 H       1  UNL1        0.1442
     16 C          -7.6349  -20.0304   22.5692 C.3     1  UNL1        0.1822
     17 C         -11.1641  -17.3561   21.7671 C.ar    1  UNL1        0.0756
     18 C         -10.2696  -17.0858   22.9406 C.ar    1  UNL1        0.0062
     19 C          -9.0932  -17.9772   23.2079 C.ar    1  UNL1       -0.0023
     20 C          -8.8113  -19.1389   22.3018 C.ar    1  UNL1        0.0017
     21 C          -9.7058  -19.4092   21.1285 C.ar    1  UNL1       -0.0023
     22 C         -10.8822  -18.5178   20.8611 C.ar    1  UNL1        0.0062
     23 C         -12.3405  -16.4647   21.4998 C.2     1  UNL1        0.3413
     24 O         -13.1176  -15.8849   22.6443 O.2     1  UNL1       -0.2449
     25 C         -11.7370  -15.5714   19.1359 C.3     1  UNL1        0.2560
     26 O         -12.7397  -16.1530   20.0878 O.3     1  UNL1       -0.4413
@<TRIPOS>BOND
     1    25    26    1
     2    26    23    1
     3    23    24    2
     4    23    17    1
     5    17    18   ar
     6    18    19   ar
     7    19    20   ar
     8    20    16    1
     9    16     1    1
    10     1     2    2
    11     1     3    2
    12     1     4    1
    13     4     5   ar
    14     5     6   ar
    15     6     7   ar
    16     7     8   ar
    17     8     9   ar
    18     9    10    1
    19     9    11   ar
    20    11    12   ar
    21    12    13   ar
    22    20    21   ar
    23    21    22   ar
    24    22    17   ar
    25    13     4   ar
    26    12     7   ar
    27    10    14    1
    28    10    15    1
@<TRIPOS>MOLECULE
*****
 26 28 0 0 0
SMALL
GASTEIGER

@<TRIPOS>ATOM
      1 S          -5.7226  -16.6231   23.8986 S.O2    1  UNL1        0.0129
      2 O          -5.7989  -15.7563   25.1204 O.2     1  UNL1       -0.1683
      3 O          -5.6463  -17.4899   22.6768 O.2     1  UNL1       -0.1683
      4 C          -7.2023  -16.4754   23.7016 C.ar    1  UNL1        0.1066
      5 C          -8.0260  -15.7477   24.7223 C.ar    1  UNL1        0.0199
      6 C          -9.5056  -15.6001   24.5252 C.ar    1  UNL1        0.0210
      7 C         -10.1616  -16.1803   23.3074 C.ar    1  UNL1        0.0893
      8 N         -11.5888  -16.1929   22.8459 N.ar    1  UNL1       -0.2245
      9 C         -11.6472  -16.9284   21.5399 C.ar    1  UNL1        0.1567
     10 N         -12.8802  -17.1781   20.7230 N.pl3   1  UNL1       -0.3375
     11 S         -10.2561  -17.3703   21.1943 S.2     1  UNL1       -0.0519
     12 C          -9.3379  -16.9080   22.2866 C.ar    1  UNL1        0.0510
     13 C          -7.8583  -17.0556   22.4837 C.ar    1  UNL1        0.0264
     14 H         -13.7530  -16.8464   21.0351 H       1  UNL1        0.1442
     15 H         -12.8167  -17.6737   19.8747 H       1  UNL1        0.1442
     16 C          -4.2430  -16.7707   24.0957 C.3     1  UNL1        0.1822
     17 C          -1.6113  -17.8928   20.6223 C.ar    1  UNL1        0.0756
     18 C          -1.7063  -16.4610   21.0594 C.ar    1  UNL1        0.0062
     19 C          -2.5835  -16.0870   22.2172 C.ar    1  UNL1       -0.0023
     20 C          -3.3658  -17.1447   22.9379 C.ar    1  UNL1        0.0017
     21 C          -3.2707  -18.5764   22.5008 C.ar    1  UNL1       -0.0023
     22 C          -2.3935  -18.9505   21.3430 C.ar    1  UNL1        0.0062
     23 C          -0.7340  -18.2669   19.4645 C.2     1  UNL1        0.3413
     24 O           0.5661  -18.9748   19.7066 O.2     1  UNL1       -0.2449
     25 C          -2.5129  -17.3439   17.8111 C.3     1  UNL1        0.2560
     26 O          -1.1569  -17.9330   18.0645 O.3     1  UNL1       -0.4413
@<TRIPOS>BOND
     1    25    26    1
     2    26    23    1
     3    23    24    2
     4    23    17    1
     5    17    18   ar
     6    18    19   ar
     7    19    20   ar
     8    20    16    1
     9    16     1    1
    10     1     2    2
    11     1     3    2
    12     1     4    1
    13     4     5   ar
    14     5     6   ar
    15     6     7   ar
    16     7     8   ar
    17     8     9   ar
    18     9    10    1
    19     9    11   ar
    20    11    12   ar
    21    12    13   ar
    22    20    21   ar
    23    21    22   ar
    24    22    17   ar
    25    13     4   ar
    26    12     7   ar
    27    10    14    1
    28    10    15    1
@<TRIPOS>MOLECULE
*****
 26 28 0 0 0
SMALL
GASTEIGER

@<TRIPOS>ATOM
      1 S          -8.8094  -19.3907   20.4684 S.O2    1  UNL1        0.0129
      2 O          -9.2340  -18.6762   19.2198 O.2     1  UNL1       -0.1683
      3 O          -8.3849  -20.1051   21.7171 O.2     1  UNL1       -0.1683
      4 C         -10.0511  -18.9149   21.1628 C.ar    1  UNL1        0.1066
      5 C         -11.0086  -18.0074   20.4490 C.ar    1  UNL1        0.0199
      6 C         -12.2501  -17.5316   21.1433 C.ar    1  UNL1        0.0210
      7 C         -12.5342  -17.9634   22.5515 C.ar    1  UNL1        0.0893
      8 N         -13.6678  -17.6587   23.4854 N.ar    1  UNL1       -0.2245
      9 C         -13.4109  -18.3780   24.7764 C.ar    1  UNL1        0.1567
     10 N         -14.2917  -18.3526   25.9903 N.pl3   1  UNL1       -0.3375
     11 S         -12.1185  -19.1271   24.6403 S.2     1  UNL1       -0.0519
     12 C         -11.5767  -18.8709   23.2653 C.ar    1  UNL1        0.0510
     13 C         -10.3351  -19.3466   22.5709 C.ar    1  UNL1        0.0264
     14 H         -15.1251  -17.8284   25.9829 H       1  UNL1        0.1442
     15 H         -14.0365  -18.8601   26.7944 H       1  UNL1        0.1442
     16 C          -7.5679  -19.8664   19.7741 C.3     1  UNL1        0.1822
     17 C          -3.5187  -18.7874   21.4142 C.ar    1  UNL1        0.0756
     18 C          -3.7671  -18.7360   19.9358 C.ar    1  UNL1        0.0062
     19 C          -5.1168  -19.0957   19.3891 C.ar    1  UNL1       -0.0023
     20 C          -6.2182  -19.5067   20.3208 C.ar    1  UNL1        0.0017
     21 C          -5.9698  -19.5581   21.7992 C.ar    1  UNL1       -0.0023
     22 C          -4.6201  -19.1984   22.3459 C.ar    1  UNL1        0.0062
     23 C          -2.1690  -18.4277   21.9610 C.2     1  UNL1        0.3413
     24 O          -2.0582  -17.7141   23.2757 O.2     1  UNL1       -0.2449
     25 C          -0.3561  -17.8087   20.2059 C.3     1  UNL1        0.2560
     26 O          -0.9301  -18.7815   21.1929 O.3     1  UNL1       -0.4413
@<TRIPOS>BOND
     1    25    26    1
     2    26    23    1
     3    23    24    2
     4    23    17    1
     5    17    18   ar
     6    18    19   ar
     7    19    20   ar
     8    20    16    1
     9    16     1    1
    10     1     2    2
    11     1     3    2
    12     1     4    1
    13     4     5   ar
    14     5     6   ar
    15     6     7   ar
    16     7     8   ar
    17     8     9   ar
    18     9    10    1
    19     9    11   ar
    20    11    12   ar
    21    12    13   ar
    22    20    21   ar
    23    21    22   ar
    24    22    17   ar
    25    13     4   ar
    26    12     7   ar
    27    10    14    1
    28    10    15    1
@<TRIPOS>MOLECULE
*****
 26 28 0 0 0
SMALL
GASTEIGER

@<TRIPOS>ATOM
      1 S          -7.8630  -19.9900   22.1816 S.O2    1  UNL1        0.0129
      2 O          -7.3851  -19.4127   20.8823 O.2     1  UNL1       -0.1683
      3 O          -8.3409  -20.5673   23.4809 O.2     1  UNL1       -0.1683
      4 C          -9.1811  -19.2960   22.0051 C.ar    1  UNL1        0.1066
      5 C         -10.3352  -19.6394   22.8995 C.ar    1  UNL1        0.0199
      6 C         -11.6532  -18.9455   22.7230 C.ar    1  UNL1        0.0210
      7 C         -11.8172  -17.9082   21.6519 C.ar    1  UNL1        0.0893
      8 N         -12.9877  -17.0637   21.2433 N.ar    1  UNL1       -0.2245
      9 C         -12.5569  -16.1985   20.0962 C.ar    1  UNL1        0.1567
     10 N         -13.4126  -15.1989   19.3758 N.pl3   1  UNL1       -0.3375
     11 S         -11.1203  -16.5082   19.7959 S.2     1  UNL1       -0.0519
     12 C         -10.6631  -17.5649   20.7574 C.ar    1  UNL1        0.0510
     13 C          -9.3451  -18.2588   20.9340 C.ar    1  UNL1        0.0264
     14 H         -14.3493  -15.0661   19.6479 H       1  UNL1        0.1442
     15 H         -13.0373  -14.6758   18.6310 H       1  UNL1        0.1442
     16 C          -6.5449  -20.6838   22.3581 C.3     1  UNL1        0.1822
     17 C          -2.8610  -19.0616   20.3464 C.ar    1  UNL1        0.0756
     18 C          -3.2746  -18.5372   21.6896 C.ar    1  UNL1        0.0062
     19 C          -4.5026  -19.0779   22.3602 C.ar    1  UNL1       -0.0023
     20 C          -5.3169  -20.1431   21.6876 C.ar    1  UNL1        0.0017
     21 C          -4.9033  -20.6674   20.3445 C.ar    1  UNL1       -0.0023
     22 C          -3.6753  -20.1267   19.6739 C.ar    1  UNL1        0.0062
     23 C          -1.6330  -18.5209   19.6759 C.2     1  UNL1        0.3413
     24 O          -1.6965  -18.0676   18.2474 O.2     1  UNL1       -0.2449
     25 C           0.6438  -17.3485   20.1140 C.3     1  UNL1        0.2560
     26 O          -0.3415  -18.4334   20.4338 O.3     1  UNL1       -0.4413
@<TRIPOS>BOND
     1    25    26    1
     2    26    23    1
     3    23    24    2
     4    23    17    1
     5    17    18   ar
     6    18    19   ar
     7    19    20   ar
     8    20    16    1
     9    16     1    1
    10     1     2    2
    11     1     3    2
    12     1     4    1
    13     4     5   ar
    14     5     6   ar
    15     6     7   ar
    16     7     8   ar
    17     8     9   ar
    18     9    10    1
    19     9    11   ar
    20    11    12   ar
    21    12    13   ar
    22    20    21   ar
    23    21    22   ar
    24    22    17   ar
    25    13     4   ar
    26    12     7   ar
    27    10    14    1
    28    10    15    1
@<TRIPOS>MOLECULE
*****
 26 28 0 0 0
SMALL
GASTEIGER

@<TRIPOS>ATOM
      1 S         -12.8846   -5.6964   19.0684 S.O2    1  UNL1        0.0129
      2 O         -12.3966   -5.8777   17.6617 O.2     1  UNL1       -0.1683
      3 O         -13.3726   -5.5151   20.4752 O.2     1  UNL1       -0.1683
      4 C         -13.9173   -6.7617   18.8475 C.ar    1  UNL1        0.1066
      5 C         -13.6271   -7.9074   17.9239 C.ar    1  UNL1        0.0199
      6 C         -14.6597   -8.9727   17.7030 C.ar    1  UNL1        0.0210
      7 C         -15.9825   -8.8923   18.4057 C.ar    1  UNL1        0.0893
      8 N         -17.1862   -9.7872   18.3848 N.ar    1  UNL1       -0.2245
      9 C         -18.2202   -9.1945   19.2955 C.ar    1  UNL1        0.1567
     10 N         -19.5802   -9.7631   19.5738 N.pl3   1  UNL1       -0.3375
     11 S         -17.6556   -7.9333   19.8793 S.2     1  UNL1       -0.0519
     12 C         -16.2726   -7.7466   19.3293 C.ar    1  UNL1        0.0510
     13 C         -15.2400   -6.6813   19.5502 C.ar    1  UNL1        0.0264
     14 H         -19.8616  -10.6009   19.1400 H       1  UNL1        0.1442
     15 H         -20.1913   -9.2984   20.1900 H       1  UNL1        0.1442
     16 C         -11.8520   -4.6311   19.2893 C.3     1  UNL1        0.1822
     17 C         -12.7068   -0.3828   18.0762 C.ar    1  UNL1        0.0756
     18 C         -13.8163   -1.2557   18.5833 C.ar    1  UNL1        0.0062
     19 C         -13.5314   -2.6718   18.9876 C.ar    1  UNL1       -0.0023
     20 C         -12.1369   -3.2150   18.8849 C.ar    1  UNL1        0.0017
     21 C         -11.0275   -2.3421   18.3779 C.ar    1  UNL1       -0.0023
     22 C         -11.3124   -0.9260   17.9735 C.ar    1  UNL1        0.0062
     23 C         -12.9917    1.0333   17.6719 C.2     1  UNL1        0.3413
     24 O         -11.8591    1.9711   17.3760 O.2     1  UNL1       -0.2449
     25 C         -15.0538    2.2160   18.7202 C.3     1  UNL1        0.2560
     26 O         -14.4093    1.5115   17.5633 O.3     1  UNL1       -0.4413
@<TRIPOS>BOND
     1    25    26    1
     2    26    23    1
     3    23    24    2
     4    23    17    1
     5    17    18   ar
     6    18    19   ar
     7    19    20   ar
     8    20    16    1
     9    16     1    1
    10     1     2    2
    11     1     3    2
    12     1     4    1
    13     4     5   ar
    14     5     6   ar
    15     6     7   ar
    16     7     8   ar
    17     8     9   ar
    18     9    10    1
    19     9    11   ar
    20    11    12   ar
    21    12    13   ar
    22    20    21   ar
    23    21    22   ar
    24    22    17   ar
    25    13     4   ar
    26    12     7   ar
    27    10    14    1
    28    10    15    1
@<TRIPOS>MOLECULE
*****
 26 28 0 0 0
SMALL
GASTEIGER

@<TRIPOS>ATOM
      1 S          -7.7107  -16.3028   23.5690 S.O2    1  UNL1        0.0129
      2 O          -7.9112  -17.0117   24.8756 O.2     1  UNL1       -0.1683
      3 O          -7.5103  -15.5939   22.2624 O.2     1  UNL1       -0.1683
      4 C          -9.1509  -16.5373   23.2209 C.ar    1  UNL1        0.1066
      5 C          -9.6918  -16.0604   21.9057 C.ar    1  UNL1        0.0199
      6 C         -11.1319  -16.2950   21.5576 C.ar    1  UNL1        0.0210
      7 C         -12.0310  -17.0065   22.5248 C.ar    1  UNL1        0.0893
      8 N         -13.4827  -17.3785   22.4583 N.ar    1  UNL1       -0.2245
      9 C         -13.8388  -18.0854   23.7325 C.ar    1  UNL1        0.1567
     10 N         -15.1893  -18.6316   24.0900 N.pl3   1  UNL1       -0.3375
     11 S         -12.6073  -18.1502   24.5864 S.2     1  UNL1       -0.0519
     12 C         -11.4900  -17.4834   23.8401 C.ar    1  UNL1        0.0510
     13 C         -10.0500  -17.2488   24.1881 C.ar    1  UNL1        0.0264
     14 H         -15.9401  -18.5398   23.4597 H       1  UNL1        0.1442
     15 H         -15.3250  -19.0819   24.9549 H       1  UNL1        0.1442
     16 C          -6.2707  -16.0683   23.9171 C.3     1  UNL1        0.1822
     17 C          -3.0354  -18.3183   21.7445 C.ar    1  UNL1        0.0756
     18 C          -2.7448  -16.9700   22.3343 C.ar    1  UNL1        0.0062
     19 C          -3.8233  -16.2200   23.0585 C.ar    1  UNL1       -0.0023
     20 C          -5.1923  -16.8183   23.1929 C.ar    1  UNL1        0.0017
     21 C          -5.4828  -18.1665   22.6032 C.ar    1  UNL1       -0.0023
     22 C          -4.4043  -18.9165   21.8790 C.ar    1  UNL1        0.0062
     23 C          -1.9570  -19.0683   21.0203 C.2     1  UNL1        0.3413
     24 O          -1.7124  -20.5155   21.3298 O.2     1  UNL1       -0.2449
     25 C          -1.7538  -17.8912   18.7131 C.3     1  UNL1        0.2560
     26 O          -1.1230  -18.3711   19.9866 O.3     1  UNL1       -0.4413
@<TRIPOS>BOND
     1    25    26    1
     2    26    23    1
     3    23    24    2
     4    23    17    1
     5    17    18   ar
     6    18    19   ar
     7    19    20   ar
     8    20    16    1
     9    16     1    1
    10     1     2    2
    11     1     3    2
    12     1     4    1
    13     4     5   ar
    14     5     6   ar
    15     6     7   ar
    16     7     8   ar
    17     8     9   ar
    18     9    10    1
    19     9    11   ar
    20    11    12   ar
    21    12    13   ar
    22    20    21   ar
    23    21    22   ar
    24    22    17   ar
    25    13     4   ar
    26    12     7   ar
    27    10    14    1
    28    10    15    1
@<TRIPOS>MOLECULE
*****
 26 28 0 0 0
SMALL
GASTEIGER

@<TRIPOS>ATOM
      1 S           8.4619   -4.6348   21.7744 S.O2    1  UNL1        0.0129
      2 O           8.5316   -3.3104   22.4751 O.2     1  UNL1       -0.1683
      3 O           8.3922   -5.9592   21.0737 O.2     1  UNL1       -0.1683
      4 C           8.2719   -5.3228   23.0938 C.ar    1  UNL1        0.1066
      5 C           8.6209   -6.7743   23.2399 C.ar    1  UNL1        0.0199
      6 C           8.4309   -7.4622   24.5592 C.ar    1  UNL1        0.0210
      7 C           7.8920   -6.6986   25.7324 C.ar    1  UNL1        0.0893
      8 N           7.5996   -7.1057   27.1463 N.ar    1  UNL1       -0.2245
      9 C           7.0700   -5.9057   27.8740 C.ar    1  UNL1        0.1567
     10 N           6.6492   -5.8620   29.3131 N.pl3   1  UNL1       -0.3375
     11 S           7.0351   -4.7571   26.9099 S.2     1  UNL1       -0.0519
     12 C           7.5431   -5.2471   25.5864 C.ar    1  UNL1        0.0510
     13 C           7.7330   -4.5592   24.2671 C.ar    1  UNL1        0.0264
     14 H           6.7094   -6.6727   29.8685 H       1  UNL1        0.1442
     15 H           6.3128   -5.0226   29.7024 H       1  UNL1        0.1442
     16 C           8.6518   -3.9468   20.4552 C.3     1  UNL1        0.1822
     17 C           5.1835   -1.8657   18.4828 C.ar    1  UNL1        0.0756
     18 C           4.9345   -2.9750   19.4614 C.ar    1  UNL1        0.0062
     19 C           6.0906   -3.6687   20.1189 C.ar    1  UNL1       -0.0023
     20 C           7.4957   -3.2531   19.7977 C.ar    1  UNL1        0.0017
     21 C           7.7447   -2.1439   18.8192 C.ar    1  UNL1       -0.0023
     22 C           6.5886   -1.4502   18.1617 C.ar    1  UNL1        0.0062
     23 C           4.0274   -1.1720   17.8254 C.2     1  UNL1        0.3413
     24 O           3.9583   -1.0831   16.3297 O.2     1  UNL1       -0.2449
     25 C           2.1993    0.6411   18.1732 C.3     1  UNL1        0.2560
     26 O           2.9404   -0.5673   18.6638 O.3     1  UNL1       -0.4413
@<TRIPOS>BOND
     1    25    26    1
     2    26    23    1
     3    23    24    2
     4    23    17    1
     5    17    18   ar
     6    18    19   ar
     7    19    20   ar
     8    20    16    1
     9    16     1    1
    10     1     2    2
    11     1     3    2
    12     1     4    1
    13     4     5   ar
    14     5     6   ar
    15     6     7   ar
    16     7     8   ar
    17     8     9   ar
    18     9    10    1
    19     9    11   ar
    20    11    12   ar
    21    12    13   ar
    22    20    21   ar
    23    21    22   ar
    24    22    17   ar
    25    13     4   ar
    26    12     7   ar
    27    10    14    1
    28    10    15    1
