@<TRIPOS>MOLECULE
*****
 16 18 0 0 0
SMALL
GASTEIGER

@<TRIPOS>ATOM
      1 O          -7.8880  -15.2791   22.9930 O.3     1  UNL1       -0.4716
      2 CL         -4.9944  -15.3457   23.7823 Cl      1  UNL1       -0.0581
      3 C          -6.0607  -15.3967   24.8361 C.ar    1  UNL1        0.1721
      4 N          -5.6802  -15.4809   26.2846 N.ar    1  UNL1       -0.2294
      5 C          -6.7464  -15.5319   27.3384 C.ar    1  UNL1        0.1001
      6 C          -8.1931  -15.4986   26.9438 C.ar    1  UNL1        0.0239
      7 C          -8.5737  -15.4143   25.4953 C.ar    1  UNL1        0.0410
      8 C          -7.5074  -15.3634   24.4415 C.ar    1  UNL1        0.1669
      9 C          -8.5085  -16.4620   22.3105 C.3     1  UNL1        0.2210
     10 C          -9.9309  -16.8365   22.6045 C.3     1  UNL1        0.0983
     11 C         -10.3929  -18.1145   23.2395 C.3     1  UNL1        0.0209
     12 C         -11.8886  -18.0666   23.3426 C.3     1  UNL1        0.0172
     13 C         -13.3517  -17.7371   23.3116 C.3     1  UNL1        0.0171
     14 C         -12.3510  -16.7590   22.7713 C.3     1  UNL1        0.0541
     15 N         -11.1411  -15.9987   22.3152 N.3     1  UNL1       -0.2966
     16 H         -11.0781  -15.1140   22.8188 H       1  UNL1        0.1233
@<TRIPOS>BOND
     1     2     3    1
     2     3     4   ar
     3     4     5   ar
     4     5     6   ar
     5     6     7   ar
     6     7     8   ar
     7     8     1    1
     8     1     9    1
     9    10     9    1
    10    10    11    1
    11    12    11    1
    12    12    13    1
    13    14    13    1
    14    14    15    1
    15     8     3   ar
    16    15    10    1
    17    14    12    1
    18    15    16    1
@<TRIPOS>MOLECULE
*****
 16 18 0 0 0
SMALL
GASTEIGER

@<TRIPOS>ATOM
      1 O          -4.9480  -15.8803   23.5750 O.3     1  UNL1       -0.4716
      2 CL         -7.8456  -15.8538   22.7983 Cl      1  UNL1       -0.0581
      3 C          -7.4539  -15.7065   24.2387 C.ar    1  UNL1        0.1721
      4 N          -8.5109  -15.5459   25.2908 N.ar    1  UNL1       -0.2294
      5 C          -8.1191  -15.3987   26.7312 C.ar    1  UNL1        0.1001
      6 C          -6.6704  -15.4119   27.1196 C.ar    1  UNL1        0.0239
      7 C          -5.6134  -15.5725   26.0675 C.ar    1  UNL1        0.0410
      8 C          -6.0051  -15.7198   24.6271 C.ar    1  UNL1        0.1669
      9 C          -4.1980  -17.1740   23.4567 C.3     1  UNL1        0.2210
     10 C          -3.1140  -17.3213   22.4305 C.3     1  UNL1        0.0983
     11 C          -2.5214  -18.6141   21.9534 C.3     1  UNL1        0.0209
     12 C          -1.4733  -18.2935   20.9292 C.3     1  UNL1        0.0172
     13 C          -0.5070  -17.6756   19.9626 C.3     1  UNL1        0.0171
     14 C          -1.4182  -16.8026   20.7734 C.3     1  UNL1        0.0541
     15 N          -2.4322  -16.2018   21.7012 N.3     1  UNL1       -0.2966
     16 H          -3.1179  -15.6689   21.1663 H       1  UNL1        0.1233
@<TRIPOS>BOND
     1     2     3    1
     2     3     4   ar
     3     4     5   ar
     4     5     6   ar
     5     6     7   ar
     6     7     8   ar
     7     8     1    1
     8     1     9    1
     9    10     9    1
    10    10    11    1
    11    12    11    1
    12    12    13    1
    13    14    13    1
    14    14    15    1
    15     8     3   ar
    16    15    10    1
    17    14    12    1
    18    15    16    1
@<TRIPOS>MOLECULE
*****
 16 18 0 0 0
SMALL
GASTEIGER

@<TRIPOS>ATOM
      1 O          -8.9357  -18.0009   21.0458 O.3     1  UNL1       -0.4716
      2 CL        -11.4425  -17.0837   19.6766 Cl      1  UNL1       -0.0581
      3 C         -11.4932  -17.5467   21.1024 C.ar    1  UNL1        0.1721
      4 N         -12.7972  -17.5512   21.8436 N.ar    1  UNL1       -0.2294
      5 C         -12.8479  -18.0143   23.2694 C.ar    1  UNL1        0.1001
      6 C         -11.5946  -18.4729   23.9541 C.ar    1  UNL1        0.0239
      7 C         -10.2905  -18.4684   23.2129 C.ar    1  UNL1        0.0410
      8 C         -10.2399  -18.0054   21.7870 C.ar    1  UNL1        0.1669
      9 C          -8.4151  -19.2688   20.4364 C.3     1  UNL1        0.2210
     10 C          -6.9380  -19.4702   20.2712 C.3     1  UNL1        0.0983
     11 C          -6.1903  -20.7485   20.5099 C.3     1  UNL1        0.0209
     12 C          -4.7393  -20.4970   20.2245 C.3     1  UNL1        0.0172
     13 C          -3.3854  -19.9545   19.8739 C.3     1  UNL1        0.0171
     14 C          -4.5902  -19.0632   19.8095 C.3     1  UNL1        0.0541
     15 N          -5.9491  -18.4287   19.8384 N.3     1  UNL1       -0.2966
     16 H          -6.1912  -18.0867   18.9084 H       1  UNL1        0.1233
@<TRIPOS>BOND
     1     2     3    1
     2     3     4   ar
     3     4     5   ar
     4     5     6   ar
     5     6     7   ar
     6     7     8   ar
     7     8     1    1
     8     1     9    1
     9    10     9    1
    10    10    11    1
    11    12    11    1
    12    12    13    1
    13    14    13    1
    14    14    15    1
    15     8     3   ar
    16    15    10    1
    17    14    12    1
    18    15    16    1
@<TRIPOS>MOLECULE
*****
 16 18 0 0 0
SMALL
GASTEIGER

@<TRIPOS>ATOM
      1 O          -9.1829  -18.3882   19.9624 O.3     1  UNL1       -0.4716
      2 CL         -8.4397  -16.5099   22.1804 Cl      1  UNL1       -0.0581
      3 C          -9.8731  -16.9038   21.9799 C.ar    1  UNL1        0.1721
      4 N         -10.9348  -16.3586   22.8884 N.ar    1  UNL1       -0.2294
      5 C         -12.3682  -16.7526   22.6879 C.ar    1  UNL1        0.1001
      6 C         -12.7398  -17.6917   21.5789 C.ar    1  UNL1        0.0239
      7 C         -11.6781  -18.2369   20.6704 C.ar    1  UNL1        0.0410
      8 C         -10.2447  -17.8429   20.8709 C.ar    1  UNL1        0.1669
      9 C          -8.4216  -19.6202   20.3531 C.3     1  UNL1        0.2210
     10 C          -6.9278  -19.6522   20.2210 C.3     1  UNL1        0.0983
     11 C          -6.0505  -20.8521   20.4219 C.3     1  UNL1        0.0209
     12 C          -4.6295  -20.4314   20.1899 C.3     1  UNL1        0.0172
     13 C          -3.3354  -19.7291   19.9033 C.3     1  UNL1        0.0171
     14 C          -4.6286  -18.9714   19.8456 C.3     1  UNL1        0.0541
     15 N          -6.0491  -18.4898   19.8648 N.3     1  UNL1       -0.2966
     16 H          -6.3055  -18.1311   18.9451 H       1  UNL1        0.1233
@<TRIPOS>BOND
     1     2     3    1
     2     3     4   ar
     3     4     5   ar
     4     5     6   ar
     5     6     7   ar
     6     7     8   ar
     7     8     1    1
     8     1     9    1
     9    10     9    1
    10    10    11    1
    11    12    11    1
    12    12    13    1
    13    14    13    1
    14    14    15    1
    15     8     3   ar
    16    15    10    1
    17    14    12    1
    18    15    16    1
@<TRIPOS>MOLECULE
*****
 16 18 0 0 0
SMALL
GASTEIGER

@<TRIPOS>ATOM
      1 O          -8.9610  -16.6597   21.4441 O.3     1  UNL1       -0.4716
      2 CL        -11.2587  -16.1235   19.5913 Cl      1  UNL1       -0.0581
      3 C         -11.4967  -16.8161   20.9004 C.ar    1  UNL1        0.1721
      4 N         -12.8835  -17.2405   21.2832 N.ar    1  UNL1       -0.2294
      5 C         -13.1215  -17.9330   22.5923 C.ar    1  UNL1        0.1001
      6 C         -11.9727  -18.2011   23.5187 C.ar    1  UNL1        0.0239
      7 C         -10.5859  -17.7767   23.1360 C.ar    1  UNL1        0.0410
      8 C         -10.3479  -17.0842   21.8268 C.ar    1  UNL1        0.1669
      9 C          -8.4014  -15.3687   21.9640 C.3     1  UNL1        0.2210
     10 C          -7.5342  -15.3660   23.1878 C.3     1  UNL1        0.0983
     11 C          -8.0004  -15.5677   24.5992 C.3     1  UNL1        0.0209
     12 C          -6.8029  -15.4874   25.4989 C.3     1  UNL1        0.0172
     13 C          -5.4486  -15.3593   26.1311 C.3     1  UNL1        0.0171
     14 C          -5.5965  -15.2360   24.6435 C.3     1  UNL1        0.0541
     15 N          -6.0485  -15.1609   23.2153 N.3     1  UNL1       -0.2966
     16 H          -5.5886  -15.8884   22.6679 H       1  UNL1        0.1233
@<TRIPOS>BOND
     1     2     3    1
     2     3     4   ar
     3     4     5   ar
     4     5     6   ar
     5     6     7   ar
     6     7     8   ar
     7     8     1    1
     8     1     9    1
     9    10     9    1
    10    10    11    1
    11    12    11    1
    12    12    13    1
    13    14    13    1
    14    14    15    1
    15     8     3   ar
    16    15    10    1
    17    14    12    1
    18    15    16    1
@<TRIPOS>MOLECULE
*****
 16 18 0 0 0
SMALL
GASTEIGER

@<TRIPOS>ATOM
      1 O          -3.8658  -16.8640   23.7573 O.3     1  UNL1       -0.4716
      2 CL         -4.3987  -19.5398   22.5099 Cl      1  UNL1       -0.0581
      3 C          -3.3936  -18.6122   21.8942 C.ar    1  UNL1        0.1721
      4 N          -2.6549  -19.0224   20.6549 N.ar    1  UNL1       -0.2294
      5 C          -1.6497  -18.0947   20.0392 C.ar    1  UNL1        0.1001
      6 C          -1.3832  -16.7568   20.6629 C.ar    1  UNL1        0.0239
      7 C          -2.1219  -16.3466   21.9023 C.ar    1  UNL1        0.0410
      8 C          -3.1271  -17.2743   22.5179 C.ar    1  UNL1        0.1669
      9 C          -4.9005  -15.7802   23.6895 C.3     1  UNL1        0.2210
     10 C          -5.9195  -15.6467   24.7821 C.3     1  UNL1        0.0983
     11 C          -5.6288  -15.5196   26.2481 C.3     1  UNL1        0.0209
     12 C          -6.9378  -15.4113   26.9726 C.3     1  UNL1        0.0172
     13 C          -8.3702  -15.3258   27.4096 C.3     1  UNL1        0.0171
     14 C          -8.0376  -15.4715   25.9542 C.3     1  UNL1        0.0541
     15 N          -7.4082  -15.6170   24.6004 N.3     1  UNL1       -0.2966
     16 H          -7.6692  -14.8269   24.0106 H       1  UNL1        0.1233
@<TRIPOS>BOND
     1     2     3    1
     2     3     4   ar
     3     4     5   ar
     4     5     6   ar
     5     6     7   ar
     6     7     8   ar
     7     8     1    1
     8     1     9    1
     9    10     9    1
    10    10    11    1
    11    12    11    1
    12    12    13    1
    13    14    13    1
    14    14    15    1
    15     8     3   ar
    16    15    10    1
    17    14    12    1
    18    15    16    1
@<TRIPOS>MOLECULE
*****
 16 18 0 0 0
SMALL
GASTEIGER

@<TRIPOS>ATOM
      1 O          -7.3846  -18.7776   20.0139 O.3     1  UNL1       -0.4716
      2 CL         -7.5843  -17.5524   22.7451 Cl      1  UNL1       -0.0581
      3 C          -8.7663  -18.2609   22.1526 C.ar    1  UNL1        0.1721
      4 N         -10.0481  -18.3567   22.9257 N.ar    1  UNL1       -0.2294
      5 C         -11.2301  -19.0652   22.3333 C.ar    1  UNL1        0.1001
      6 C         -11.1302  -19.6778   20.9677 C.ar    1  UNL1        0.0239
      7 C          -9.8484  -19.5819   20.1946 C.ar    1  UNL1        0.0410
      8 C          -8.6664  -18.8735   20.7871 C.ar    1  UNL1        0.1669
      9 C          -6.2662  -19.7371   20.2941 C.3     1  UNL1        0.2210
     10 C          -4.8421  -19.3035   20.1100 C.3     1  UNL1        0.0983
     11 C          -3.6444  -19.8990   20.7889 C.3     1  UNL1        0.0209
     12 C          -2.4277  -19.1618   20.3131 C.3     1  UNL1        0.0172
     13 C          -1.4173  -18.2608   19.6671 C.3     1  UNL1        0.0171
     14 C          -2.8735  -18.1108   19.3401 C.3     1  UNL1        0.0541
     15 N          -4.3657  -18.1984   19.2146 N.3     1  UNL1       -0.2966
     16 H          -4.6204  -18.4018   18.2481 H       1  UNL1        0.1233
@<TRIPOS>BOND
     1     2     3    1
     2     3     4   ar
     3     4     5   ar
     4     5     6   ar
     5     6     7   ar
     6     7     8   ar
     7     8     1    1
     8     1     9    1
     9    10     9    1
    10    10    11    1
    11    12    11    1
    12    12    13    1
    13    14    13    1
    14    14    15    1
    15     8     3   ar
    16    15    10    1
    17    14    12    1
    18    15    16    1
@<TRIPOS>MOLECULE
*****
 16 18 0 0 0
SMALL
GASTEIGER

@<TRIPOS>ATOM
      1 O          -7.9761  -18.6166   20.4376 O.3     1  UNL1       -0.4716
      2 CL        -10.8886  -17.9906   20.0832 Cl      1  UNL1       -0.0581
      3 C         -10.4138  -18.6676   21.3347 C.ar    1  UNL1        0.1721
      4 N         -11.3953  -19.0315   22.4090 N.ar    1  UNL1       -0.2294
      5 C         -10.9206  -19.7084   23.6606 C.ar    1  UNL1        0.1001
      6 C          -9.4643  -20.0214   23.8378 C.ar    1  UNL1        0.0239
      7 C          -8.4829  -19.6575   22.7635 C.ar    1  UNL1        0.0410
      8 C          -8.9576  -18.9806   21.5119 C.ar    1  UNL1        0.1669
      9 C          -6.9552  -19.6176   19.9841 C.3     1  UNL1        0.2210
     10 C          -5.5450  -19.5316   20.4879 C.3     1  UNL1        0.0983
     11 C          -4.3957  -20.3860   20.0419 C.3     1  UNL1        0.0209
     12 C          -3.1769  -19.9585   20.8045 C.3     1  UNL1        0.0172
     13 C          -2.1536  -19.3245   21.6996 C.3     1  UNL1        0.0171
     14 C          -3.5729  -18.8397   21.7219 C.3     1  UNL1        0.0541
     15 N          -5.0365  -18.5759   21.5262 N.3     1  UNL1       -0.2966
     16 H          -5.1760  -17.6159   21.2110 H       1  UNL1        0.1233
@<TRIPOS>BOND
     1     2     3    1
     2     3     4   ar
     3     4     5   ar
     4     5     6   ar
     5     6     7   ar
     6     7     8   ar
     7     8     1    1
     8     1     9    1
     9    10     9    1
    10    10    11    1
    11    12    11    1
    12    12    13    1
    13    14    13    1
    14    14    15    1
    15     8     3   ar
    16    15    10    1
    17    14    12    1
    18    15    16    1
@<TRIPOS>MOLECULE
*****
 16 18 0 0 0
SMALL
GASTEIGER

@<TRIPOS>ATOM
      1 O          -4.8815  -19.9350   20.8077 O.3     1  UNL1       -0.4716
      2 CL         -4.0385  -18.3321   23.1994 Cl      1  UNL1       -0.0581
      3 C          -3.3089  -18.1776   21.8979 C.ar    1  UNL1        0.1721
      4 N          -2.1578  -17.2217   21.7922 N.ar    1  UNL1       -0.2294
      5 C          -1.4283  -17.0672   20.4907 C.ar    1  UNL1        0.1001
      6 C          -1.8498  -17.8686   19.2949 C.ar    1  UNL1        0.0239
      7 C          -3.0008  -18.8245   19.4006 C.ar    1  UNL1        0.0410
      8 C          -3.7304  -18.9790   20.7021 C.ar    1  UNL1        0.1669
      9 C          -6.2490  -19.5150   20.3567 C.3     1  UNL1        0.2210
     10 C          -7.1922  -18.8665   21.3261 C.3     1  UNL1        0.0983
     11 C          -8.0139  -19.5728   22.3633 C.3     1  UNL1        0.0209
     12 C          -8.8089  -18.5407   23.1068 C.3     1  UNL1        0.0172
     13 C          -9.4605  -17.3069   23.6574 C.3     1  UNL1        0.0171
     14 C          -8.4785  -17.1964   22.5290 C.3     1  UNL1        0.0541
     15 N          -7.4793  -17.3977   21.4285 N.3     1  UNL1       -0.2966
     16 H          -6.6205  -16.8914   21.6438 H       1  UNL1        0.1233
@<TRIPOS>BOND
     1     2     3    1
     2     3     4   ar
     3     4     5   ar
     4     5     6   ar
     5     6     7   ar
     6     7     8   ar
     7     8     1    1
     8     1     9    1
     9    10     9    1
    10    10    11    1
    11    12    11    1
    12    12    13    1
    13    14    13    1
    14    14    15    1
    15     8     3   ar
    16    15    10    1
    17    14    12    1
    18    15    16    1
