@<TRIPOS>MOLECULE
*****
 14 15 0 0 0
SMALL
GASTEIGER

@<TRIPOS>ATOM
      1 C         -10.8144  -17.5118   22.1802 C.ar    1  UNL1        0.0641
      2 C         -11.1971  -18.3632   23.3544 C.ar    1  UNL1        0.0099
      3 C         -10.2923  -18.0100   24.4975 C.ar    1  UNL1        0.0071
      4 C          -9.3504  -16.9403   24.0297 C.ar    1  UNL1        0.0310
      5 S          -9.6731  -16.6325   22.5976 S.2     1  UNL1       -0.0840
      6 C          -8.2747  -16.2923   24.8502 C.ar    1  UNL1        0.0252
      7 C          -8.3568  -16.3159   26.3477 C.ar    1  UNL1        0.0036
      8 C          -7.2811  -15.6680   27.1680 C.ar    1  UNL1        0.0207
      9 C          -6.1234  -14.9964   26.4908 C.ar    1  UNL1        0.0989
     10 N          -6.0413  -14.9728   24.9933 N.ar    1  UNL1       -0.2423
     11 C          -7.1170  -15.6208   24.1730 C.ar    1  UNL1        0.0993
     12 C         -10.8538  -18.3484   19.7208 C.3     1  UNL1        0.0778
     13 C         -11.4597  -17.5356   20.8263 C.2     1  UNL1        0.1794
     14 O         -12.7110  -16.7467   20.5779 O.2     1  UNL1       -0.2908
@<TRIPOS>BOND
     1    12    13    1
     2    13    14    2
     3    13     1    1
     4     1     2   ar
     5     2     3   ar
     6     3     4   ar
     7     4     6    1
     8     6     7   ar
     9     7     8   ar
    10     8     9   ar
    11     9    10   ar
    12    10    11   ar
    13     4     5   ar
    14     5     1   ar
    15    11     6   ar
@<TRIPOS>MOLECULE
*****
 14 15 0 0 0
SMALL
GASTEIGER

@<TRIPOS>ATOM
      1 C         -10.8955  -18.6883   22.4673 C.ar    1  UNL1        0.0641
      2 C         -10.6037  -19.7355   23.5009 C.ar    1  UNL1        0.0099
      3 C          -9.1522  -20.0988   23.3957 C.ar    1  UNL1        0.0071
      4 C          -8.5469  -19.2761   22.2972 C.ar    1  UNL1        0.0310
      5 S          -9.6243  -18.4043   21.7234 S.2     1  UNL1       -0.0840
      6 C          -7.1154  -19.3178   21.8508 C.ar    1  UNL1        0.0252
      7 C          -6.6770  -20.3261   20.8304 C.ar    1  UNL1        0.0036
      8 C          -5.2456  -20.3678   20.3841 C.ar    1  UNL1        0.0207
      9 C          -4.2525  -19.4013   20.9582 C.ar    1  UNL1        0.0989
     10 N          -4.6908  -18.3930   21.9786 N.ar    1  UNL1       -0.2423
     11 C          -6.1223  -18.3513   22.4249 C.ar    1  UNL1        0.0993
     12 C         -13.2006  -17.8762   23.3486 C.3     1  UNL1        0.0778
     13 C         -12.2250  -18.0389   22.2209 C.2     1  UNL1        0.1794
     14 O         -12.5790  -17.5524   20.8469 O.2     1  UNL1       -0.2908
@<TRIPOS>BOND
     1    12    13    1
     2    13    14    2
     3    13     1    1
     4     1     2   ar
     5     2     3   ar
     6     3     4   ar
     7     4     6    1
     8     6     7   ar
     9     7     8   ar
    10     8     9   ar
    11     9    10   ar
    12    10    11   ar
    13     4     5   ar
    14     5     1   ar
    15    11     6   ar
@<TRIPOS>MOLECULE
*****
 14 15 0 0 0
SMALL
GASTEIGER

@<TRIPOS>ATOM
      1 C          -4.3625  -19.6304   21.3758 C.ar    1  UNL1        0.0641
      2 C          -4.6929  -20.5821   20.2644 C.ar    1  UNL1        0.0099
      3 C          -6.1862  -20.6457   20.1374 C.ar    1  UNL1        0.0071
      4 C          -6.7786  -19.7334   21.1702 C.ar    1  UNL1        0.0310
      5 S          -5.6515  -19.1059   21.9356 S.2     1  UNL1       -0.0840
      6 C          -8.2413  -19.4911   21.3977 C.ar    1  UNL1        0.0252
      7 C          -9.1597  -19.2940   20.2282 C.ar    1  UNL1        0.0036
      8 C         -10.6224  -19.0517   20.4557 C.ar    1  UNL1        0.0207
      9 C         -11.1667  -19.0066   21.8528 C.ar    1  UNL1        0.0989
     10 N         -10.2484  -19.2038   23.0222 N.ar    1  UNL1       -0.2423
     11 C          -8.7857  -19.4460   22.7947 C.ar    1  UNL1        0.0993
     12 C          -2.7667  -18.0040   22.6241 C.3     1  UNL1        0.0778
     13 C          -2.9848  -19.2670   21.8450 C.2     1  UNL1        0.1794
     14 O          -1.8253  -20.1668   21.5351 O.2     1  UNL1       -0.2908
@<TRIPOS>BOND
     1    12    13    1
     2    13    14    2
     3    13     1    1
     4     1     2   ar
     5     2     3   ar
     6     3     4   ar
     7     4     6    1
     8     6     7   ar
     9     7     8   ar
    10     8     9   ar
    11     9    10   ar
    12    10    11   ar
    13     4     5   ar
    14     5     1   ar
    15    11     6   ar
@<TRIPOS>MOLECULE
*****
 14 15 0 0 0
SMALL
GASTEIGER

@<TRIPOS>ATOM
      1 C         -10.8891  -18.1936   20.8816 C.ar    1  UNL1        0.0641
      2 C         -10.7740  -19.1327   19.7176 C.ar    1  UNL1        0.0099
      3 C          -9.3523  -19.6052   19.6422 C.ar    1  UNL1        0.0071
      4 C          -8.5889  -18.9582   20.7596 C.ar    1  UNL1        0.0310
      5 S          -9.5387  -18.0857   21.5255 S.2     1  UNL1       -0.0840
      6 C          -7.1315  -19.1499   21.0585 C.ar    1  UNL1        0.0252
      7 C          -6.3070  -20.0725   20.2106 C.ar    1  UNL1        0.0036
      8 C          -4.8497  -20.2642   20.5095 C.ar    1  UNL1        0.0207
      9 C          -4.2168  -19.5333   21.6564 C.ar    1  UNL1        0.0989
     10 N          -5.0413  -18.6106   22.5043 N.ar    1  UNL1       -0.2423
     11 C          -6.4986  -18.4189   22.2053 C.ar    1  UNL1        0.0993
     12 C         -12.7652  -17.8293   22.6416 C.3     1  UNL1        0.0778
     13 C         -12.1359  -17.4865   21.3239 C.2     1  UNL1        0.1794
     14 O         -12.7534  -16.4366   20.4485 O.2     1  UNL1       -0.2908
@<TRIPOS>BOND
     1    12    13    1
     2    13    14    2
     3    13     1    1
     4     1     2   ar
     5     2     3   ar
     6     3     4   ar
     7     4     6    1
     8     6     7   ar
     9     7     8   ar
    10     8     9   ar
    11     9    10   ar
    12    10    11   ar
    13     4     5   ar
    14     5     1   ar
    15    11     6   ar
@<TRIPOS>MOLECULE
*****
 14 15 0 0 0
SMALL
GASTEIGER

@<TRIPOS>ATOM
      1 C          -7.6099  -19.5238   20.2118 C.ar    1  UNL1        0.0641
      2 C          -8.5769  -19.7300   19.0838 C.ar    1  UNL1        0.0099
      3 C          -9.9570  -19.4474   19.5989 C.ar    1  UNL1        0.0071
      4 C          -9.8430  -19.0665   21.0452 C.ar    1  UNL1        0.0310
      5 S          -8.3924  -19.1137   21.4240 S.2     1  UNL1       -0.0840
      6 C         -10.9801  -18.7023   21.9533 C.ar    1  UNL1        0.0252
      7 C         -12.1804  -17.9904   21.4037 C.ar    1  UNL1        0.0036
      8 C         -13.3174  -17.6262   22.3118 C.ar    1  UNL1        0.0207
      9 C         -13.2540  -17.9740   23.7695 C.ar    1  UNL1        0.0989
     10 N         -12.0536  -18.6859   24.3192 N.ar    1  UNL1       -0.2423
     11 C         -10.9166  -19.0501   23.4111 C.ar    1  UNL1        0.0993
     12 C          -5.5180  -21.0630   20.2822 C.3     1  UNL1        0.0778
     13 C          -6.1217  -19.6972   20.1402 C.2     1  UNL1        0.1794
     14 O          -5.2371  -18.5048   19.9265 O.2     1  UNL1       -0.2908
@<TRIPOS>BOND
     1    12    13    1
     2    13    14    2
     3    13     1    1
     4     1     2   ar
     5     2     3   ar
     6     3     4   ar
     7     4     6    1
     8     6     7   ar
     9     7     8   ar
    10     8     9   ar
    11     9    10   ar
    12    10    11   ar
    13     4     5   ar
    14     5     1   ar
    15    11     6   ar
@<TRIPOS>MOLECULE
*****
 14 15 0 0 0
SMALL
GASTEIGER

@<TRIPOS>ATOM
      1 C          -7.3980  -15.6347   24.7819 C.ar    1  UNL1        0.0641
      2 C          -6.9316  -15.3547   23.3839 C.ar    1  UNL1        0.0099
      3 C          -8.0349  -15.7363   22.4421 C.ar    1  UNL1        0.0071
      4 C          -9.1832  -16.2520   23.2579 C.ar    1  UNL1        0.0310
      5 S          -8.7895  -16.1893   24.7039 S.2     1  UNL1       -0.0840
      6 C         -10.4948  -16.7442   22.7216 C.ar    1  UNL1        0.0252
      7 C         -11.3730  -17.6148   23.5707 C.ar    1  UNL1        0.0036
      8 C         -12.6845  -18.1068   23.0344 C.ar    1  UNL1        0.0207
      9 C         -13.1180  -17.7283   21.6492 C.ar    1  UNL1        0.0989
     10 N         -12.2398  -16.8577   20.8002 N.ar    1  UNL1       -0.2423
     11 C         -10.9282  -16.3657   21.3364 C.ar    1  UNL1        0.0993
     12 C          -7.1379  -15.8886   27.3544 C.3     1  UNL1        0.0778
     13 C          -6.6110  -15.4011   26.0373 C.2     1  UNL1        0.1794
     14 O          -5.2971  -14.6801   25.9757 O.2     1  UNL1       -0.2908
@<TRIPOS>BOND
     1    12    13    1
     2    13    14    2
     3    13     1    1
     4     1     2   ar
     5     2     3   ar
     6     3     4   ar
     7     4     6    1
     8     6     7   ar
     9     7     8   ar
    10     8     9   ar
    11     9    10   ar
    12    10    11   ar
    13     4     5   ar
    14     5     1   ar
    15    11     6   ar
@<TRIPOS>MOLECULE
*****
 14 15 0 0 0
SMALL
GASTEIGER

@<TRIPOS>ATOM
      1 C          -7.3642  -15.8307   24.3037 C.ar    1  UNL1        0.0641
      2 C          -8.6791  -15.7391   25.0199 C.ar    1  UNL1        0.0099
      3 C          -9.7285  -16.3550   24.1427 C.ar    1  UNL1        0.0071
      4 C          -9.0622  -16.8273   22.8845 C.ar    1  UNL1        0.0310
      5 S          -7.6010  -16.5033   22.9841 S.2     1  UNL1       -0.0840
      6 C          -9.7385  -17.5047   21.7296 C.ar    1  UNL1        0.0252
      7 C          -9.3212  -18.8865   21.3216 C.ar    1  UNL1        0.0036
      8 C          -9.9974  -19.5638   20.1667 C.ar    1  UNL1        0.0207
      9 C         -11.0910  -18.8593   19.4197 C.ar    1  UNL1        0.0989
     10 N         -11.5083  -17.4775   19.8277 N.ar    1  UNL1       -0.2423
     11 C         -10.8320  -16.8002   20.9826 C.ar    1  UNL1        0.0993
     12 C          -5.7817  -15.2953   26.2934 C.3     1  UNL1        0.0778
     13 C          -6.0443  -15.3366   24.8172 C.2     1  UNL1        0.1794
     14 O          -4.9870  -14.8837   23.8544 O.2     1  UNL1       -0.2908
@<TRIPOS>BOND
     1    12    13    1
     2    13    14    2
     3    13     1    1
     4     1     2   ar
     5     2     3   ar
     6     3     4   ar
     7     4     6    1
     8     6     7   ar
     9     7     8   ar
    10     8     9   ar
    11     9    10   ar
    12    10    11   ar
    13     4     5   ar
    14     5     1   ar
    15    11     6   ar
@<TRIPOS>MOLECULE
*****
 14 15 0 0 0
SMALL
GASTEIGER

@<TRIPOS>ATOM
      1 C          -6.2289  -18.7340   21.7444 C.ar    1  UNL1        0.0641
      2 C          -6.5316  -19.5451   20.5194 C.ar    1  UNL1        0.0099
      3 C          -8.0098  -19.4788   20.2733 C.ar    1  UNL1        0.0071
      4 C          -8.6206  -18.6268   21.3461 C.ar    1  UNL1        0.0310
      5 S          -7.5200  -18.1665   22.2553 S.2     1  UNL1       -0.0840
      6 C         -10.0766  -18.2937   21.4853 C.ar    1  UNL1        0.0252
      7 C         -10.7879  -18.5652   22.7776 C.ar    1  UNL1        0.0036
      8 C         -12.2438  -18.2320   22.9167 C.ar    1  UNL1        0.0207
      9 C         -12.9883  -17.6273   21.7635 C.ar    1  UNL1        0.0989
     10 N         -12.2770  -17.3557   20.4711 N.ar    1  UNL1       -0.2423
     11 C         -10.8211  -17.6889   20.3320 C.ar    1  UNL1        0.0993
     12 C          -3.8251  -19.5929   22.2284 C.3     1  UNL1        0.0778
     13 C          -4.8731  -18.5268   22.3518 C.2     1  UNL1        0.1794
     14 O          -4.5653  -17.2536   23.0827 O.2     1  UNL1       -0.2908
@<TRIPOS>BOND
     1    12    13    1
     2    13    14    2
     3    13     1    1
     4     1     2   ar
     5     2     3   ar
     6     3     4   ar
     7     4     6    1
     8     6     7   ar
     9     7     8   ar
    10     8     9   ar
    11     9    10   ar
    12    10    11   ar
    13     4     5   ar
    14     5     1   ar
    15    11     6   ar
@<TRIPOS>MOLECULE
*****
 14 15 0 0 0
SMALL
GASTEIGER

@<TRIPOS>ATOM
      1 C          -9.1766  -18.4433   22.5704 C.ar    1  UNL1        0.0641
      2 C          -8.5761  -17.1883   23.1313 C.ar    1  UNL1        0.0099
      3 C          -7.0954  -17.2380   22.8965 C.ar    1  UNL1        0.0071
      4 C          -6.7808  -18.5236   22.1906 C.ar    1  UNL1        0.0310
      5 S          -8.0670  -19.2685   21.9891 S.2     1  UNL1       -0.0840
      6 C          -5.4189  -18.9835   21.7616 C.ar    1  UNL1        0.0252
      7 C          -5.2659  -19.8311   20.5336 C.ar    1  UNL1        0.0036
      8 C          -3.9042  -20.2909   20.1046 C.ar    1  UNL1        0.0207
      9 C          -2.6954  -19.9032   20.9037 C.ar    1  UNL1        0.0989
     10 N          -2.8484  -19.0556   22.1317 N.ar    1  UNL1       -0.2423
     11 C          -4.2102  -18.5957   22.5607 C.ar    1  UNL1        0.0993
     12 C         -11.0798  -20.1278   22.0318 C.3     1  UNL1        0.0778
     13 C         -10.6313  -18.8089   22.5879 C.2     1  UNL1        0.1794
     14 O         -11.6373  -17.8556   23.1614 O.2     1  UNL1       -0.2908
@<TRIPOS>BOND
     1    12    13    1
     2    13    14    2
     3    13     1    1
     4     1     2   ar
     5     2     3   ar
     6     3     4   ar
     7     4     6    1
     8     6     7   ar
     9     7     8   ar
    10     8     9   ar
    11     9    10   ar
    12    10    11   ar
    13     4     5   ar
    14     5     1   ar
    15    11     6   ar
