@<TRIPOS>MOLECULE
*****
 42 46 0 0 0
SMALL
GASTEIGER

@<TRIPOS>ATOM
      1 N           6.8097   -5.1412   31.8978 N.am    1  UNL1       -0.2902
      2 C           6.2842   -3.7424   32.0281 C.2     1  UNL1        0.3044
      3 O           6.9114   -2.6294   31.2422 O.2     1  UNL1       -0.2525
      4 N           5.1313   -3.4566   32.9442 N.am    1  UNL1       -0.2683
      5 H           6.3981   -5.8718   32.4136 H       1  UNL1        0.1509
      6 H           4.7197   -4.1872   33.4600 H       1  UNL1        0.1564
      7 C           4.6058   -2.0578   33.0745 C.ar    1  UNL1        0.0519
      8 C           3.8111   -1.4481   31.9578 C.ar    1  UNL1        0.0194
      9 C           3.2855   -0.0493   32.0881 C.ar    1  UNL1        0.0550
     10 C           3.5545    0.7399   33.3350 C.ar    1  UNL1        0.0094
     11 C           4.3491    0.1303   34.4517 C.ar    1  UNL1        0.0550
     12 C           4.8748   -1.2686   34.3214 C.ar    1  UNL1        0.0194
     13 C           2.4909    0.5603   30.9715 C.ar    1  UNL1        0.2299
     14 N           2.6745    1.9388   30.4090 N.ar    1  UNL1       -0.2065
     15 C           1.6703    2.1290   29.3111 C.ar    1  UNL1        0.1427
     16 C           0.8660    0.8681   29.1950 C.ar    1  UNL1        0.2021
     17 O           1.3733   -0.1014   30.2212 O.2     1  UNL1       -0.4314
     18 C           4.6181    0.9195   35.6986 C.ar    1  UNL1        0.2299
     19 N           4.2451    0.5168   37.0946 N.ar    1  UNL1       -0.2065
     20 C           4.7038    1.5984   38.0272 C.ar    1  UNL1        0.1427
     21 C           5.3604    2.6695   37.2077 C.ar    1  UNL1        0.2021
     22 O           5.3074    2.2499   35.7685 O.2     1  UNL1       -0.4314
     23 C           9.3512   -5.0166   31.3730 C.3     1  UNL1        0.0214
     24 C           7.9626   -5.4270   30.9817 C.3     1  UNL1        0.0770
     25 C           7.7267   -6.1233   29.6741 C.3     1  UNL1        0.0661
     26 C           7.1723   -5.3605   28.5076 C.3     1  UNL1        0.1738
     27 O           6.3237   -4.1458   28.7407 O.3     1  UNL1       -0.3697
     28 H           6.0491   -3.7746   27.8876 H       1  UNL1        0.2119
     29 N           7.4664   -5.8125   27.1078 N.3     1  UNL1       -0.2511
     30 C           7.6289   -7.2736   26.8100 C.3     1  UNL1        0.0742
     31 C           7.9230   -7.7255   25.4103 C.3     1  UNL1        0.0175
     32 C           8.0548   -6.7163   24.3084 C.3     1  UNL1        0.0031
     33 C           7.8923   -5.2552   24.6062 C.3     1  UNL1        0.0205
     34 C           7.5982   -4.8033   26.0059 C.3     1  UNL1        0.0745
     35 C           8.0241   -4.2460   23.5043 C.3     1  UNL1        0.0277
     36 C           6.8716   -3.9915   22.5787 C.ar    1  UNL1       -0.0220
     37 C           5.5142   -3.6833   23.1379 C.ar    1  UNL1       -0.0020
     38 C           4.3617   -3.4288   22.2123 C.ar    1  UNL1        0.0293
     39 C           4.5665   -3.4825   20.7273 C.ar    1  UNL1        0.1401
     40 F           3.4139   -3.2280   19.8016 F       1  UNL1       -0.2042
     41 C           5.9238   -3.7906   20.1680 C.ar    1  UNL1        0.0293
     42 C           7.0763   -4.0451   21.0937 C.ar    1  UNL1       -0.0020
@<TRIPOS>BOND
     1    24    23    1
     2    24    25    1
     3    25    26    1
     4    26    27    1
     5    26    29    1
     6    29    30    1
     7    30    31    1
     8    31    32    1
     9    32    33    1
    10    33    35    1
    11    35    36    1
    12    36    37   ar
    13    37    38   ar
    14    38    39   ar
    15    39    40    1
    16    39    41   ar
    17    41    42   ar
    18    33    34    1
    19    24     1    1
    20     1     2   am
    21     2     3    2
    22     2     4   am
    23     4     7    1
    24     7     8   ar
    25     8     9   ar
    26     9    13    1
    27    13    14   ar
    28    14    15   ar
    29    15    16   ar
    30    16    17   ar
    31     9    10   ar
    32    10    11   ar
    33    11    18    1
    34    18    19   ar
    35    19    20   ar
    36    20    21   ar
    37    21    22   ar
    38    11    12   ar
    39    34    29    1
    40    12     7   ar
    41    42    36   ar
    42    17    13   ar
    43    22    18   ar
    44    27    28    1
    45     1     5    1
    46     4     6    1
@<TRIPOS>MOLECULE
*****
 42 46 0 0 0
SMALL
GASTEIGER

@<TRIPOS>ATOM
      1 N           6.7901   -5.1186   31.9093 N.am    1  UNL1       -0.2902
      2 C           6.2574   -3.7207   32.0198 C.2     1  UNL1        0.3044
      3 O           6.8822   -2.6148   31.2221 O.2     1  UNL1       -0.2525
      4 N           5.0999   -3.4289   32.9281 N.am    1  UNL1       -0.2683
      5 H           6.3801   -5.8445   32.4329 H       1  UNL1        0.1509
      6 H           4.6898   -4.1548   33.4517 H       1  UNL1        0.1564
      7 C           4.5672   -2.0311   33.0386 C.ar    1  UNL1        0.0519
      8 C           4.7753   -1.2466   34.3002 C.ar    1  UNL1        0.0194
      9 C           4.2426    0.1512   34.4107 C.ar    1  UNL1        0.0550
     10 C           3.5017    0.7647   33.2597 C.ar    1  UNL1        0.0094
     11 C           3.2936   -0.0197   31.9982 C.ar    1  UNL1        0.0550
     12 C           3.8263   -1.4176   31.8877 C.ar    1  UNL1        0.0194
     13 C           4.4508    0.9355   35.6722 C.ar    1  UNL1        0.2299
     14 N           4.5626    0.3668   37.0558 N.ar    1  UNL1       -0.2065
     15 C           4.7646    1.5061   38.0104 C.ar    1  UNL1        0.1427
     16 C           4.7777    2.7790   37.2168 C.ar    1  UNL1        0.2021
     17 O           4.5837    2.4263   35.7717 O.2     1  UNL1       -0.4314
     18 C           2.5527    0.5938   30.8473 C.ar    1  UNL1        0.2299
     19 N           1.2896    0.0688   30.2315 N.ar    1  UNL1       -0.2065
     20 C           0.9011    0.9906   29.1136 C.ar    1  UNL1        0.1427
     21 C           1.9240    2.0851   29.0385 C.ar    1  UNL1        0.2021
     22 O           2.9447    1.8399   30.1100 O.2     1  UNL1       -0.4314
     23 C           9.3348   -5.0009   31.3986 C.3     1  UNL1        0.0214
     24 C           7.9477   -5.4104   31.0011 C.3     1  UNL1        0.0770
     25 C           7.7180   -6.1119   29.6952 C.3     1  UNL1        0.0661
     26 C           7.1672   -5.3543   28.5236 C.3     1  UNL1        0.1738
     27 O           6.3202   -4.1370   28.7488 O.3     1  UNL1       -0.3697
     28 H           6.0479   -3.7698   27.8932 H       1  UNL1        0.2119
     29 N           7.4634   -5.8141   27.1268 N.3     1  UNL1       -0.2511
     30 C           7.6237   -7.2770   26.8368 C.3     1  UNL1        0.0742
     31 C           7.9198   -7.7366   25.4401 C.3     1  UNL1        0.0175
     32 C           8.0557   -6.7334   24.3333 C.3     1  UNL1        0.0031
     33 C           7.8954   -5.2705   24.6232 C.3     1  UNL1        0.0205
     34 C           7.5992   -4.8108   26.0200 C.3     1  UNL1        0.0745
     35 C           8.0312   -4.2672   23.5164 C.3     1  UNL1        0.0277
     36 C           6.8782   -4.0091   22.5924 C.ar    1  UNL1       -0.0220
     37 C           5.5224   -3.6977   23.1537 C.ar    1  UNL1       -0.0020
     38 C           4.3694   -3.4396   22.2296 C.ar    1  UNL1        0.0293
     39 C           4.5721   -3.4929   20.7444 C.ar    1  UNL1        0.1401
     40 F           3.4189   -3.2348   19.8203 F       1  UNL1       -0.2042
     41 C           5.9278   -3.8043   20.1831 C.ar    1  UNL1        0.0293
     42 C           7.0809   -4.0624   21.1071 C.ar    1  UNL1       -0.0020
@<TRIPOS>BOND
     1    24    23    1
     2    24    25    1
     3    25    26    1
     4    26    27    1
     5    26    29    1
     6    29    30    1
     7    30    31    1
     8    31    32    1
     9    32    33    1
    10    33    35    1
    11    35    36    1
    12    36    37   ar
    13    37    38   ar
    14    38    39   ar
    15    39    40    1
    16    39    41   ar
    17    41    42   ar
    18    33    34    1
    19    24     1    1
    20     1     2   am
    21     2     3    2
    22     2     4   am
    23     4     7    1
    24     7     8   ar
    25     8     9   ar
    26     9    13    1
    27    13    14   ar
    28    14    15   ar
    29    15    16   ar
    30    16    17   ar
    31     9    10   ar
    32    10    11   ar
    33    11    18    1
    34    18    19   ar
    35    19    20   ar
    36    20    21   ar
    37    21    22   ar
    38    11    12   ar
    39    34    29    1
    40    12     7   ar
    41    42    36   ar
    42    17    13   ar
    43    22    18   ar
    44    27    28    1
    45     1     5    1
    46     4     6    1
@<TRIPOS>MOLECULE
*****
 42 46 0 0 0
SMALL
GASTEIGER

@<TRIPOS>ATOM
      1 N          -1.9028    2.7417   20.0102 N.am    1  UNL1       -0.2902
      2 C          -0.6526    2.1401   20.5804 C.2     1  UNL1        0.3044
      3 O           0.3209    3.0019   21.3283 O.2     1  UNL1       -0.2525
      4 N          -0.3760    0.6766   20.4025 N.am    1  UNL1       -0.2683
      5 H          -2.5417    2.1761   19.5193 H       1  UNL1        0.1509
      6 H          -1.0149    0.1109   19.9116 H       1  UNL1        0.1564
      7 C           0.8742    0.0749   20.9726 C.ar    1  UNL1        0.0519
      8 C           1.2715    0.3721   22.3882 C.ar    1  UNL1        0.0194
      9 C           2.5217   -0.2296   22.9584 C.ar    1  UNL1        0.0550
     10 C           3.3745   -1.1285   22.1130 C.ar    1  UNL1        0.0094
     11 C           2.9772   -1.4257   20.6974 C.ar    1  UNL1        0.0550
     12 C           1.7270   -0.8240   20.1272 C.ar    1  UNL1        0.0194
     13 C           2.9190    0.0676   24.3739 C.ar    1  UNL1        0.2299
     14 N           2.7162    1.3689   25.0919 N.ar    1  UNL1       -0.2065
     15 C           3.2607    1.2213   26.4818 C.ar    1  UNL1        0.1427
     16 C           3.8000   -0.1714   26.6228 C.ar    1  UNL1        0.2021
     17 O           3.5888   -0.8844   25.3201 O.2     1  UNL1       -0.4314
     18 C           3.8300   -2.3245   19.8520 C.ar    1  UNL1        0.2299
     19 N           5.0088   -1.9011   19.0266 N.ar    1  UNL1       -0.2065
     20 C           5.5611   -3.1196   18.3480 C.ar    1  UNL1        0.1427
     21 C           4.7237   -4.2959   18.7541 C.ar    1  UNL1        0.2021
     22 O           3.6539   -3.8046   19.6836 O.2     1  UNL1       -0.4314
     23 C          -1.4702    5.2121   19.3318 C.3     1  UNL1        0.0214
     24 C          -2.1794    4.2052   20.1881 C.3     1  UNL1        0.0770
     25 C          -3.1653    4.6619   21.2223 C.3     1  UNL1        0.0661
     26 C          -3.8339    3.6593   22.1154 C.3     1  UNL1        0.1738
     27 O          -4.5962    2.5137   21.5183 O.3     1  UNL1       -0.3697
     28 H          -4.9629    1.9642   22.2285 H       1  UNL1        0.2119
     29 N          -3.7403    3.8023   23.6057 N.3     1  UNL1       -0.2511
     30 C          -4.9885    3.8199   24.4373 C.3     1  UNL1        0.0742
     31 C          -4.8949    3.9629   25.9275 C.3     1  UNL1        0.0175
     32 C          -3.5530    4.0883   26.5861 C.3     1  UNL1        0.0031
     33 C          -2.3049    4.0708   25.7544 C.3     1  UNL1        0.0205
     34 C          -2.3985    3.9278   24.2642 C.3     1  UNL1        0.0745
     35 C          -0.9630    4.1962   26.4130 C.3     1  UNL1        0.0277
     36 C          -0.4388    3.0792   27.2659 C.ar    1  UNL1       -0.0220
     37 C          -0.7226    1.6542   26.8932 C.ar    1  UNL1       -0.0020
     38 C          -0.1984    0.5372   27.7461 C.ar    1  UNL1        0.0293
     39 C           0.6096    0.8452   28.9718 C.ar    1  UNL1        0.1401
     40 F           1.1338   -0.2719   29.8248 F       1  UNL1       -0.2042
     41 C           0.8934    2.2701   29.3446 C.ar    1  UNL1        0.0293
     42 C           0.3692    3.3872   28.4916 C.ar    1  UNL1       -0.0020
@<TRIPOS>BOND
     1    24    23    1
     2    24    25    1
     3    25    26    1
     4    26    27    1
     5    26    29    1
     6    29    30    1
     7    30    31    1
     8    31    32    1
     9    32    33    1
    10    33    35    1
    11    35    36    1
    12    36    37   ar
    13    37    38   ar
    14    38    39   ar
    15    39    40    1
    16    39    41   ar
    17    41    42   ar
    18    33    34    1
    19    24     1    1
    20     1     2   am
    21     2     3    2
    22     2     4   am
    23     4     7    1
    24     7     8   ar
    25     8     9   ar
    26     9    13    1
    27    13    14   ar
    28    14    15   ar
    29    15    16   ar
    30    16    17   ar
    31     9    10   ar
    32    10    11   ar
    33    11    18    1
    34    18    19   ar
    35    19    20   ar
    36    20    21   ar
    37    21    22   ar
    38    11    12   ar
    39    34    29    1
    40    12     7   ar
    41    42    36   ar
    42    17    13   ar
    43    22    18   ar
    44    27    28    1
    45     1     5    1
    46     4     6    1
@<TRIPOS>MOLECULE
*****
 42 46 0 0 0
SMALL
GASTEIGER

@<TRIPOS>ATOM
      1 N          -1.7942    2.8885   19.8267 N.am    1  UNL1       -0.2902
      2 C          -0.5840    2.2673   20.4588 C.2     1  UNL1        0.3044
      3 O           0.3248    3.0983   21.3152 O.2     1  UNL1       -0.2525
      4 N          -0.2827    0.8151   20.2345 N.am    1  UNL1       -0.2683
      5 H          -2.3907    2.3431   19.2647 H       1  UNL1        0.1509
      6 H          -0.8792    0.2697   19.6724 H       1  UNL1        0.1564
      7 C           0.9275    0.1939   20.8666 C.ar    1  UNL1        0.0519
      8 C           1.7782   -0.7594   20.0807 C.ar    1  UNL1        0.0194
      9 C           2.9884   -1.3806   20.7128 C.ar    1  UNL1        0.0550
     10 C           3.3479   -1.0486   22.1307 C.ar    1  UNL1        0.0094
     11 C           2.4972   -0.0953   22.9165 C.ar    1  UNL1        0.0550
     12 C           1.2870    0.5259   22.2845 C.ar    1  UNL1        0.0194
     13 C           3.8390   -2.3339   19.9269 C.ar    1  UNL1        0.2299
     14 N           5.1692   -2.0232   19.3069 N.ar    1  UNL1       -0.2065
     15 C           5.6612   -3.2625   18.6199 C.ar    1  UNL1        0.1427
     16 C           4.6352   -4.3392   18.8152 C.ar    1  UNL1        0.2021
     17 O           3.5090   -3.7652   19.6230 O.2     1  UNL1       -0.4314
     18 C           2.8567    0.2367   24.3345 C.ar    1  UNL1        0.2299
     19 N           3.5253   -0.6829   25.3130 N.ar    1  UNL1       -0.2065
     20 C           3.6925    0.0588   26.6061 C.ar    1  UNL1        0.1427
     21 C           3.1274    1.4366   26.4268 C.ar    1  UNL1        0.2021
     22 O           2.6108    1.5466   25.0228 O.2     1  UNL1       -0.4314
     23 C          -1.3971    5.3866   19.2336 C.3     1  UNL1        0.0214
     24 C          -2.0955    4.3407   20.0510 C.3     1  UNL1        0.0770
     25 C          -3.0953    4.7470   21.0929 C.3     1  UNL1        0.0661
     26 C          -3.7350    3.7072   21.9644 C.3     1  UNL1        0.1738
     27 O          -4.4246    2.5288   21.3433 O.3     1  UNL1       -0.3697
     28 H          -4.7808    1.9576   22.0416 H       1  UNL1        0.2119
     29 N          -3.6850    3.8458   23.4572 N.3     1  UNL1       -0.2511
     30 C          -4.9572    3.8669   24.2515 C.3     1  UNL1        0.0742
     31 C          -4.9072    4.0054   25.7442 C.3     1  UNL1        0.0175
     32 C          -3.5850    4.1229   26.4427 C.3     1  UNL1        0.0031
     33 C          -2.3127    4.1018   25.6484 C.3     1  UNL1        0.0205
     34 C          -2.3627    3.9633   24.1557 C.3     1  UNL1        0.0745
     35 C          -0.9905    4.2193   26.3469 C.3     1  UNL1        0.0277
     36 C          -0.4892    3.0907   27.1984 C.ar    1  UNL1       -0.0220
     37 C          -0.7925    1.6719   26.8177 C.ar    1  UNL1       -0.0020
     38 C          -0.2913    0.5433   27.6692 C.ar    1  UNL1        0.0293
     39 C           0.5133    0.8336   28.9014 C.ar    1  UNL1        0.1401
     40 F           1.0146   -0.2950   29.7530 F       1  UNL1       -0.2042
     41 C           0.8167    2.2524   29.2821 C.ar    1  UNL1        0.0293
     42 C           0.3154    3.3810   28.4306 C.ar    1  UNL1       -0.0020
@<TRIPOS>BOND
     1    24    23    1
     2    24    25    1
     3    25    26    1
     4    26    27    1
     5    26    29    1
     6    29    30    1
     7    30    31    1
     8    31    32    1
     9    32    33    1
    10    33    35    1
    11    35    36    1
    12    36    37   ar
    13    37    38   ar
    14    38    39   ar
    15    39    40    1
    16    39    41   ar
    17    41    42   ar
    18    33    34    1
    19    24     1    1
    20     1     2   am
    21     2     3    2
    22     2     4   am
    23     4     7    1
    24     7     8   ar
    25     8     9   ar
    26     9    13    1
    27    13    14   ar
    28    14    15   ar
    29    15    16   ar
    30    16    17   ar
    31     9    10   ar
    32    10    11   ar
    33    11    18    1
    34    18    19   ar
    35    19    20   ar
    36    20    21   ar
    37    21    22   ar
    38    11    12   ar
    39    34    29    1
    40    12     7   ar
    41    42    36   ar
    42    17    13   ar
    43    22    18   ar
    44    27    28    1
    45     1     5    1
    46     4     6    1
@<TRIPOS>MOLECULE
*****
 42 46 0 0 0
SMALL
GASTEIGER

@<TRIPOS>ATOM
      1 N           0.9330    3.1677   20.1253 N.am    1  UNL1       -0.2902
      2 C           0.0684    2.9881   21.3378 C.2     1  UNL1        0.3044
      3 O          -1.2751    2.3335   21.2105 O.2     1  UNL1       -0.2525
      4 N           0.5474    3.4631   22.6776 N.am    1  UNL1       -0.2683
      5 H           1.8149    3.5974   20.2088 H       1  UNL1        0.1509
      6 H           1.4293    3.8928   22.7611 H       1  UNL1        0.1564
      7 C          -0.3171    3.2835   23.8900 C.ar    1  UNL1        0.0519
      8 C           0.1053    2.3433   24.9799 C.ar    1  UNL1        0.0194
      9 C          -0.7593    2.1637   26.1924 C.ar    1  UNL1        0.0550
     10 C          -2.0463    2.9243   26.3151 C.ar    1  UNL1        0.0094
     11 C          -2.4688    3.8644   25.2254 C.ar    1  UNL1        0.0550
     12 C          -1.6042    4.0441   24.0128 C.ar    1  UNL1        0.0194
     13 C          -0.3368    1.2235   27.2821 C.ar    1  UNL1        0.2299
     14 N          -1.2421    0.5745   28.2868 N.ar    1  UNL1       -0.2065
     15 C          -0.3997   -0.2829   29.1841 C.ar    1  UNL1        0.1427
     16 C           1.0263   -0.1638   28.7341 C.ar    1  UNL1        0.2021
     17 O           1.0651    0.7672   27.5585 O.2     1  UNL1       -0.4314
     18 C          -3.7558    4.6250   25.3482 C.ar    1  UNL1        0.2299
     19 N          -4.7457    4.5078   26.4691 N.ar    1  UNL1       -0.2065
     20 C          -5.8806    5.4467   26.1853 C.ar    1  UNL1        0.1427
     21 C          -5.5921    6.1442   24.8890 C.ar    1  UNL1        0.2021
     22 O          -4.2789    5.6363   24.3717 O.2     1  UNL1       -0.4314
     23 C          -0.4436    3.5640   17.9578 C.3     1  UNL1        0.0214
     24 C           0.4540    2.6927   18.7856 C.3     1  UNL1        0.0770
     25 C           0.8727    1.3463   18.2735 C.3     1  UNL1        0.0661
     26 C           1.1221    0.2226   19.2352 C.3     1  UNL1        0.1738
     27 O           0.0982   -0.1125   20.2790 O.3     1  UNL1       -0.3697
     28 H           0.4135   -0.8579   20.8136 H       1  UNL1        0.2119
     29 N           2.3953   -0.5663   19.1531 N.3     1  UNL1       -0.2511
     30 C           3.3878   -0.2774   18.0662 C.3     1  UNL1        0.0742
     31 C           4.6609   -1.0662   17.9841 C.3     1  UNL1        0.0175
     32 C           4.9416   -2.1439   18.9890 C.3     1  UNL1        0.0031
     33 C           3.9491   -2.4328   20.0760 C.3     1  UNL1        0.0205
     34 C           2.6760   -1.6440   20.1580 C.3     1  UNL1        0.0745
     35 C           4.2298   -3.5105   21.0809 C.3     1  UNL1        0.0277
     36 C           4.7224   -3.1488   22.4507 C.ar    1  UNL1       -0.0220
     37 C           5.9178   -3.8484   23.0268 C.ar    1  UNL1       -0.0020
     38 C           6.4104   -3.4867   24.3966 C.ar    1  UNL1        0.0293
     39 C           5.7078   -2.4254   25.1904 C.ar    1  UNL1        0.1401
     40 F           6.2005   -2.0638   26.5603 F       1  UNL1       -0.2042
     41 C           4.5125   -1.7259   24.6143 C.ar    1  UNL1        0.0293
     42 C           4.0198   -2.0876   23.2444 C.ar    1  UNL1       -0.0020
@<TRIPOS>BOND
     1    24    23    1
     2    24    25    1
     3    25    26    1
     4    26    27    1
     5    26    29    1
     6    29    30    1
     7    30    31    1
     8    31    32    1
     9    32    33    1
    10    33    35    1
    11    35    36    1
    12    36    37   ar
    13    37    38   ar
    14    38    39   ar
    15    39    40    1
    16    39    41   ar
    17    41    42   ar
    18    33    34    1
    19    24     1    1
    20     1     2   am
    21     2     3    2
    22     2     4   am
    23     4     7    1
    24     7     8   ar
    25     8     9   ar
    26     9    13    1
    27    13    14   ar
    28    14    15   ar
    29    15    16   ar
    30    16    17   ar
    31     9    10   ar
    32    10    11   ar
    33    11    18    1
    34    18    19   ar
    35    19    20   ar
    36    20    21   ar
    37    21    22   ar
    38    11    12   ar
    39    34    29    1
    40    12     7   ar
    41    42    36   ar
    42    17    13   ar
    43    22    18   ar
    44    27    28    1
    45     1     5    1
    46     4     6    1
@<TRIPOS>MOLECULE
*****
 42 46 0 0 0
SMALL
GASTEIGER

@<TRIPOS>ATOM
      1 N           1.0142    3.0197   20.0829 N.am    1  UNL1       -0.2902
      2 C           0.1106    2.8616   21.2697 C.2     1  UNL1        0.3044
      3 O          -1.2502    2.2538   21.1005 O.2     1  UNL1       -0.2525
      4 N           0.5678    3.3114   22.6256 N.am    1  UNL1       -0.2683
      5 H           1.9073    3.4186   20.1939 H       1  UNL1        0.1509
      6 H           1.4610    3.7104   22.7367 H       1  UNL1        0.1564
      7 C          -0.3358    3.1533   23.8124 C.ar    1  UNL1        0.0519
      8 C          -1.6456    3.8829   23.8603 C.ar    1  UNL1        0.0194
      9 C          -2.5492    3.7249   25.0471 C.ar    1  UNL1        0.0550
     10 C          -2.1430    2.8372   26.1860 C.ar    1  UNL1        0.0094
     11 C          -0.8333    2.1077   26.1382 C.ar    1  UNL1        0.0550
     12 C           0.0704    2.2657   24.9514 C.ar    1  UNL1        0.0194
     13 C          -3.8589    4.4544   25.0949 C.ar    1  UNL1        0.2299
     14 N          -4.0379    5.9432   25.1351 N.ar    1  UNL1       -0.2065
     15 C          -5.5092    6.2323   25.1760 C.ar    1  UNL1        0.1427
     16 C          -6.2396    4.9221   25.1611 C.ar    1  UNL1        0.2021
     17 O          -5.2196    3.8233   25.1110 O.2     1  UNL1       -0.4314
     18 C          -0.4272    1.2201   27.2771 C.ar    1  UNL1        0.2299
     19 N          -1.3392    0.6646   28.3307 N.ar    1  UNL1       -0.2065
     20 C          -0.5134   -0.1667   29.2672 C.ar    1  UNL1        0.1427
     21 C           0.9089   -0.1250   28.7925 C.ar    1  UNL1        0.2021
     22 O           0.9622    0.7321   27.5626 O.2     1  UNL1       -0.4314
     23 C          -0.2544    3.4913   17.8652 C.3     1  UNL1        0.0214
     24 C           0.5569    2.5699   18.7269 C.3     1  UNL1        0.0770
     25 C           0.9112    1.1986   18.2327 C.3     1  UNL1        0.0661
     26 C           1.2023    0.1004   19.2120 C.3     1  UNL1        0.1738
     27 O           0.2120   -0.2246   20.2907 O.3     1  UNL1       -0.3697
     28 H           0.5521   -0.9534   20.8330 H       1  UNL1        0.2119
     29 N           2.4839   -0.6729   19.1127 N.3     1  UNL1       -0.2511
     30 C           3.4624   -0.3654   18.0182 C.3     1  UNL1        0.0742
     31 C           4.7439   -1.1386   17.9189 C.3     1  UNL1        0.0175
     32 C           5.0468   -2.2194   18.9140 C.3     1  UNL1        0.0031
     33 C           4.0682   -2.5268   20.0085 C.3     1  UNL1        0.0205
     34 C           2.7867   -1.7536   20.1078 C.3     1  UNL1        0.0745
     35 C           4.3711   -3.6076   21.0036 C.3     1  UNL1        0.0277
     36 C           4.8887   -3.2497   22.3652 C.ar    1  UNL1       -0.0220
     37 C           6.1246   -3.9137   22.8961 C.ar    1  UNL1       -0.0020
     38 C           6.6422   -3.5559   24.2577 C.ar    1  UNL1        0.0293
     39 C           5.9240   -2.5341   25.0884 C.ar    1  UNL1        0.1401
     40 F           6.4417   -2.1762   26.4501 F       1  UNL1       -0.2042
     41 C           4.6882   -1.8701   24.5576 C.ar    1  UNL1        0.0293
     42 C           4.1705   -2.2279   23.1959 C.ar    1  UNL1       -0.0020
@<TRIPOS>BOND
     1    24    23    1
     2    24    25    1
     3    25    26    1
     4    26    27    1
     5    26    29    1
     6    29    30    1
     7    30    31    1
     8    31    32    1
     9    32    33    1
    10    33    35    1
    11    35    36    1
    12    36    37   ar
    13    37    38   ar
    14    38    39   ar
    15    39    40    1
    16    39    41   ar
    17    41    42   ar
    18    33    34    1
    19    24     1    1
    20     1     2   am
    21     2     3    2
    22     2     4   am
    23     4     7    1
    24     7     8   ar
    25     8     9   ar
    26     9    13    1
    27    13    14   ar
    28    14    15   ar
    29    15    16   ar
    30    16    17   ar
    31     9    10   ar
    32    10    11   ar
    33    11    18    1
    34    18    19   ar
    35    19    20   ar
    36    20    21   ar
    37    21    22   ar
    38    11    12   ar
    39    34    29    1
    40    12     7   ar
    41    42    36   ar
    42    17    13   ar
    43    22    18   ar
    44    27    28    1
    45     1     5    1
    46     4     6    1
@<TRIPOS>MOLECULE
*****
 42 46 0 0 0
SMALL
GASTEIGER

@<TRIPOS>ATOM
      1 N           8.8752   -4.8516   28.4102 N.am    1  UNL1       -0.2902
      2 C           7.6191   -4.3352   27.7734 C.2     1  UNL1        0.3044
      3 O           6.2941   -4.9424   28.1280 O.2     1  UNL1       -0.2525
      4 N           7.6879   -3.2115   26.7821 N.am    1  UNL1       -0.2683
      5 H           9.7448   -4.4530   28.1775 H       1  UNL1        0.1509
      6 H           8.5576   -2.8130   26.5494 H       1  UNL1        0.1564
      7 C           6.4319   -2.6951   26.1454 C.ar    1  UNL1        0.0519
      8 C           5.4767   -1.8569   26.9425 C.ar    1  UNL1        0.0194
      9 C           4.2207   -1.3405   26.3057 C.ar    1  UNL1        0.0550
     10 C           3.9196   -1.6622   24.8719 C.ar    1  UNL1        0.0094
     11 C           4.8746   -2.5003   24.0748 C.ar    1  UNL1        0.0550
     12 C           6.1308   -3.0168   24.7116 C.ar    1  UNL1        0.0194
     13 C           3.2656   -0.5023   27.1028 C.ar    1  UNL1        0.2299
     14 N           2.5289   -0.9360   28.3355 N.ar    1  UNL1       -0.2065
     15 C           1.6876    0.2150   28.8017 C.ar    1  UNL1        0.1427
     16 C           1.9042    1.3600   27.8572 C.ar    1  UNL1        0.2021
     17 O           2.8795    0.9167   26.8073 O.2     1  UNL1       -0.4314
     18 C           4.5736   -2.8221   22.6410 C.ar    1  UNL1        0.2299
     19 N           3.9242   -1.9033   21.6488 N.ar    1  UNL1       -0.2065
     20 C           3.8183   -2.6325   20.3422 C.ar    1  UNL1        0.1427
     21 C           4.4022   -4.0018   20.5269 C.ar    1  UNL1        0.2021
     22 O           4.8690   -4.1189   21.9476 O.2     1  UNL1       -0.4314
     23 C           8.7297   -7.3945   28.9223 C.3     1  UNL1        0.0214
     24 C           8.8063   -5.9752   29.4015 C.3     1  UNL1        0.0770
     25 C           8.8141   -5.6795   30.8721 C.3     1  UNL1        0.0661
     26 C           7.5652   -5.1936   31.5460 C.3     1  UNL1        0.1738
     27 O           6.5503   -6.1790   32.0449 O.3     1  UNL1       -0.3697
     28 H           5.8095   -5.7025   32.4513 H       1  UNL1        0.2119
     29 N           7.3312   -3.7223   31.7210 N.3     1  UNL1       -0.2511
     30 C           8.4499   -2.7516   31.4840 C.3     1  UNL1        0.0742
     31 C           8.2159   -1.2804   31.6590 C.3     1  UNL1        0.0175
     32 C           6.8631   -0.7799   32.0709 C.3     1  UNL1        0.0031
     33 C           5.7445   -1.7506   32.3079 C.3     1  UNL1        0.0205
     34 C           5.9785   -3.2218   32.1329 C.3     1  UNL1        0.0745
     35 C           4.3918   -1.2501   32.7198 C.3     1  UNL1        0.0277
     36 C           4.2515   -0.3806   33.9340 C.ar    1  UNL1       -0.0220
     37 C           3.5501    0.9415   33.8328 C.ar    1  UNL1       -0.0020
     38 C           3.4099    1.8110   35.0469 C.ar    1  UNL1        0.0293
     39 C           3.9710    1.3585   36.3623 C.ar    1  UNL1        0.1401
     40 F           3.8308    2.2281   37.5766 F       1  UNL1       -0.2042
     41 C           4.6724    0.0365   36.4636 C.ar    1  UNL1        0.0293
     42 C           4.8127   -0.8331   35.2494 C.ar    1  UNL1       -0.0020
@<TRIPOS>BOND
     1    24    23    1
     2    24    25    1
     3    25    26    1
     4    26    27    1
     5    26    29    1
     6    29    30    1
     7    30    31    1
     8    31    32    1
     9    32    33    1
    10    33    35    1
    11    35    36    1
    12    36    37   ar
    13    37    38   ar
    14    38    39   ar
    15    39    40    1
    16    39    41   ar
    17    41    42   ar
    18    33    34    1
    19    24     1    1
    20     1     2   am
    21     2     3    2
    22     2     4   am
    23     4     7    1
    24     7     8   ar
    25     8     9   ar
    26     9    13    1
    27    13    14   ar
    28    14    15   ar
    29    15    16   ar
    30    16    17   ar
    31     9    10   ar
    32    10    11   ar
    33    11    18    1
    34    18    19   ar
    35    19    20   ar
    36    20    21   ar
    37    21    22   ar
    38    11    12   ar
    39    34    29    1
    40    12     7   ar
    41    42    36   ar
    42    17    13   ar
    43    22    18   ar
    44    27    28    1
    45     1     5    1
    46     4     6    1
@<TRIPOS>MOLECULE
*****
 42 46 0 0 0
SMALL
GASTEIGER

@<TRIPOS>ATOM
      1 N           4.6031   -2.6021   20.6955 N.am    1  UNL1       -0.2902
      2 C           3.4701   -1.7201   21.1297 C.2     1  UNL1        0.3044
      3 O           2.1594   -1.7703   20.4022 O.2     1  UNL1       -0.2525
      4 N           3.6480   -0.7879   22.2913 N.am    1  UNL1       -0.2683
      5 H           5.4634   -2.5691   21.1730 H       1  UNL1        0.1509
      6 H           4.5084   -0.7549   22.7687 H       1  UNL1        0.1564
      7 C           2.5151    0.0941   22.7254 C.ar    1  UNL1        0.0519
      8 C           2.1864    0.2301   24.1827 C.ar    1  UNL1        0.0194
      9 C           1.0535    1.1121   24.6169 C.ar    1  UNL1        0.0550
     10 C           0.2492    1.8582   23.5938 C.ar    1  UNL1        0.0094
     11 C           0.5779    1.7222   22.1366 C.ar    1  UNL1        0.0550
     12 C           1.7109    0.8402   21.7024 C.ar    1  UNL1        0.0194
     13 C           0.7248    1.2481   26.0740 C.ar    1  UNL1        0.2299
     14 N          -0.6130    1.6135   26.6458 N.ar    1  UNL1       -0.2065
     15 C          -0.4884    1.6338   28.1405 C.ar    1  UNL1        0.1427
     16 C           0.9264    1.2809   28.4926 C.ar    1  UNL1        0.2021
     17 O           1.6762    1.0425   27.2154 O.2     1  UNL1       -0.4314
     18 C          -0.2264    2.4682   21.1136 C.ar    1  UNL1        0.2299
     19 N          -1.6749    2.8402   21.2308 N.ar    1  UNL1       -0.2065
     20 C          -2.0670    3.5752   19.9834 C.ar    1  UNL1        0.1427
     21 C          -0.8610    3.6574   19.0952 C.ar    1  UNL1        0.2021
     22 O           0.2765    2.9733   19.7938 O.2     1  UNL1       -0.4314
     23 C           3.5973   -4.7755   19.6883 C.3     1  UNL1        0.0214
     24 C           4.4252   -3.5343   19.5339 C.3     1  UNL1        0.0770
     25 C           5.0752   -3.2252   18.2178 C.3     1  UNL1        0.0661
     26 C           5.7163   -1.8877   17.9937 C.3     1  UNL1        0.1738
     27 O           7.1277   -1.8071   17.4924 O.3     1  UNL1       -0.3697
     28 H           7.3864   -0.8765   17.4030 H       1  UNL1        0.2119
     29 N           4.9458   -0.6308   18.2709 N.3     1  UNL1       -0.2511
     30 C           3.5731   -0.4500   17.6941 C.3     1  UNL1        0.0742
     31 C           2.8027    0.8068   17.9713 C.3     1  UNL1        0.0175
     32 C           3.4051    1.8828   18.8254 C.3     1  UNL1        0.0031
     33 C           4.7779    1.7020   19.4022 C.3     1  UNL1        0.0205
     34 C           5.5483    0.4451   19.1250 C.3     1  UNL1        0.0745
     35 C           5.3803    2.7779   20.2562 C.3     1  UNL1        0.0277
     36 C           4.8568    3.0172   21.6413 C.ar    1  UNL1       -0.0220
     37 C           5.4906    2.3265   22.8124 C.ar    1  UNL1       -0.0020
     38 C           4.9670    2.5658   24.1976 C.ar    1  UNL1        0.0293
     39 C           3.8097    3.4957   24.4117 C.ar    1  UNL1        0.1401
     40 F           3.2862    3.7350   25.7969 F       1  UNL1       -0.2042
     41 C           3.1759    4.1864   23.2407 C.ar    1  UNL1        0.0293
     42 C           3.6995    3.9471   21.8555 C.ar    1  UNL1       -0.0020
@<TRIPOS>BOND
     1    24    23    1
     2    24    25    1
     3    25    26    1
     4    26    27    1
     5    26    29    1
     6    29    30    1
     7    30    31    1
     8    31    32    1
     9    32    33    1
    10    33    35    1
    11    35    36    1
    12    36    37   ar
    13    37    38   ar
    14    38    39   ar
    15    39    40    1
    16    39    41   ar
    17    41    42   ar
    18    33    34    1
    19    24     1    1
    20     1     2   am
    21     2     3    2
    22     2     4   am
    23     4     7    1
    24     7     8   ar
    25     8     9   ar
    26     9    13    1
    27    13    14   ar
    28    14    15   ar
    29    15    16   ar
    30    16    17   ar
    31     9    10   ar
    32    10    11   ar
    33    11    18    1
    34    18    19   ar
    35    19    20   ar
    36    20    21   ar
    37    21    22   ar
    38    11    12   ar
    39    34    29    1
    40    12     7   ar
    41    42    36   ar
    42    17    13   ar
    43    22    18   ar
    44    27    28    1
    45     1     5    1
    46     4     6    1
@<TRIPOS>MOLECULE
*****
 42 46 0 0 0
SMALL
GASTEIGER

@<TRIPOS>ATOM
      1 N           8.9365   -4.8792   28.5126 N.am    1  UNL1       -0.2902
      2 C           7.6787   -4.3634   27.8788 C.2     1  UNL1        0.3044
      3 O           6.3582   -4.9914   28.2133 O.2     1  UNL1       -0.2525
      4 N           7.7414   -3.2195   26.9104 N.am    1  UNL1       -0.2683
      5 H           9.8032   -4.4671   28.2931 H       1  UNL1        0.1509
      6 H           8.6081   -2.8074   26.6909 H       1  UNL1        0.1564
      7 C           6.4836   -2.7037   26.2766 C.ar    1  UNL1        0.0519
      8 C           6.1881   -3.0106   24.8383 C.ar    1  UNL1        0.0194
      9 C           4.9303   -2.4947   24.2044 C.ar    1  UNL1        0.0550
     10 C           3.9680   -1.6719   25.0088 C.ar    1  UNL1        0.0094
     11 C           4.2635   -1.3650   26.4470 C.ar    1  UNL1        0.0550
     12 C           5.5213   -1.8809   27.0809 C.ar    1  UNL1        0.0194
     13 C           4.6348   -2.8017   22.7663 C.ar    1  UNL1        0.2299
     14 N           4.0529   -1.8502   21.7631 N.ar    1  UNL1       -0.2065
     15 C           3.9278   -2.5744   20.4555 C.ar    1  UNL1        0.1427
     16 C           4.4324   -3.9735   20.6504 C.ar    1  UNL1        0.2021
     17 O           4.8693   -4.1140   22.0786 O.2     1  UNL1       -0.4314
     18 C           3.3012   -0.5422   27.2513 C.ar    1  UNL1        0.2299
     19 N           3.0582    0.9302   27.0987 N.ar    1  UNL1       -0.2065
     20 C           2.0197    1.3350   28.1026 C.ar    1  UNL1        0.1427
     21 C           1.6209    0.1129   28.8756 C.ar    1  UNL1        0.2021
     22 O           2.4129   -1.0472   28.3494 O.2     1  UNL1       -0.4314
     23 C           8.8617   -7.4349   28.9743 C.3     1  UNL1        0.0214
     24 C           8.8738   -6.0231   29.4810 C.3     1  UNL1        0.0770
     25 C           8.8232   -5.7551   30.9560 C.3     1  UNL1        0.0661
     26 C           7.5667   -5.2230   31.5789 C.3     1  UNL1        0.1738
     27 O           6.5249   -6.1714   32.0938 O.3     1  UNL1       -0.3697
     28 H           5.7825   -5.6673   32.4621 H       1  UNL1        0.2119
     29 N           7.3520   -3.7423   31.6870 N.3     1  UNL1       -0.2511
     30 C           8.4850   -2.7982   31.4135 C.3     1  UNL1        0.0742
     31 C           8.2703   -1.3176   31.5215 C.3     1  UNL1        0.0175
     32 C           6.9224   -0.7811   31.9031 C.3     1  UNL1        0.0031
     33 C           5.7894   -1.7252   32.1766 C.3     1  UNL1        0.0205
     34 C           6.0042   -3.2058   32.0685 C.3     1  UNL1        0.0745
     35 C           4.4416   -1.1887   32.5581 C.3     1  UNL1        0.0277
     36 C           4.2839   -0.3785   33.8106 C.ar    1  UNL1       -0.0220
     37 C           3.5518    0.9301   33.7701 C.ar    1  UNL1       -0.0020
     38 C           3.3941    1.7403   35.0226 C.ar    1  UNL1        0.0293
     39 C           3.9686    1.2420   36.3155 C.ar    1  UNL1        0.1401
     40 F           3.8110    2.0522   37.5680 F       1  UNL1       -0.2042
     41 C           4.7008   -0.0666   36.3560 C.ar    1  UNL1        0.0293
     42 C           4.8585   -0.8768   35.1035 C.ar    1  UNL1       -0.0020
@<TRIPOS>BOND
     1    24    23    1
     2    24    25    1
     3    25    26    1
     4    26    27    1
     5    26    29    1
     6    29    30    1
     7    30    31    1
     8    31    32    1
     9    32    33    1
    10    33    35    1
    11    35    36    1
    12    36    37   ar
    13    37    38   ar
    14    38    39   ar
    15    39    40    1
    16    39    41   ar
    17    41    42   ar
    18    33    34    1
    19    24     1    1
    20     1     2   am
    21     2     3    2
    22     2     4   am
    23     4     7    1
    24     7     8   ar
    25     8     9   ar
    26     9    13    1
    27    13    14   ar
    28    14    15   ar
    29    15    16   ar
    30    16    17   ar
    31     9    10   ar
    32    10    11   ar
    33    11    18    1
    34    18    19   ar
    35    19    20   ar
    36    20    21   ar
    37    21    22   ar
    38    11    12   ar
    39    34    29    1
    40    12     7   ar
    41    42    36   ar
    42    17    13   ar
    43    22    18   ar
    44    27    28    1
    45     1     5    1
    46     4     6    1
