@<TRIPOS>MOLECULE
*****
 29 33 0 0 0
SMALL
GASTEIGER

@<TRIPOS>ATOM
      1 C           3.4157   -1.4306   20.3627 C.ar    1  UNL1        0.2228
      2 N           4.0064   -1.7350   19.0179 N.ar    1  UNL1       -0.1240
      3 N           5.2253   -2.5835   19.2283 N.ar    1  UNL1       -0.1315
      4 C           5.3880   -2.8035   20.7032 C.ar    1  UNL1        0.1616
      5 N           4.2696   -2.0910   21.4042 N.ar    1  UNL1       -0.2918
      6 C           4.1732   -2.1356   22.9004 C.3     1  UNL1        0.1303
      7 C           5.1952   -2.8927   23.6957 C.3     1  UNL1        0.1186
      8 N           6.3136   -3.6052   22.9946 N.am    1  UNL1       -0.2688
      9 C           7.3356   -4.3623   23.7898 C.2     1  UNL1        0.2493
     10 O           8.4540   -5.0749   23.0887 O.2     1  UNL1       -0.2699
     11 C           6.4099   -3.5606   21.4983 C.3     1  UNL1        0.1343
     12 C           7.5283   -4.2732   20.7973 C.3     1  UNL1        0.0298
     13 C           0.1340    2.2267   22.2952 C.3     1  UNL1        0.0773
     14 C           0.6785    1.0712   21.5089 C.ar    1  UNL1        0.1813
     15 N          -0.0864    0.2349   20.5263 N.ar    1  UNL1       -0.0601
     16 O           0.8459   -0.8042   19.9773 O.2     1  UNL1       -0.3295
     17 C           2.1869   -0.6099   20.6206 C.ar    1  UNL1        0.2958
     18 N           2.0835    0.5491   21.5672 N.ar    1  UNL1       -0.1885
     19 C           7.2392   -4.4069   25.2860 C.ar    1  UNL1        0.0536
     20 C           6.7930   -5.6642   25.9717 C.ar    1  UNL1        0.0045
     21 C           6.6966   -5.7087   27.4680 C.ar    1  UNL1        0.0006
     22 C           7.0463   -4.4960   28.2784 C.ar    1  UNL1        0.0060
     23 C           7.4925   -3.2387   27.5927 C.ar    1  UNL1        0.0006
     24 C           7.5889   -3.1941   26.0965 C.ar    1  UNL1        0.0045
     25 C           6.9500   -4.5405   29.7747 C.ar    1  UNL1        0.0295
     26 C           7.0352   -5.7715   30.6275 C.ar    1  UNL1        0.0070
     27 C           6.8893   -5.3536   32.0607 C.ar    1  UNL1        0.0075
     28 C           6.7139   -3.8642   32.0937 C.ar    1  UNL1        0.0354
     29 S           6.7514   -3.3617   30.6808 S.2     1  UNL1       -0.0864
@<TRIPOS>BOND
     1    13    14    1
     2    14    15   ar
     3    15    16   ar
     4    16    17   ar
     5    17     1    1
     6     1     2   ar
     7     2     3   ar
     8     3     4   ar
     9     4     5   ar
    10     5     6    1
    11     6     7    1
    12     7     8    1
    13     8     9   am
    14     9    10    2
    15     9    19    1
    16    19    20   ar
    17    20    21   ar
    18    21    22   ar
    19    22    25    1
    20    25    26   ar
    21    26    27   ar
    22    27    28   ar
    23    28    29   ar
    24    22    23   ar
    25    23    24   ar
    26     8    11    1
    27    11    12    1
    28    17    18   ar
    29    18    14   ar
    30     5     1   ar
    31    24    19   ar
    32    11     4    1
    33    29    25   ar
@<TRIPOS>MOLECULE
*****
 29 33 0 0 0
SMALL
GASTEIGER

@<TRIPOS>ATOM
      1 C           6.6746   -4.1475   23.2294 C.ar    1  UNL1        0.2228
      2 N           7.5390   -4.9669   22.3176 N.ar    1  UNL1       -0.1240
      3 N           7.1737   -4.6266   20.9031 N.ar    1  UNL1       -0.1315
      4 C           6.0836   -3.5969   20.9407 C.ar    1  UNL1        0.1616
      5 N           5.7751   -3.3008   22.3785 N.ar    1  UNL1       -0.2918
      6 C           4.7150   -2.2985   22.7271 C.3     1  UNL1        0.1303
      7 C           3.9633   -1.5922   21.6379 C.3     1  UNL1        0.1186
      8 N           4.2718   -1.8883   20.2002 N.am    1  UNL1       -0.2688
      9 C           3.5202   -1.1821   19.1110 C.2     1  UNL1        0.2493
     10 O           3.8287   -1.4781   17.6732 O.2     1  UNL1       -0.2699
     11 C           5.3320   -2.8907   19.8516 C.3     1  UNL1        0.1343
     12 C           5.6405   -3.1867   18.4138 C.3     1  UNL1        0.0298
     13 C           7.1910   -5.8026   28.2168 C.3     1  UNL1        0.0773
     14 C           6.9418   -4.9316   27.0214 C.ar    1  UNL1        0.1813
     15 N           6.5588   -3.4816   27.0516 N.ar    1  UNL1       -0.0601
     16 O           6.4120   -3.0114   25.6347 O.2     1  UNL1       -0.3295
     17 C           6.7044   -4.1708   24.7289 C.ar    1  UNL1        0.2958
     18 N           7.0318   -5.3575   25.5859 N.ar    1  UNL1       -0.1885
     19 C           2.4602   -0.1798   19.4596 C.ar    1  UNL1        0.0536
     20 C           2.6648    1.2710   19.1379 C.ar    1  UNL1        0.0045
     21 C           1.6046    2.2733   19.4866 C.ar    1  UNL1        0.0006
     22 C           0.3399    1.8249   20.1569 C.ar    1  UNL1        0.0060
     23 C           0.1353    0.3741   20.4786 C.ar    1  UNL1        0.0006
     24 C           1.1954   -0.6282   20.1300 C.ar    1  UNL1        0.0045
     25 C          -0.7202    2.8272   20.5056 C.ar    1  UNL1        0.0295
     26 C          -1.5657    3.5916   19.5305 C.ar    1  UNL1        0.0070
     27 C          -2.4890    4.4779   20.3128 C.ar    1  UNL1        0.0075
     28 C          -2.2142    4.2612   21.7715 C.ar    1  UNL1        0.0354
     29 S          -1.1209    3.2409   21.8906 S.2     1  UNL1       -0.0864
@<TRIPOS>BOND
     1    13    14    1
     2    14    15   ar
     3    15    16   ar
     4    16    17   ar
     5    17     1    1
     6     1     2   ar
     7     2     3   ar
     8     3     4   ar
     9     4     5   ar
    10     5     6    1
    11     6     7    1
    12     7     8    1
    13     8     9   am
    14     9    10    2
    15     9    19    1
    16    19    20   ar
    17    20    21   ar
    18    21    22   ar
    19    22    25    1
    20    25    26   ar
    21    26    27   ar
    22    27    28   ar
    23    28    29   ar
    24    22    23   ar
    25    23    24   ar
    26     8    11    1
    27    11    12    1
    28    17    18   ar
    29    18    14   ar
    30     5     1   ar
    31    24    19   ar
    32    11     4    1
    33    29    25   ar
@<TRIPOS>MOLECULE
*****
 29 33 0 0 0
SMALL
GASTEIGER

@<TRIPOS>ATOM
      1 C          -1.2948    2.7072   26.7503 C.ar    1  UNL1        0.2228
      2 N          -2.3590    3.7600   26.6551 N.ar    1  UNL1       -0.1240
      3 N          -2.5181    4.1287   25.2098 N.ar    1  UNL1       -0.1315
      4 C          -1.5523    3.3038   24.4119 C.ar    1  UNL1        0.1616
      5 N          -0.7962    2.4253   25.3640 N.ar    1  UNL1       -0.2918
      6 C           0.2485    1.4821   24.8456 C.3     1  UNL1        0.1303
      7 C           0.5373    1.4174   23.3750 C.3     1  UNL1        0.1186
      8 N          -0.2188    2.2959   22.4229 N.am    1  UNL1       -0.2688
      9 C           0.0699    2.2312   20.9524 C.2     1  UNL1        0.2493
     10 O          -0.6862    3.1098   20.0003 O.2     1  UNL1       -0.2699
     11 C          -1.2636    3.2391   22.9414 C.3     1  UNL1        0.1343
     12 C          -2.0197    4.1177   21.9893 C.3     1  UNL1        0.0298
     13 C           1.4039    1.7103   31.1780 C.3     1  UNL1        0.0773
     14 C           0.4268    1.5933   30.0458 C.ar    1  UNL1        0.1813
     15 N          -0.5731    0.4916   29.8545 N.ar    1  UNL1       -0.0601
     16 O          -1.3398    0.7749   28.5967 O.2     1  UNL1       -0.3295
     17 C          -0.8136    2.0515   28.0107 C.ar    1  UNL1        0.2958
     18 N           0.2782    2.5573   28.9063 N.ar    1  UNL1       -0.1885
     19 C           1.1147    1.2880   20.4340 C.ar    1  UNL1        0.0536
     20 C           0.8183   -0.1792   20.3361 C.ar    1  UNL1        0.0045
     21 C           1.8632   -1.1224   19.8177 C.ar    1  UNL1        0.0006
     22 C           3.2043   -0.5984   19.3972 C.ar    1  UNL1        0.0060
     23 C           3.5006    0.8687   19.4952 C.ar    1  UNL1        0.0006
     24 C           2.4559    1.8120   20.0136 C.ar    1  UNL1        0.0045
     25 C           4.2491   -1.5417   18.8788 C.ar    1  UNL1        0.0295
     26 C           4.1414   -3.0370   18.8313 C.ar    1  UNL1        0.0070
     27 C           5.4108   -3.5746   18.2400 C.ar    1  UNL1        0.0075
     28 C           6.3031   -2.4114   17.9221 C.ar    1  UNL1        0.0354
     29 S           5.5851   -1.1549   18.3169 S.2     1  UNL1       -0.0864
@<TRIPOS>BOND
     1    13    14    1
     2    14    15   ar
     3    15    16   ar
     4    16    17   ar
     5    17     1    1
     6     1     2   ar
     7     2     3   ar
     8     3     4   ar
     9     4     5   ar
    10     5     6    1
    11     6     7    1
    12     7     8    1
    13     8     9   am
    14     9    10    2
    15     9    19    1
    16    19    20   ar
    17    20    21   ar
    18    21    22   ar
    19    22    25    1
    20    25    26   ar
    21    26    27   ar
    22    27    28   ar
    23    28    29   ar
    24    22    23   ar
    25    23    24   ar
    26     8    11    1
    27    11    12    1
    28    17    18   ar
    29    18    14   ar
    30     5     1   ar
    31    24    19   ar
    32    11     4    1
    33    29    25   ar
@<TRIPOS>MOLECULE
*****
 29 33 0 0 0
SMALL
GASTEIGER

@<TRIPOS>ATOM
      1 C          -6.7405    4.5937   23.1009 C.ar    1  UNL1        0.2228
      2 N          -6.6096    4.5729   21.6068 N.ar    1  UNL1       -0.1240
      3 N          -5.1906    4.2217   21.2707 N.ar    1  UNL1       -0.1315
      4 C          -4.4444    4.0254   22.5571 C.ar    1  UNL1        0.1616
      5 N          -5.4024    4.2553   23.6883 N.ar    1  UNL1       -0.2918
      6 C          -4.9324    4.1269   25.1069 C.3     1  UNL1        0.1303
      7 C          -3.5045    3.7685   25.3945 C.3     1  UNL1        0.1186
      8 N          -2.5466    3.5385   24.2634 N.am    1  UNL1       -0.2688
      9 C          -1.1187    3.1801   24.5509 C.2     1  UNL1        0.2493
     10 O          -0.1608    2.9501   23.4197 O.2     1  UNL1       -0.2699
     11 C          -3.0166    3.6670   22.8446 C.3     1  UNL1        0.1343
     12 C          -2.0587    3.4370   21.7135 C.3     1  UNL1        0.0298
     13 C         -11.6370    4.2910   25.0536 C.3     1  UNL1        0.0773
     14 C         -10.2408    4.7601   24.7699 C.ar    1  UNL1        0.1813
     15 N          -9.5854    5.9788   25.3490 N.ar    1  UNL1       -0.0601
     16 O          -8.1944    6.0648   24.7942 O.2     1  UNL1       -0.3295
     17 C          -7.9901    4.8993   23.8723 C.ar    1  UNL1        0.2958
     18 N          -9.2549    4.0929   23.8573 N.ar    1  UNL1       -0.1885
     19 C          -0.6488    3.0516   25.9695 C.ar    1  UNL1        0.0536
     20 C          -0.6556    1.7116   26.6435 C.ar    1  UNL1        0.0045
     21 C          -0.1857    1.5832   28.0622 C.ar    1  UNL1        0.0006
     22 C           0.2911    2.7948   28.8069 C.ar    1  UNL1        0.0060
     23 C           0.2980    4.1348   28.1330 C.ar    1  UNL1        0.0006
     24 C          -0.1720    4.2633   26.7143 C.ar    1  UNL1        0.0045
     25 C           0.7611    2.6664   30.2256 C.ar    1  UNL1        0.0295
     26 C           0.5411    3.6669   31.3213 C.ar    1  UNL1        0.0070
     27 C           1.1776    3.1338   32.5705 C.ar    1  UNL1        0.0075
     28 C           1.7910    1.8036   32.2469 C.ar    1  UNL1        0.0354
     29 S           1.5335    1.5148   30.7976 S.2     1  UNL1       -0.0864
@<TRIPOS>BOND
     1    13    14    1
     2    14    15   ar
     3    15    16   ar
     4    16    17   ar
     5    17     1    1
     6     1     2   ar
     7     2     3   ar
     8     3     4   ar
     9     4     5   ar
    10     5     6    1
    11     6     7    1
    12     7     8    1
    13     8     9   am
    14     9    10    2
    15     9    19    1
    16    19    20   ar
    17    20    21   ar
    18    21    22   ar
    19    22    25    1
    20    25    26   ar
    21    26    27   ar
    22    27    28   ar
    23    28    29   ar
    24    22    23   ar
    25    23    24   ar
    26     8    11    1
    27    11    12    1
    28    17    18   ar
    29    18    14   ar
    30     5     1   ar
    31    24    19   ar
    32    11     4    1
    33    29    25   ar
@<TRIPOS>MOLECULE
*****
 29 33 0 0 0
SMALL
GASTEIGER

@<TRIPOS>ATOM
      1 C          -0.4911    2.5395   20.5627 C.ar    1  UNL1        0.2228
      2 N          -1.7114    3.2220   20.0194 N.ar    1  UNL1       -0.1240
      3 N          -2.5639    3.6404   21.1804 N.ar    1  UNL1       -0.1315
      4 C          -1.8706    3.2166   22.4412 C.ar    1  UNL1        0.1616
      5 N          -0.5895    2.5361   22.0594 N.ar    1  UNL1       -0.2918
      6 C           0.3219    2.0014   23.1240 C.3     1  UNL1        0.1303
      7 C          -0.0478    2.1471   24.5705 C.3     1  UNL1        0.1186
      8 N          -1.3289    2.8275   24.9523 N.am    1  UNL1       -0.2688
      9 C          -1.6986    2.9732   26.3986 C.2     1  UNL1        0.2493
     10 O          -2.9797    3.6537   26.7805 O.2     1  UNL1       -0.2699
     11 C          -2.2403    3.3623   23.8876 C.3     1  UNL1        0.1343
     12 C          -3.5214    4.0427   24.2694 C.3     1  UNL1        0.0298
     13 C           4.2761    1.7414   18.4373 C.3     1  UNL1        0.0773
     14 C           2.8219    1.5949   18.7747 C.ar    1  UNL1        0.1813
     15 N           1.8919    0.5505   18.2322 N.ar    1  UNL1       -0.0601
     16 O           0.5376    0.7772   18.8360 O.2     1  UNL1       -0.3295
     17 C           0.6307    1.9617   19.7516 C.ar    1  UNL1        0.2958
     18 N           2.0425    2.4671   19.7137 N.ar    1  UNL1       -0.1885
     19 C          -0.7872    2.4385   27.4632 C.ar    1  UNL1        0.0536
     20 C           0.2803    3.3159   28.0469 C.ar    1  UNL1        0.0045
     21 C           1.1917    2.7811   29.1115 C.ar    1  UNL1        0.0006
     22 C           1.0356    1.3689   29.5924 C.ar    1  UNL1        0.0060
     23 C          -0.0318    0.4915   29.0087 C.ar    1  UNL1        0.0006
     24 C          -0.9432    1.0262   27.9442 C.ar    1  UNL1        0.0045
     25 C           1.9471    0.8341   30.6570 C.ar    1  UNL1        0.0295
     26 C           2.1884    1.4512   32.0027 C.ar    1  UNL1        0.0070
     27 C           3.1676    0.5868   32.7402 C.ar    1  UNL1        0.0075
     28 C           3.5315   -0.5646   31.8502 C.ar    1  UNL1        0.0354
     29 S           2.7771   -0.4117   30.5627 S.2     1  UNL1       -0.0864
@<TRIPOS>BOND
     1    13    14    1
     2    14    15   ar
     3    15    16   ar
     4    16    17   ar
     5    17     1    1
     6     1     2   ar
     7     2     3   ar
     8     3     4   ar
     9     4     5   ar
    10     5     6    1
    11     6     7    1
    12     7     8    1
    13     8     9   am
    14     9    10    2
    15     9    19    1
    16    19    20   ar
    17    20    21   ar
    18    21    22   ar
    19    22    25    1
    20    25    26   ar
    21    26    27   ar
    22    27    28   ar
    23    28    29   ar
    24    22    23   ar
    25    23    24   ar
    26     8    11    1
    27    11    12    1
    28    17    18   ar
    29    18    14   ar
    30     5     1   ar
    31    24    19   ar
    32    11     4    1
    33    29    25   ar
@<TRIPOS>MOLECULE
*****
 29 33 0 0 0
SMALL
GASTEIGER

@<TRIPOS>ATOM
      1 C           2.1316   -0.1528   19.3168 C.ar    1  UNL1        0.2228
      2 N           1.2915    0.5877   18.3188 N.ar    1  UNL1       -0.1240
      3 N           0.4132    1.5433   19.0707 N.ar    1  UNL1       -0.1315
      4 C           0.7104    1.3934   20.5333 C.ar    1  UNL1        0.1616
      5 N           1.7725    0.3451   20.6854 N.ar    1  UNL1       -0.2918
      6 C           2.2753   -0.0206   22.0504 C.3     1  UNL1        0.1303
      7 C           1.7161    0.6620   23.2635 C.3     1  UNL1        0.1186
      8 N           0.6540    1.7103   23.1114 N.am    1  UNL1       -0.2688
      9 C           0.0948    2.3929   24.3243 C.2     1  UNL1        0.2493
     10 O          -0.9672    3.4412   24.1722 O.2     1  UNL1       -0.2699
     11 C           0.1512    2.0760   21.7462 C.3     1  UNL1        0.1343
     12 C          -0.9109    3.1243   21.5942 C.3     1  UNL1        0.0298
     13 C           4.6565   -4.7836   19.0684 C.3     1  UNL1        0.0773
     14 C           4.3123   -3.3349   18.8873 C.ar    1  UNL1        0.1813
     15 N           5.1309   -2.3203   18.1453 N.ar    1  UNL1       -0.0601
     16 O           4.4136   -1.0047   18.2159 O.2     1  UNL1       -0.3295
     17 C           3.1518   -1.2063   19.0015 C.ar    1  UNL1        0.2958
     18 N           3.0891   -2.6464   19.4164 N.ar    1  UNL1       -0.1885
     19 C           0.5977    2.0272   25.6894 C.ar    1  UNL1        0.0536
     20 C           1.9099    2.5678   26.1749 C.ar    1  UNL1        0.0045
     21 C           2.4127    2.2020   27.5401 C.ar    1  UNL1        0.0006
     22 C           1.6033    1.2957   28.4195 C.ar    1  UNL1        0.0060
     23 C           0.2911    0.7552   27.9339 C.ar    1  UNL1        0.0006
     24 C          -0.2117    1.1209   26.5689 C.ar    1  UNL1        0.0045
     25 C           2.1062    0.9300   29.7846 C.ar    1  UNL1        0.0295
     26 C           2.0986    1.8173   30.9940 C.ar    1  UNL1        0.0070
     27 C           2.6926    1.0484   32.1368 C.ar    1  UNL1        0.0075
     28 C           3.0673   -0.3142   31.6337 C.ar    1  UNL1        0.0354
     29 S           2.7048   -0.3874   30.1799 S.2     1  UNL1       -0.0864
@<TRIPOS>BOND
     1    13    14    1
     2    14    15   ar
     3    15    16   ar
     4    16    17   ar
     5    17     1    1
     6     1     2   ar
     7     2     3   ar
     8     3     4   ar
     9     4     5   ar
    10     5     6    1
    11     6     7    1
    12     7     8    1
    13     8     9   am
    14     9    10    2
    15     9    19    1
    16    19    20   ar
    17    20    21   ar
    18    21    22   ar
    19    22    25    1
    20    25    26   ar
    21    26    27   ar
    22    27    28   ar
    23    28    29   ar
    24    22    23   ar
    25    23    24   ar
    26     8    11    1
    27    11    12    1
    28    17    18   ar
    29    18    14   ar
    30     5     1   ar
    31    24    19   ar
    32    11     4    1
    33    29    25   ar
@<TRIPOS>MOLECULE
*****
 29 33 0 0 0
SMALL
GASTEIGER

@<TRIPOS>ATOM
      1 C           2.0537    0.1276   29.5060 C.ar    1  UNL1        0.2228
      2 N           0.7871    0.7413   30.0247 N.ar    1  UNL1       -0.1240
      3 N           0.0303    1.2996   28.8562 N.ar    1  UNL1       -0.1315
      4 C           0.8290    1.0310   27.6153 C.ar    1  UNL1        0.1616
      5 N           2.0796    0.3066   28.0169 N.ar    1  UNL1       -0.2918
      6 C           3.0804   -0.0964   26.9749 C.3     1  UNL1        0.1303
      7 C           2.8306    0.2250   25.5311 C.3     1  UNL1        0.1186
      8 N           1.5800    0.9493   25.1295 N.am    1  UNL1       -0.2688
      9 C           1.3302    1.2707   23.6858 C.2     1  UNL1        0.2493
     10 O           0.0796    1.9951   23.2842 O.2     1  UNL1       -0.2699
     11 C           0.5792    1.3523   26.1717 C.3     1  UNL1        0.1343
     12 C          -0.6714    2.0767   25.7701 C.3     1  UNL1        0.0298
     13 C           4.5074   -2.3461   33.4735 C.3     1  UNL1        0.0773
     14 C           4.2369   -1.6838   32.1551 C.ar    1  UNL1        0.1813
     15 N           5.2296   -1.4852   31.0482 N.ar    1  UNL1       -0.0601
     16 O           4.5326   -0.7824   29.9211 O.2     1  UNL1       -0.3295
     17 C           3.1092   -0.5467   30.3314 C.ar    1  UNL1        0.2958
     18 N           2.9264   -1.1038   31.7121 N.ar    1  UNL1       -0.1885
     19 C           2.3309    0.8677   22.6437 C.ar    1  UNL1        0.0536
     20 C           2.1915   -0.4494   21.9396 C.ar    1  UNL1        0.0045
     21 C           3.1923   -0.8524   20.8974 C.ar    1  UNL1        0.0006
     22 C           4.3326    0.0617   20.5595 C.ar    1  UNL1        0.0060
     23 C           4.4720    1.3788   21.2636 C.ar    1  UNL1        0.0006
     24 C           3.4713    1.7818   22.3057 C.ar    1  UNL1        0.0045
     25 C           5.3334   -0.3413   19.5174 C.ar    1  UNL1        0.0295
     26 C           6.1149   -1.6214   19.4938 C.ar    1  UNL1        0.0070
     27 C           6.9930   -1.6061   18.2777 C.ar    1  UNL1        0.0075
     28 C           6.7541   -0.3166   17.5497 C.ar    1  UNL1        0.0354
     29 S           5.7284    0.4652   18.3158 S.2     1  UNL1       -0.0864
@<TRIPOS>BOND
     1    13    14    1
     2    14    15   ar
     3    15    16   ar
     4    16    17   ar
     5    17     1    1
     6     1     2   ar
     7     2     3   ar
     8     3     4   ar
     9     4     5   ar
    10     5     6    1
    11     6     7    1
    12     7     8    1
    13     8     9   am
    14     9    10    2
    15     9    19    1
    16    19    20   ar
    17    20    21   ar
    18    21    22   ar
    19    22    25    1
    20    25    26   ar
    21    26    27   ar
    22    27    28   ar
    23    28    29   ar
    24    22    23   ar
    25    23    24   ar
    26     8    11    1
    27    11    12    1
    28    17    18   ar
    29    18    14   ar
    30     5     1   ar
    31    24    19   ar
    32    11     4    1
    33    29    25   ar
@<TRIPOS>MOLECULE
*****
 29 33 0 0 0
SMALL
GASTEIGER

@<TRIPOS>ATOM
      1 C           3.2896   -0.1938   30.6775 C.ar    1  UNL1        0.2228
      2 N           2.5218    0.9433   31.2835 N.ar    1  UNL1       -0.1240
      3 N           1.8761    1.7125   30.1693 N.ar    1  UNL1       -0.1315
      4 C           2.2448    1.0507   28.8747 C.ar    1  UNL1        0.1616
      5 N           3.1185   -0.1275   29.1887 N.ar    1  UNL1       -0.2918
      6 C           3.6452   -0.9876   28.0785 C.3     1  UNL1        0.1303
      7 C           3.2984   -0.6696   26.6542 C.3     1  UNL1        0.1186
      8 N           2.4247    0.5085   26.3402 N.am    1  UNL1       -0.2688
      9 C           2.0778    0.8266   24.9159 C.2     1  UNL1        0.2493
     10 O           1.2042    2.0047   24.6019 O.2     1  UNL1       -0.2699
     11 C           1.8979    1.3687   27.4504 C.3     1  UNL1        0.1343
     12 C           1.0243    2.5469   27.1364 C.3     1  UNL1        0.0298
     13 C           7.1167   -3.5679   32.0375 C.3     1  UNL1        0.0773
     14 C           5.8475   -2.7685   32.0534 C.ar    1  UNL1        0.1813
     15 N           4.7878   -2.8177   33.1139 N.ar    1  UNL1       -0.0601
     16 O           3.7006   -1.8592   32.7275 O.2     1  UNL1       -0.3295
     17 C           4.0884   -1.2176   31.4283 C.ar    1  UNL1        0.2958
     18 N           5.4153   -1.7797   31.0116 N.ar    1  UNL1       -0.1885
     19 C           2.6046   -0.0336   23.8057 C.ar    1  UNL1        0.0536
     20 C           2.0526    0.1109   22.4185 C.ar    1  UNL1        0.0045
     21 C           2.5794   -0.7493   21.3083 C.ar    1  UNL1        0.0006
     22 C           3.6582   -1.7540   21.5853 C.ar    1  UNL1        0.0060
     23 C           4.2102   -1.8985   22.9725 C.ar    1  UNL1        0.0006
     24 C           3.6835   -1.0383   24.0827 C.ar    1  UNL1        0.0045
     25 C           4.1851   -2.6143   20.4751 C.ar    1  UNL1        0.0295
     26 C           3.9965   -4.0964   20.3428 C.ar    1  UNL1        0.0070
     27 C           4.6879   -4.5415   19.0882 C.ar    1  UNL1        0.0075
     28 C           5.3037   -3.3343   18.4451 C.ar    1  UNL1        0.0354
     29 S           4.9929   -2.1432   19.3023 S.2     1  UNL1       -0.0864
@<TRIPOS>BOND
     1    13    14    1
     2    14    15   ar
     3    15    16   ar
     4    16    17   ar
     5    17     1    1
     6     1     2   ar
     7     2     3   ar
     8     3     4   ar
     9     4     5   ar
    10     5     6    1
    11     6     7    1
    12     7     8    1
    13     8     9   am
    14     9    10    2
    15     9    19    1
    16    19    20   ar
    17    20    21   ar
    18    21    22   ar
    19    22    25    1
    20    25    26   ar
    21    26    27   ar
    22    27    28   ar
    23    28    29   ar
    24    22    23   ar
    25    23    24   ar
    26     8    11    1
    27    11    12    1
    28    17    18   ar
    29    18    14   ar
    30     5     1   ar
    31    24    19   ar
    32    11     4    1
    33    29    25   ar
@<TRIPOS>MOLECULE
*****
 29 33 0 0 0
SMALL
GASTEIGER

@<TRIPOS>ATOM
      1 C           2.3435   -0.5264   28.8342 C.ar    1  UNL1        0.2228
      2 N           3.0990   -1.3963   27.8738 N.ar    1  UNL1       -0.1240
      3 N           4.4072   -1.7618   28.5102 N.ar    1  UNL1       -0.1315
      4 C           4.4602   -1.1178   29.8639 C.ar    1  UNL1        0.1616
      5 N           3.1847   -0.3543   30.0641 N.ar    1  UNL1       -0.2918
      6 C           2.9541    0.3991   31.3405 C.3     1  UNL1        0.1303
      7 C           3.9990    0.3889   32.4168 C.3     1  UNL1        0.1186
      8 N           5.2745   -0.3747   32.2165 N.am    1  UNL1       -0.2688
      9 C           6.3193   -0.3849   33.2926 C.2     1  UNL1        0.2493
     10 O           7.5948   -1.1485   33.0924 O.2     1  UNL1       -0.2699
     11 C           5.5050   -1.1281   30.9400 C.3     1  UNL1        0.1343
     12 C           6.7805   -1.8916   30.7398 C.3     1  UNL1        0.0298
     13 C          -1.5694    2.4898   26.9707 C.3     1  UNL1        0.0773
     14 C          -0.8134    1.4537   27.7484 C.ar    1  UNL1        0.1813
     15 N          -1.3969    0.5079   28.7560 N.ar    1  UNL1       -0.0601
     16 O          -0.2852   -0.3490   29.2854 O.2     1  UNL1       -0.3295
     17 C           0.9851    0.0672   28.6050 C.ar    1  UNL1        0.2958
     18 N           0.6587    1.1813   27.6551 N.ar    1  UNL1       -0.1885
     19 C           6.0887    0.3684   34.5690 C.ar    1  UNL1        0.0536
     20 C           5.3983   -0.3005   35.7205 C.ar    1  UNL1        0.0045
     21 C           5.1676    0.4529   36.9969 C.ar    1  UNL1        0.0006
     22 C           5.6275    1.8752   37.1219 C.ar    1  UNL1        0.0060
     23 C           6.3179    2.5441   35.9704 C.ar    1  UNL1        0.0006
     24 C           6.5485    1.7908   34.6940 C.ar    1  UNL1        0.0045
     25 C           5.3969    2.6286   38.3983 C.ar    1  UNL1        0.0295
     26 C           6.3521    2.7238   39.5509 C.ar    1  UNL1        0.0070
     27 C           5.7161    3.5731   40.6111 C.ar    1  UNL1        0.0075
     28 C           4.3677    4.0029   40.1138 C.ar    1  UNL1        0.0354
     29 S           4.1704    3.4191   38.7462 S.2     1  UNL1       -0.0864
@<TRIPOS>BOND
     1    13    14    1
     2    14    15   ar
     3    15    16   ar
     4    16    17   ar
     5    17     1    1
     6     1     2   ar
     7     2     3   ar
     8     3     4   ar
     9     4     5   ar
    10     5     6    1
    11     6     7    1
    12     7     8    1
    13     8     9   am
    14     9    10    2
    15     9    19    1
    16    19    20   ar
    17    20    21   ar
    18    21    22   ar
    19    22    25    1
    20    25    26   ar
    21    26    27   ar
    22    27    28   ar
    23    28    29   ar
    24    22    23   ar
    25    23    24   ar
    26     8    11    1
    27    11    12    1
    28    17    18   ar
    29    18    14   ar
    30     5     1   ar
    31    24    19   ar
    32    11     4    1
    33    29    25   ar
