@<TRIPOS>MOLECULE
*****
 34 38 0 0 0
SMALL
GASTEIGER

@<TRIPOS>ATOM
      1 C           8.2010   -5.2470   24.1151 C.ar    1  UNL1        0.2037
      2 N           9.1626   -4.0967   24.0673 N.ar    1  UNL1       -0.0555
      3 O           8.7145   -3.1627   22.9826 O.2     1  UNL1       -0.3291
      4 C           7.4759   -3.7357   22.3600 C.ar    1  UNL1        0.2973
      5 N           7.1586   -5.0238   23.0599 N.ar    1  UNL1       -0.1843
      6 C           8.4073   -8.7519   26.9299 C.ar    1  UNL1       -0.0061
      7 C           7.2339   -7.8189   26.9787 C.ar    1  UNL1       -0.0028
      8 C           7.1651   -6.6506   26.0405 C.ar    1  UNL1        0.0029
      9 C           8.2698   -6.4154   25.0534 C.ar    1  UNL1        0.0391
     10 C           9.4432   -7.3484   25.0046 C.ar    1  UNL1        0.0029
     11 C           9.5120   -8.5167   25.9428 C.ar    1  UNL1       -0.0028
     12 C           8.4761   -9.9202   27.8682 C.3     1  UNL1        0.0992
     13 C           5.7940  -12.3525   27.9311 C.3     1  UNL1        0.0684
     14 C           7.2678  -12.3914   28.2074 C.3     1  UNL1        0.0793
     15 N           7.3652  -10.9277   27.8942 N.3     1  UNL1       -0.2682
     16 C           5.8914  -10.8888   27.6179 C.3     1  UNL1        0.0793
     17 O           4.5441  -14.3524   26.8409 O.co2   1  UNL1       -0.5491
     18 C           4.6829  -13.3600   27.9571 C.2     1  UNL1        0.0527
     19 O           3.7108  -13.3750   29.0993 O.co2   1  UNL1       -0.5491
     20 C           6.6922   -3.1273   21.2349 C.ar    1  UNL1        0.2364
     21 O           7.0646   -3.1600   19.7823 O.2     1  UNL1       -0.3485
     22 N           6.0012   -2.4323   19.0146 N.ar    1  UNL1       -0.0753
     23 C           4.9714   -1.9498   19.9928 C.ar    1  UNL1        0.1445
     24 C           5.3985   -2.3793   21.3650 C.ar    1  UNL1        0.1355
     25 C           3.7322   -1.1740   19.6575 C.ar    1  UNL1        0.1021
     26 C           2.4431   -1.4789   20.3614 C.ar    1  UNL1        0.0208
     27 C           1.2038   -0.7031   20.0261 C.ar    1  UNL1        0.0032
     28 C           1.2537    0.3775   18.9870 C.ar    1  UNL1        0.0207
     29 C           2.5427    0.6823   18.2831 C.ar    1  UNL1        0.0989
     30 N           3.7819   -0.0934   18.6183 N.ar    1  UNL1       -0.2422
     31 C           4.6613   -2.1085   22.6429 C.3     1  UNL1        0.4232
     32 F           3.9241   -1.8376   23.9209 F       1  UNL1       -0.1657
     33 F           4.1423   -3.5159   22.6419 F       1  UNL1       -0.1657
     34 F           5.1803   -0.7011   22.6440 F       1  UNL1       -0.1657
@<TRIPOS>UNITY_ATOM_ATTR
17 1
charge -1
@<TRIPOS>BOND
     1    17    18   ar
     2    18    19   ar
     3    18    13    1
     4    13    14    1
     5    14    15    1
     6    15    12    1
     7    12     6    1
     8     6     7   ar
     9     7     8   ar
    10     8     9   ar
    11     9     1    1
    12     1     2   ar
    13     2     3   ar
    14     3     4   ar
    15     4    20    1
    16    20    21   ar
    17    21    22   ar
    18    22    23   ar
    19    23    25    1
    20    25    26   ar
    21    26    27   ar
    22    27    28   ar
    23    28    29   ar
    24    29    30   ar
    25    23    24   ar
    26    24    31    1
    27    31    32    1
    28    31    33    1
    29    31    34    1
    30     4     5   ar
    31     9    10   ar
    32    10    11   ar
    33    15    16    1
    34    16    13    1
    35    11     6   ar
    36     5     1   ar
    37    24    20   ar
    38    30    25   ar
@<TRIPOS>MOLECULE
*****
 34 38 0 0 0
SMALL
GASTEIGER

@<TRIPOS>ATOM
      1 C           4.2201   -0.2268   18.1999 C.ar    1  UNL1        0.2037
      2 N           4.5320   -1.0253   16.9690 N.ar    1  UNL1       -0.0555
      3 O           5.5947   -2.0237   17.3210 O.2     1  UNL1       -0.3291
      4 C           5.9395   -1.8423   18.7696 C.ar    1  UNL1        0.2973
      5 N           5.0900   -0.7317   19.3127 N.ar    1  UNL1       -0.1843
      6 C           1.2043    3.0995   18.5012 C.ar    1  UNL1       -0.0061
      7 C           2.6705    3.4156   18.4854 C.ar    1  UNL1       -0.0028
      8 C           3.6757    2.3069   18.3850 C.ar    1  UNL1        0.0029
      9 C           3.2148    0.8820   18.3004 C.ar    1  UNL1        0.0391
     10 C           1.7486    0.5658   18.3162 C.ar    1  UNL1        0.0029
     11 C           0.7434    1.6746   18.4166 C.ar    1  UNL1       -0.0028
     12 C           0.1990    4.2082   18.6017 C.3     1  UNL1        0.0992
     13 C          -3.0903    3.5519   19.9669 C.3     1  UNL1        0.0684
     14 C          -1.6876    3.4649   20.4912 C.3     1  UNL1        0.0793
     15 N          -1.1634    3.9364   19.1671 N.3     1  UNL1       -0.2682
     16 C          -2.5661    4.0233   18.6428 C.3     1  UNL1        0.0793
     17 O          -5.6767    3.7114   19.7802 O.co2   1  UNL1       -0.5491
     18 C          -4.4528    3.2800   20.5323 C.2     1  UNL1        0.0527
     19 O          -4.5913    2.5767   21.8500 O.co2   1  UNL1       -0.5491
     20 C           6.9555   -2.6326   19.5397 C.ar    1  UNL1        0.2364
     21 O           8.4183   -2.7334   19.2237 O.2     1  UNL1       -0.3485
     22 N           9.0539   -3.6240   20.2498 N.ar    1  UNL1       -0.0753
     23 C           7.9839   -4.0737   21.1999 C.ar    1  UNL1        0.1445
     24 C           6.6870   -3.4610   20.7611 C.ar    1  UNL1        0.1355
     25 C           8.1769   -4.9774   22.3814 C.ar    1  UNL1        0.1021
     26 C           7.9649   -4.4517   23.7703 C.ar    1  UNL1        0.0208
     27 C           8.1580   -5.3555   24.9518 C.ar    1  UNL1        0.0032
     28 C           8.5630   -6.7847   24.7445 C.ar    1  UNL1        0.0207
     29 C           8.7750   -7.3104   23.3557 C.ar    1  UNL1        0.0989
     30 N           8.5819   -6.4068   22.1742 N.ar    1  UNL1       -0.2422
     31 C           5.3554   -3.6444   21.4267 C.3     1  UNL1        0.4232
     32 F           4.0237   -3.8279   22.0924 F       1  UNL1       -0.1657
     33 F           5.7351   -2.6311   22.4656 F       1  UNL1       -0.1657
     34 F           4.9757   -4.6577   20.3879 F       1  UNL1       -0.1657
@<TRIPOS>UNITY_ATOM_ATTR
17 1
charge -1
@<TRIPOS>BOND
     1    17    18   ar
     2    18    19   ar
     3    18    13    1
     4    13    14    1
     5    14    15    1
     6    15    12    1
     7    12     6    1
     8     6     7   ar
     9     7     8   ar
    10     8     9   ar
    11     9     1    1
    12     1     2   ar
    13     2     3   ar
    14     3     4   ar
    15     4    20    1
    16    20    21   ar
    17    21    22   ar
    18    22    23   ar
    19    23    25    1
    20    25    26   ar
    21    26    27   ar
    22    27    28   ar
    23    28    29   ar
    24    29    30   ar
    25    23    24   ar
    26    24    31    1
    27    31    32    1
    28    31    33    1
    29    31    34    1
    30     4     5   ar
    31     9    10   ar
    32    10    11   ar
    33    15    16    1
    34    16    13    1
    35    11     6   ar
    36     5     1   ar
    37    24    20   ar
    38    30    25   ar
@<TRIPOS>MOLECULE
*****
 34 38 0 0 0
SMALL
GASTEIGER

@<TRIPOS>ATOM
      1 C           6.8182   -4.3958   24.2911 C.ar    1  UNL1        0.2037
      2 N           7.5853   -5.0851   23.2018 N.ar    1  UNL1       -0.0555
      3 O           6.9226   -4.7657   21.8946 O.2     1  UNL1       -0.3291
      4 C           5.7459   -3.8790   22.1760 C.ar    1  UNL1        0.2973
      5 N           5.6814   -3.6504   23.6570 N.ar    1  UNL1       -0.1843
      6 C           7.7618   -4.5389   28.6887 C.ar    1  UNL1       -0.0061
      7 C           8.1179   -3.3239   27.8844 C.ar    1  UNL1       -0.0028
      8 C           7.8034   -3.2763   26.4185 C.ar    1  UNL1        0.0029
      9 C           7.1327   -4.4435   25.7570 C.ar    1  UNL1        0.0391
     10 C           6.7766   -5.6585   26.5613 C.ar    1  UNL1        0.0029
     11 C           7.0911   -5.7062   28.0271 C.ar    1  UNL1       -0.0028
     12 C           8.0763   -4.5867   30.1546 C.3     1  UNL1        0.0992
     13 C           6.0341   -2.7388   32.5058 C.3     1  UNL1        0.0684
     14 C           6.9001   -2.3730   31.3369 C.3     1  UNL1        0.0793
     15 N           7.2304   -3.8213   31.1285 N.3     1  UNL1       -0.2682
     16 C           6.3644   -4.1870   32.2973 C.3     1  UNL1        0.0793
     17 O           5.7721   -0.8139   34.2309 O.co2   1  UNL1       -0.5491
     18 C           5.1881   -1.9734   33.4797 C.2     1  UNL1        0.0527
     19 O           3.7580   -2.3675   33.7024 O.co2   1  UNL1       -0.5491
     20 C           4.7998   -3.3193   21.1554 C.ar    1  UNL1        0.2364
     21 O           4.3766   -3.9916   19.8830 O.2     1  UNL1       -0.3485
     22 N           3.4261   -3.0767   19.1693 N.ar    1  UNL1       -0.0753
     23 C           3.2617   -1.8390   20.0006 C.ar    1  UNL1        0.1445
     24 C           4.1107   -1.9889   21.2280 C.ar    1  UNL1        0.1355
     25 C           2.3997   -0.6587   19.6635 C.ar    1  UNL1        0.1021
     26 C           1.0653   -0.4904   20.3278 C.ar    1  UNL1        0.0208
     27 C           0.2032    0.6900   19.9907 C.ar    1  UNL1        0.0032
     28 C           0.6755    1.7020   18.9894 C.ar    1  UNL1        0.0207
     29 C           2.0098    1.5338   18.3251 C.ar    1  UNL1        0.0989
     30 N           2.8719    0.3534   18.6622 N.ar    1  UNL1       -0.2422
     31 C           4.2467   -0.9848   22.3340 C.3     1  UNL1        0.4232
     32 F           4.3827    0.0194   23.4400 F       1  UNL1       -0.1657
     33 F           5.4094   -0.3586   21.6224 F       1  UNL1       -0.1657
     34 F           3.0841   -1.6109   23.0455 F       1  UNL1       -0.1657
@<TRIPOS>UNITY_ATOM_ATTR
17 1
charge -1
@<TRIPOS>BOND
     1    17    18   ar
     2    18    19   ar
     3    18    13    1
     4    13    14    1
     5    14    15    1
     6    15    12    1
     7    12     6    1
     8     6     7   ar
     9     7     8   ar
    10     8     9   ar
    11     9     1    1
    12     1     2   ar
    13     2     3   ar
    14     3     4   ar
    15     4    20    1
    16    20    21   ar
    17    21    22   ar
    18    22    23   ar
    19    23    25    1
    20    25    26   ar
    21    26    27   ar
    22    27    28   ar
    23    28    29   ar
    24    29    30   ar
    25    23    24   ar
    26    24    31    1
    27    31    32    1
    28    31    33    1
    29    31    34    1
    30     4     5   ar
    31     9    10   ar
    32    10    11   ar
    33    15    16    1
    34    16    13    1
    35    11     6   ar
    36     5     1   ar
    37    24    20   ar
    38    30    25   ar
@<TRIPOS>MOLECULE
*****
 34 38 0 0 0
SMALL
GASTEIGER

@<TRIPOS>ATOM
      1 C           0.5758    1.6763   19.6194 C.ar    1  UNL1        0.2037
      2 N           0.5110    3.0380   18.9936 N.ar    1  UNL1       -0.0555
      3 O          -0.6737    3.7564   19.5681 O.2     1  UNL1       -0.3291
      4 C          -1.3413    2.8387   20.5491 C.ar    1  UNL1        0.2973
      5 N          -0.5690    1.5531   20.5808 N.ar    1  UNL1       -0.1843
      6 C           3.6624   -1.4843   18.7632 C.ar    1  UNL1       -0.0061
      7 C           2.6860   -1.6742   19.8859 C.ar    1  UNL1       -0.0028
      8 C           1.6572   -0.6207   20.1713 C.ar    1  UNL1        0.0029
      9 C           1.6047    0.6227   19.3340 C.ar    1  UNL1        0.0391
     10 C           2.5811    0.8126   18.2112 C.ar    1  UNL1        0.0029
     11 C           3.6099   -0.2409   17.9258 C.ar    1  UNL1       -0.0028
     12 C           4.6913   -2.5378   18.4777 C.3     1  UNL1        0.0992
     13 C           6.8479   -3.7289   21.1319 C.3     1  UNL1        0.0684
     14 C           5.3845   -3.8427   20.8227 C.3     1  UNL1        0.0793
     15 N           5.5846   -3.0312   19.5771 N.3     1  UNL1       -0.2682
     16 C           7.0480   -2.9174   19.8863 C.3     1  UNL1        0.0793
     17 O           8.2571   -3.2653   23.2648 O.co2   1  UNL1       -0.5491
     18 C           7.7413   -4.2222   22.2313 C.2     1  UNL1        0.0527
     19 O           8.1188   -5.6724   22.2971 O.co2   1  UNL1       -0.5491
     20 C          -2.5660    3.1516   21.3567 C.ar    1  UNL1        0.2364
     21 O          -3.9821    2.8526   20.9626 O.2     1  UNL1       -0.3485
     22 N          -4.8810    3.3347   22.0624 N.ar    1  UNL1       -0.0753
     23 C          -4.0204    3.9317   23.1362 C.ar    1  UNL1        0.1445
     24 C          -2.5897    3.8185   22.7000 C.ar    1  UNL1        0.1355
     25 C          -4.5055    4.5357   24.4206 C.ar    1  UNL1        0.1021
     26 C          -4.0876    3.9422   25.7334 C.ar    1  UNL1        0.0208
     27 C          -4.5727    4.5463   27.0179 C.ar    1  UNL1        0.0032
     28 C          -5.4756    5.7437   26.9895 C.ar    1  UNL1        0.0207
     29 C          -5.8935    6.3372   25.6769 C.ar    1  UNL1        0.0989
     30 N          -5.4084    5.7332   24.3924 N.ar    1  UNL1       -0.2422
     31 C          -1.3929    4.2896   23.4717 C.3     1  UNL1        0.4232
     32 F          -0.1959    4.7606   24.2435 F       1  UNL1       -0.1657
     33 F          -1.5648    5.6652   22.8988 F       1  UNL1       -0.1657
     34 F          -1.2209    2.9140   24.0446 F       1  UNL1       -0.1657
@<TRIPOS>UNITY_ATOM_ATTR
17 1
charge -1
@<TRIPOS>BOND
     1    17    18   ar
     2    18    19   ar
     3    18    13    1
     4    13    14    1
     5    14    15    1
     6    15    12    1
     7    12     6    1
     8     6     7   ar
     9     7     8   ar
    10     8     9   ar
    11     9     1    1
    12     1     2   ar
    13     2     3   ar
    14     3     4   ar
    15     4    20    1
    16    20    21   ar
    17    21    22   ar
    18    22    23   ar
    19    23    25    1
    20    25    26   ar
    21    26    27   ar
    22    27    28   ar
    23    28    29   ar
    24    29    30   ar
    25    23    24   ar
    26    24    31    1
    27    31    32    1
    28    31    33    1
    29    31    34    1
    30     4     5   ar
    31     9    10   ar
    32    10    11   ar
    33    15    16    1
    34    16    13    1
    35    11     6   ar
    36     5     1   ar
    37    24    20   ar
    38    30    25   ar
@<TRIPOS>MOLECULE
*****
 34 38 0 0 0
SMALL
GASTEIGER

@<TRIPOS>ATOM
      1 C           0.2387    2.0847   25.3805 C.ar    1  UNL1        0.2037
      2 N          -0.4338    3.1295   24.5401 N.ar    1  UNL1       -0.0555
      3 O          -0.2690    2.7428   23.1002 O.2     1  UNL1       -0.3291
      4 C           0.5054    1.4590   23.0507 C.ar    1  UNL1        0.2973
      5 N           0.8191    1.0523   24.4600 N.ar    1  UNL1       -0.1843
      6 C           0.4735    2.0531   29.8743 C.ar    1  UNL1       -0.0061
      7 C          -0.2919    0.9817   29.1557 C.ar    1  UNL1       -0.0028
      8 C          -0.3701    0.9923   27.6578 C.ar    1  UNL1        0.0029
      9 C           0.3170    2.0742   26.8785 C.ar    1  UNL1        0.0391
     10 C           1.0824    3.1455   27.5971 C.ar    1  UNL1        0.0029
     11 C           1.1606    3.1350   29.0949 C.ar    1  UNL1       -0.0028
     12 C           0.5517    2.0425   31.3722 C.3     1  UNL1        0.0992
     13 C           3.4427    0.6190   33.0244 C.3     1  UNL1        0.0684
     14 C           2.4298    1.6680   33.3759 C.3     1  UNL1        0.0793
     15 N           1.7492    1.4529   32.0566 N.3     1  UNL1       -0.2682
     16 C           2.7622    0.4039   31.7051 C.3     1  UNL1        0.0793
     17 O           4.4652   -1.0791   34.7040 O.co2   1  UNL1       -0.5491
     18 C           4.6403    0.0293   33.7087 C.2     1  UNL1        0.0527
     19 O           6.0129    0.5481   33.3976 O.co2   1  UNL1       -0.5491
     20 C           0.8972    0.7130   21.8098 C.ar    1  UNL1        0.2364
     21 O           0.0302    0.4854   20.6071 O.2     1  UNL1       -0.3485
     22 N           0.8219   -0.3047   19.6077 N.ar    1  UNL1       -0.0753
     23 C           2.1784   -0.5653   20.1927 C.ar    1  UNL1        0.1445
     24 C           2.2248    0.0636   21.5536 C.ar    1  UNL1        0.1355
     25 C           3.2925   -1.3221   19.5326 C.ar    1  UNL1        0.1021
     26 C           3.3177   -2.8209   19.5890 C.ar    1  UNL1        0.0208
     27 C           4.4319   -3.5777   18.9289 C.ar    1  UNL1        0.0032
     28 C           5.5209   -2.8357   18.2123 C.ar    1  UNL1        0.0207
     29 C           5.4958   -1.3370   18.1558 C.ar    1  UNL1        0.0989
     30 N           4.3816   -0.5802   18.8159 N.ar    1  UNL1       -0.2422
     31 C           3.3938    0.0463   22.4934 C.3     1  UNL1        0.4232
     32 F           4.5628    0.0289   23.4333 F       1  UNL1       -0.1657
     33 F           3.8928    1.3288   21.8965 F       1  UNL1       -0.1657
     34 F           2.8948   -1.2362   23.0903 F       1  UNL1       -0.1657
@<TRIPOS>UNITY_ATOM_ATTR
17 1
charge -1
@<TRIPOS>BOND
     1    17    18   ar
     2    18    19   ar
     3    18    13    1
     4    13    14    1
     5    14    15    1
     6    15    12    1
     7    12     6    1
     8     6     7   ar
     9     7     8   ar
    10     8     9   ar
    11     9     1    1
    12     1     2   ar
    13     2     3   ar
    14     3     4   ar
    15     4    20    1
    16    20    21   ar
    17    21    22   ar
    18    22    23   ar
    19    23    25    1
    20    25    26   ar
    21    26    27   ar
    22    27    28   ar
    23    28    29   ar
    24    29    30   ar
    25    23    24   ar
    26    24    31    1
    27    31    32    1
    28    31    33    1
    29    31    34    1
    30     4     5   ar
    31     9    10   ar
    32    10    11   ar
    33    15    16    1
    34    16    13    1
    35    11     6   ar
    36     5     1   ar
    37    24    20   ar
    38    30    25   ar
@<TRIPOS>MOLECULE
*****
 34 38 0 0 0
SMALL
GASTEIGER

@<TRIPOS>ATOM
      1 C           0.4606    1.6659   19.8221 C.ar    1  UNL1        0.2037
      2 N          -0.1129    2.7336   18.9383 N.ar    1  UNL1       -0.0555
      3 O          -1.1185    3.5071   19.7387 O.2     1  UNL1       -0.3291
      4 C          -1.1664    2.9173   21.1171 C.ar    1  UNL1        0.2973
      5 N          -0.1905    1.7794   21.1686 N.ar    1  UNL1       -0.1843
      6 C           3.5858   -1.3487   18.6410 C.ar    1  UNL1       -0.0061
      7 C           2.7000   -1.6106   19.8228 C.ar    1  UNL1       -0.0028
      8 C           1.6583   -0.6057   20.2165 C.ar    1  UNL1        0.0029
      9 C           1.5024    0.6610   19.4283 C.ar    1  UNL1        0.0391
     10 C           2.3882    0.9228   18.2465 C.ar    1  UNL1        0.0029
     11 C           3.4299   -0.0820   17.8528 C.ar    1  UNL1       -0.0028
     12 C           4.6276   -2.3536   18.2472 C.3     1  UNL1        0.0992
     13 C           6.8523   -3.7311   20.7507 C.3     1  UNL1        0.0684
     14 C           6.9303   -2.5986   19.7702 C.3     1  UNL1        0.0793
     15 N           5.5491   -2.9242   19.2842 N.3     1  UNL1       -0.2682
     16 C           5.4711   -4.0567   20.2647 C.3     1  UNL1        0.0793
     17 O           8.1456   -3.4865   22.9907 O.co2   1  UNL1       -0.5491
     18 C           7.7738   -4.3017   21.7877 C.2     1  UNL1        0.0527
     19 O           8.3234   -5.6875   21.6217 O.co2   1  UNL1       -0.5491
     20 C          -2.0374    3.3837   22.2458 C.ar    1  UNL1        0.2364
     21 O          -1.6338    3.4856   23.6868 O.2     1  UNL1       -0.3485
     22 N          -2.8118    3.9948   24.4633 N.ar    1  UNL1       -0.0753
     23 C          -3.9436    4.2076   23.5020 C.ar    1  UNL1        0.1445
     24 C          -3.4649    3.8299   22.1316 C.ar    1  UNL1        0.1355
     25 C          -5.3133    4.7100   23.8502 C.ar    1  UNL1        0.1021
     26 C          -6.5247    4.0685   23.2409 C.ar    1  UNL1        0.0208
     27 C          -7.8946    4.5709   23.5891 C.ar    1  UNL1        0.0032
     28 C          -8.0530    5.7146   24.5465 C.ar    1  UNL1        0.0207
     29 C          -6.8417    6.3560   25.1559 C.ar    1  UNL1        0.0989
     30 N          -5.4719    5.8537   24.8077 N.ar    1  UNL1       -0.2422
     31 C          -4.2721    3.8882   20.8687 C.3     1  UNL1        0.4232
     32 F          -5.0793    3.9465   19.6056 F       1  UNL1       -0.1657
     33 F          -4.6945    2.4634   21.0728 F       1  UNL1       -0.1657
     34 F          -3.8497    5.3129   20.6644 F       1  UNL1       -0.1657
@<TRIPOS>UNITY_ATOM_ATTR
17 1
charge -1
@<TRIPOS>BOND
     1    17    18   ar
     2    18    19   ar
     3    18    13    1
     4    13    14    1
     5    14    15    1
     6    15    12    1
     7    12     6    1
     8     6     7   ar
     9     7     8   ar
    10     8     9   ar
    11     9     1    1
    12     1     2   ar
    13     2     3   ar
    14     3     4   ar
    15     4    20    1
    16    20    21   ar
    17    21    22   ar
    18    22    23   ar
    19    23    25    1
    20    25    26   ar
    21    26    27   ar
    22    27    28   ar
    23    28    29   ar
    24    29    30   ar
    25    23    24   ar
    26    24    31    1
    27    31    32    1
    28    31    33    1
    29    31    34    1
    30     4     5   ar
    31     9    10   ar
    32    10    11   ar
    33    15    16    1
    34    16    13    1
    35    11     6   ar
    36     5     1   ar
    37    24    20   ar
    38    30    25   ar
@<TRIPOS>MOLECULE
*****
 34 38 0 0 0
SMALL
GASTEIGER

@<TRIPOS>ATOM
      1 C           7.5446   -4.2839   26.1452 C.ar    1  UNL1        0.2037
      2 N           8.4107   -3.1143   26.5085 N.ar    1  UNL1       -0.0555
      3 O           7.8103   -1.8845   25.8947 O.2     1  UNL1       -0.3291
      4 C           6.5730   -2.2939   25.1520 C.ar    1  UNL1        0.2973
      5 N           6.4088   -3.7768   25.3069 N.ar    1  UNL1       -0.1843
      6 C           8.2328   -8.5625   27.3577 C.ar    1  UNL1       -0.0061
      7 C           8.3502   -7.4665   28.3751 C.ar    1  UNL1       -0.0028
      8 C           8.1208   -6.0403   27.9709 C.ar    1  UNL1        0.0029
      9 C           7.7740   -5.7101   26.5494 C.ar    1  UNL1        0.0391
     10 C           7.6566   -6.8061   25.5320 C.ar    1  UNL1        0.0029
     11 C           7.8860   -8.2323   25.9362 C.ar    1  UNL1       -0.0028
     12 C           8.4622   -9.9887   27.7619 C.3     1  UNL1        0.0992
     13 C           5.6572  -12.2595   28.0610 C.3     1  UNL1        0.0684
     14 C           7.1348  -12.3618   28.2985 C.3     1  UNL1        0.0793
     15 N           7.3004  -10.9293   27.8858 N.3     1  UNL1       -0.2682
     16 C           5.8228  -10.8269   27.6483 C.3     1  UNL1        0.0793
     17 O           3.4843  -13.0036   29.2754 O.co2   1  UNL1       -0.5491
     18 C           4.4953  -13.2001   28.1849 C.2     1  UNL1        0.0527
     19 O           4.3445  -14.3371   27.2183 O.co2   1  UNL1       -0.5491
     20 C           5.6601   -1.3808   24.3885 C.ar    1  UNL1        0.2364
     21 O           5.0966   -0.0818   24.8836 O.2     1  UNL1       -0.3485
     22 N           4.2388    0.4955   23.7970 N.ar    1  UNL1       -0.0753
     23 C           4.2721   -0.4466   22.6303 C.ar    1  UNL1        0.1445
     24 C           5.1505   -1.6062   22.9959 C.ar    1  UNL1        0.1355
     25 C           3.5532   -0.2616   21.3269 C.ar    1  UNL1        0.1021
     26 C           2.1254   -0.7005   21.1891 C.ar    1  UNL1        0.0208
     27 C           1.4064   -0.5155   19.8856 C.ar    1  UNL1        0.0032
     28 C           2.1152    0.1084   18.7202 C.ar    1  UNL1        0.0207
     29 C           3.5430    0.5472   18.8580 C.ar    1  UNL1        0.0989
     30 N           4.2620    0.3622   20.1614 N.ar    1  UNL1       -0.2422
     31 C           5.4643   -2.7844   22.1222 C.3     1  UNL1        0.4232
     32 F           5.7781   -3.9627   21.2485 F       1  UNL1       -0.1657
     33 F           4.3348   -3.5486   22.7471 F       1  UNL1       -0.1657
     34 F           6.5938   -2.0203   21.4974 F       1  UNL1       -0.1657
@<TRIPOS>UNITY_ATOM_ATTR
17 1
charge -1
@<TRIPOS>BOND
     1    17    18   ar
     2    18    19   ar
     3    18    13    1
     4    13    14    1
     5    14    15    1
     6    15    12    1
     7    12     6    1
     8     6     7   ar
     9     7     8   ar
    10     8     9   ar
    11     9     1    1
    12     1     2   ar
    13     2     3   ar
    14     3     4   ar
    15     4    20    1
    16    20    21   ar
    17    21    22   ar
    18    22    23   ar
    19    23    25    1
    20    25    26   ar
    21    26    27   ar
    22    27    28   ar
    23    28    29   ar
    24    29    30   ar
    25    23    24   ar
    26    24    31    1
    27    31    32    1
    28    31    33    1
    29    31    34    1
    30     4     5   ar
    31     9    10   ar
    32    10    11   ar
    33    15    16    1
    34    16    13    1
    35    11     6   ar
    36     5     1   ar
    37    24    20   ar
    38    30    25   ar
@<TRIPOS>MOLECULE
*****
 34 38 0 0 0
SMALL
GASTEIGER

@<TRIPOS>ATOM
      1 C           7.3349   -4.5324   24.8432 C.ar    1  UNL1        0.2037
      2 N           8.6400   -5.1932   25.1748 N.ar    1  UNL1       -0.0555
      3 O           8.7404   -5.2981   26.6678 O.2     1  UNL1       -0.3291
      4 C           7.4971   -4.7022   27.2589 C.ar    1  UNL1        0.2973
      5 N           6.6285   -4.2290   26.1312 N.ar    1  UNL1       -0.1843
      6 C           5.8067   -3.6206   20.7100 C.ar    1  UNL1       -0.0061
      7 C           4.9004   -3.4675   21.8954 C.ar    1  UNL1       -0.0028
      8 C           5.4098   -3.7715   23.2731 C.ar    1  UNL1        0.0029
      9 C           6.8255   -4.2285   23.4654 C.ar    1  UNL1        0.0391
     10 C           7.7318   -4.3816   22.2801 C.ar    1  UNL1        0.0029
     11 C           7.2224   -4.0777   20.9024 C.ar    1  UNL1       -0.0028
     12 C           5.2973   -3.3167   19.3322 C.3     1  UNL1        0.0992
     13 C           3.1900   -0.4243   18.7780 C.3     1  UNL1        0.0684
     14 C           3.0731   -1.6826   19.5861 C.3     1  UNL1        0.0793
     15 N           4.4245   -2.1186   19.1027 N.3     1  UNL1       -0.2682
     16 C           4.5414   -0.8603   18.2946 C.3     1  UNL1        0.0793
     17 O           0.8597    0.5927   18.2439 O.co2   1  UNL1       -0.5491
     18 C           2.3172    0.7738   18.5484 C.2     1  UNL1        0.0527
     19 O           2.9019    2.1532   18.6235 O.co2   1  UNL1       -0.5491
     20 C           7.1784   -4.5979   28.7209 C.ar    1  UNL1        0.2364
     21 O           7.1093   -5.7392   29.6919 O.2     1  UNL1       -0.3485
     22 N           6.7611   -5.1806   31.0397 N.ar    1  UNL1       -0.0753
     23 C           6.6151   -3.6941   30.9018 C.ar    1  UNL1        0.1445
     24 C           6.8730   -3.3340   29.4687 C.ar    1  UNL1        0.1355
     25 C           6.2715   -2.7360   32.0036 C.ar    1  UNL1        0.1021
     26 C           7.3155   -1.7996   32.5359 C.ar    1  UNL1        0.0208
     27 C           6.9719   -0.8414   33.6377 C.ar    1  UNL1        0.0032
     28 C           5.5844   -0.8198   34.2072 C.ar    1  UNL1        0.0207
     29 C           4.5405   -1.7561   33.6749 C.ar    1  UNL1        0.0989
     30 N           4.8840   -2.7142   32.5731 N.ar    1  UNL1       -0.2422
     31 C           6.8326   -1.9525   28.8858 C.3     1  UNL1        0.4232
     32 F           6.7923   -0.5710   28.3028 F       1  UNL1       -0.1657
     33 F           5.4022   -2.1630   28.4860 F       1  UNL1       -0.1657
     34 F           8.2630   -1.7420   29.2855 F       1  UNL1       -0.1657
@<TRIPOS>UNITY_ATOM_ATTR
17 1
charge -1
@<TRIPOS>BOND
     1    17    18   ar
     2    18    19   ar
     3    18    13    1
     4    13    14    1
     5    14    15    1
     6    15    12    1
     7    12     6    1
     8     6     7   ar
     9     7     8   ar
    10     8     9   ar
    11     9     1    1
    12     1     2   ar
    13     2     3   ar
    14     3     4   ar
    15     4    20    1
    16    20    21   ar
    17    21    22   ar
    18    22    23   ar
    19    23    25    1
    20    25    26   ar
    21    26    27   ar
    22    27    28   ar
    23    28    29   ar
    24    29    30   ar
    25    23    24   ar
    26    24    31    1
    27    31    32    1
    28    31    33    1
    29    31    34    1
    30     4     5   ar
    31     9    10   ar
    32    10    11   ar
    33    15    16    1
    34    16    13    1
    35    11     6   ar
    36     5     1   ar
    37    24    20   ar
    38    30    25   ar
@<TRIPOS>MOLECULE
*****
 34 38 0 0 0
SMALL
GASTEIGER

@<TRIPOS>ATOM
      1 C           7.0641   -4.0764   28.6966 C.ar    1  UNL1        0.2037
      2 N           6.7341   -5.2162   29.6142 N.ar    1  UNL1       -0.0555
      3 O           6.6941   -4.6856   31.0167 O.2     1  UNL1       -0.3291
      4 C           6.9995   -3.2178   30.9657 C.ar    1  UNL1        0.2973
      5 N           7.2281   -2.8414   29.5318 N.ar    1  UNL1       -0.1843
      6 C           7.4876   -4.3199   24.2232 C.ar    1  UNL1       -0.0061
      7 C           7.3801   -5.5761   25.0358 C.ar    1  UNL1       -0.0028
      8 C           7.2389   -5.4949   26.5269 C.ar    1  UNL1        0.0029
      9 C           7.2052   -4.1576   27.2054 C.ar    1  UNL1        0.0391
     10 C           7.3127   -2.9014   26.3928 C.ar    1  UNL1        0.0029
     11 C           7.4539   -2.9825   24.9017 C.ar    1  UNL1       -0.0028
     12 C           7.6287   -4.4010   22.7320 C.3     1  UNL1        0.0992
     13 C           4.7917   -3.6731   20.6024 C.3     1  UNL1        0.0684
     14 C           4.9984   -3.8185   22.0809 C.3     1  UNL1        0.0793
     15 N           6.4536   -4.0995   21.8499 N.3     1  UNL1       -0.2682
     16 C           6.2469   -3.9541   20.3713 C.3     1  UNL1        0.0793
     17 O           2.9348   -4.4800   18.9743 O.co2   1  UNL1       -0.5491
     18 C           3.6165   -3.3716   19.7202 C.2     1  UNL1        0.0527
     19 O           3.1232   -1.9616   19.5840 O.co2   1  UNL1       -0.5491
     20 C           7.0648   -2.2895   32.1422 C.ar    1  UNL1        0.2364
     21 O           8.2874   -1.9799   32.9542 O.2     1  UNL1       -0.3485
     22 N           7.8971   -1.0068   34.0270 N.ar    1  UNL1       -0.0753
     23 C           6.4333   -0.7151   33.8780 C.ar    1  UNL1        0.1445
     24 C           5.9190   -1.5078   32.7131 C.ar    1  UNL1        0.1355
     25 C           5.6258    0.2074   34.7422 C.ar    1  UNL1        0.1021
     26 C           5.0885   -0.2752   36.0569 C.ar    1  UNL1        0.0208
     27 C           4.2809    0.6473   36.9212 C.ar    1  UNL1        0.0032
     28 C           4.0108    2.0523   36.4707 C.ar    1  UNL1        0.0207
     29 C           4.5480    2.5348   35.1560 C.ar    1  UNL1        0.0989
     30 N           5.3556    1.6124   34.2917 N.ar    1  UNL1       -0.2422
     31 C           4.5067   -1.5172   32.2079 C.3     1  UNL1        0.4232
     32 F           3.0943   -1.5266   31.7027 F       1  UNL1       -0.1657
     33 F           4.7808   -0.2716   31.4183 F       1  UNL1       -0.1657
     34 F           4.2325   -2.7628   32.9974 F       1  UNL1       -0.1657
@<TRIPOS>UNITY_ATOM_ATTR
17 1
charge -1
@<TRIPOS>BOND
     1    17    18   ar
     2    18    19   ar
     3    18    13    1
     4    13    14    1
     5    14    15    1
     6    15    12    1
     7    12     6    1
     8     6     7   ar
     9     7     8   ar
    10     8     9   ar
    11     9     1    1
    12     1     2   ar
    13     2     3   ar
    14     3     4   ar
    15     4    20    1
    16    20    21   ar
    17    21    22   ar
    18    22    23   ar
    19    23    25    1
    20    25    26   ar
    21    26    27   ar
    22    27    28   ar
    23    28    29   ar
    24    29    30   ar
    25    23    24   ar
    26    24    31    1
    27    31    32    1
    28    31    33    1
    29    31    34    1
    30     4     5   ar
    31     9    10   ar
    32    10    11   ar
    33    15    16    1
    34    16    13    1
    35    11     6   ar
    36     5     1   ar
    37    24    20   ar
    38    30    25   ar
