@<TRIPOS>MOLECULE
*****
 32 36 0 0 0
SMALL
GASTEIGER

@<TRIPOS>ATOM
      1 N           0.4657    1.8774   19.3979 N.3     1  UNL1       -0.2711
      2 C           1.6917    2.1741   18.5862 C.3     1  UNL1        0.0741
      3 C           2.7595    1.1318   18.4319 C.3     1  UNL1        0.0401
      4 C           2.6011   -0.2072   19.0893 C.3     1  UNL1        0.0926
      5 C           1.3749   -0.5038   19.9009 C.3     1  UNL1        0.0401
      6 C           0.3073    0.5384   20.0552 C.3     1  UNL1        0.0741
      7 N           3.6687   -1.2494   18.9350 N.ar    1  UNL1       -0.2837
      8 C           4.2351   -1.7460   17.6378 C.ar    1  UNL1        0.2974
      9 O           3.8334   -1.2876   16.2673 O.3     1  UNL1       -0.4795
     10 N           5.2738   -2.7816   17.9519 N.ar    1  UNL1       -0.1943
     11 C           5.3493   -2.9250   19.4431 C.ar    1  UNL1        0.1039
     12 C           6.1933   -3.7955   20.3263 C.ar    1  UNL1        0.0503
     13 C           6.0452   -3.7191   21.8170 C.ar    1  UNL1        0.1417
     14 F           6.8892   -4.5896   22.7001 F       1  UNL1       -0.2041
     15 C           5.0531   -2.7722   22.4246 C.ar    1  UNL1        0.0312
     16 C           4.2092   -1.9017   21.5414 C.ar    1  UNL1        0.0211
     17 C           4.3573   -1.9781   20.0507 C.ar    1  UNL1        0.0816
     18 H           3.1712   -0.6321   16.1679 H       1  UNL1        0.2953
     19 C          -0.6019    2.9197   19.5521 C.3     1  UNL1        0.0939
     20 C          -1.2195    3.1674   20.8965 C.3     1  UNL1        0.1110
     21 O          -2.1885    3.5736   23.4937 O.2     1  UNL1       -0.2699
     22 C          -3.2058    3.6756   22.3961 C.2     1  UNL1        0.2487
     23 C          -4.6074    3.9815   22.8342 C.ar    1  UNL1        0.0496
     24 C          -4.6967    4.1252   24.3246 C.ar    1  UNL1        0.0042
     25 C          -6.0149    4.4328   24.9708 C.ar    1  UNL1        0.0001
     26 C          -7.2439    4.5968   24.1266 C.ar    1  UNL1       -0.0003
     27 C          -7.1546    4.4532   22.6362 C.ar    1  UNL1       -0.0041
     28 C          -5.8364    4.1455   21.9900 C.ar    1  UNL1       -0.0178
     29 C          -5.9672    4.0441   20.4992 C.3     1  UNL1        0.0283
     30 C          -4.9016    3.7536   19.4843 C.3     1  UNL1        0.0262
     31 C          -3.4417    3.4928   19.7097 C.3     1  UNL1        0.0941
     32 N          -2.6870    3.4580   21.0056 N.am    1  UNL1       -0.2747
@<TRIPOS>BOND
     1    21    22    2
     2    22    23    1
     3    23    24   ar
     4    24    25   ar
     5    25    26   ar
     6    26    27   ar
     7    27    28   ar
     8    28    29    1
     9    29    30    1
    10    30    31    1
    11    31    32    1
    12    32    20    1
    13    20    19    1
    14    19     1    1
    15     1     2    1
    16     2     3    1
    17     3     4    1
    18     4     7    1
    19     7     8   ar
    20     8     9    1
    21     8    10   ar
    22    10    11   ar
    23    11    12   ar
    24    12    13   ar
    25    13    14    1
    26    13    15   ar
    27    15    16   ar
    28    16    17   ar
    29     4     5    1
    30     5     6    1
    31    32    22   am
    32     6     1    1
    33    28    23   ar
    34    17     7   ar
    35    17    11   ar
    36     9    18    1
@<TRIPOS>MOLECULE
*****
 32 36 0 0 0
SMALL
GASTEIGER

@<TRIPOS>ATOM
      1 N           0.8061    2.1512   19.4844 N.3     1  UNL1       -0.2711
      2 C           2.1454    2.4503   18.8789 C.3     1  UNL1        0.0741
      3 C           3.1459    1.3486   18.6897 C.3     1  UNL1        0.0401
      4 C           2.8069   -0.0520   19.1061 C.3     1  UNL1        0.0926
      5 C           1.4675   -0.3509   19.7116 C.3     1  UNL1        0.0401
      6 C           0.4671    0.7506   19.9008 C.3     1  UNL1        0.0741
      7 N           3.8072   -1.1535   18.9169 N.ar    1  UNL1       -0.2837
      8 C           4.2820   -1.6971   17.6019 C.ar    1  UNL1        0.2974
      9 O           3.8397   -1.2346   16.2453 O.3     1  UNL1       -0.4795
     10 N           5.2767   -2.7844   17.8818 N.ar    1  UNL1       -0.1943
     11 C           5.4166   -2.9128   19.3697 C.ar    1  UNL1        0.1039
     12 C           6.2538   -3.8174   20.2248 C.ar    1  UNL1        0.0503
     13 C           6.1827   -3.7139   21.7195 C.ar    1  UNL1        0.1417
     14 F           7.0198   -4.6184   22.5745 F       1  UNL1       -0.2041
     15 C           5.2745   -2.7059   22.3592 C.ar    1  UNL1        0.0312
     16 C           4.4375   -1.8014   21.5042 C.ar    1  UNL1        0.0211
     17 C           4.5085   -1.9048   20.0095 C.ar    1  UNL1        0.0816
     18 H           3.2103   -0.5448   16.1677 H       1  UNL1        0.2953
     19 C          -0.1943    3.2528   19.6736 C.3     1  UNL1        0.0939
     20 C          -1.5128    2.9643   20.3281 C.3     1  UNL1        0.1110
     21 O          -4.0775    3.6587   21.2164 O.2     1  UNL1       -0.2699
     22 C          -3.0388    3.5002   22.2869 C.2     1  UNL1        0.2487
     23 C          -3.5106    3.7345   23.6913 C.ar    1  UNL1        0.0496
     24 C          -4.9677    4.0888   23.7280 C.ar    1  UNL1        0.0042
     25 C          -5.6398    4.3635   25.0405 C.ar    1  UNL1        0.0001
     26 C          -4.8550    4.2838   26.3163 C.ar    1  UNL1       -0.0003
     27 C          -3.3979    3.9294   26.2796 C.ar    1  UNL1       -0.0041
     28 C          -2.7257    3.6548   24.9671 C.ar    1  UNL1       -0.0178
     29 C          -1.2752    3.3211   25.1535 C.3     1  UNL1        0.0283
     30 C          -0.2513    2.9848   24.1102 C.3     1  UNL1        0.0262
     31 C          -0.4251    2.8990   22.6227 C.3     1  UNL1        0.0941
     32 N          -1.6656    3.1284   21.8112 N.am    1  UNL1       -0.2747
@<TRIPOS>BOND
     1    21    22    2
     2    22    23    1
     3    23    24   ar
     4    24    25   ar
     5    25    26   ar
     6    26    27   ar
     7    27    28   ar
     8    28    29    1
     9    29    30    1
    10    30    31    1
    11    31    32    1
    12    32    20    1
    13    20    19    1
    14    19     1    1
    15     1     2    1
    16     2     3    1
    17     3     4    1
    18     4     7    1
    19     7     8   ar
    20     8     9    1
    21     8    10   ar
    22    10    11   ar
    23    11    12   ar
    24    12    13   ar
    25    13    14    1
    26    13    15   ar
    27    15    16   ar
    28    16    17   ar
    29     4     5    1
    30     5     6    1
    31    32    22   am
    32     6     1    1
    33    28    23   ar
    34    17     7   ar
    35    17    11   ar
    36     9    18    1
@<TRIPOS>MOLECULE
*****
 32 36 0 0 0
SMALL
GASTEIGER

@<TRIPOS>ATOM
      1 N           0.4882    1.6340   19.7428 N.3     1  UNL1       -0.2711
      2 C           0.3197    0.1994   20.1469 C.3     1  UNL1        0.0741
      3 C           1.4249   -0.7843   19.8992 C.3     1  UNL1        0.0401
      4 C           2.6983   -0.3332   19.2475 C.3     1  UNL1        0.0926
      5 C           2.8666    1.1015   18.8434 C.3     1  UNL1        0.0401
      6 C           1.7616    2.0851   19.0910 C.3     1  UNL1        0.0741
      7 N           3.8033   -1.3168   18.9998 N.ar    1  UNL1       -0.2837
      8 C           4.3251   -1.7372   17.6577 C.ar    1  UNL1        0.2974
      9 O           3.8335   -1.2479   16.3279 O.3     1  UNL1       -0.4795
     10 N           5.4249   -2.7329   17.8793 N.ar    1  UNL1       -0.1943
     11 C           5.5828   -2.9279   19.3581 C.ar    1  UNL1        0.1039
     12 C           6.5097   -3.7893   20.1636 C.ar    1  UNL1        0.0503
     13 C           6.4345   -3.7755   21.6617 C.ar    1  UNL1        0.1417
     14 F           7.3613   -4.6369   22.4672 F       1  UNL1       -0.2041
     15 C           5.4322   -2.9003   22.3542 C.ar    1  UNL1        0.0312
     16 C           4.5054   -2.0389   21.5487 C.ar    1  UNL1        0.0211
     17 C           4.5807   -2.0527   20.0507 C.ar    1  UNL1        0.0816
     18 H           3.1377   -0.6215   16.2872 H       1  UNL1        0.2953
     19 C          -0.6170    2.6176   19.9905 C.3     1  UNL1        0.0939
     20 C          -0.4449    3.6955   21.0194 C.3     1  UNL1        0.1110
     21 O           1.3480    2.3739   22.7188 O.2     1  UNL1       -0.2699
     22 C           0.0376    2.7671   23.3340 C.2     1  UNL1        0.2487
     23 C          -0.1395    2.4006   24.7777 C.ar    1  UNL1        0.0496
     24 C           1.0701    1.6963   25.3168 C.ar    1  UNL1        0.0042
     25 C           1.0989    1.2426   26.7462 C.ar    1  UNL1        0.0001
     26 C          -0.0819    1.4933   27.6366 C.ar    1  UNL1       -0.0003
     27 C          -1.2916    2.1976   27.0975 C.ar    1  UNL1       -0.0041
     28 C          -1.3204    2.6512   25.6681 C.ar    1  UNL1       -0.0178
     29 C          -2.6157    3.3302   25.3346 C.3     1  UNL1        0.0283
     30 C          -3.0501    3.9263   24.0285 C.3     1  UNL1        0.0262
     31 C          -2.2964    3.9906   22.7332 C.3     1  UNL1        0.0941
     32 N          -0.9223    3.4747   22.4240 N.am    1  UNL1       -0.2747
@<TRIPOS>BOND
     1    21    22    2
     2    22    23    1
     3    23    24   ar
     4    24    25   ar
     5    25    26   ar
     6    26    27   ar
     7    27    28   ar
     8    28    29    1
     9    29    30    1
    10    30    31    1
    11    31    32    1
    12    32    20    1
    13    20    19    1
    14    19     1    1
    15     1     2    1
    16     2     3    1
    17     3     4    1
    18     4     7    1
    19     7     8   ar
    20     8     9    1
    21     8    10   ar
    22    10    11   ar
    23    11    12   ar
    24    12    13   ar
    25    13    14    1
    26    13    15   ar
    27    15    16   ar
    28    16    17   ar
    29     4     5    1
    30     5     6    1
    31    32    22   am
    32     6     1    1
    33    28    23   ar
    34    17     7   ar
    35    17    11   ar
    36     9    18    1
@<TRIPOS>MOLECULE
*****
 32 36 0 0 0
SMALL
GASTEIGER

@<TRIPOS>ATOM
      1 N           0.4054    1.5145   26.5523 N.3     1  UNL1       -0.2711
      2 C          -0.4785    0.9157   27.6060 C.3     1  UNL1        0.0741
      3 C          -0.0385    0.9109   29.0401 C.3     1  UNL1        0.0401
      4 C           1.2853    1.5049   29.4204 C.3     1  UNL1        0.0926
      5 C           2.1691    2.1037   28.3666 C.3     1  UNL1        0.0401
      6 C           1.7292    2.1085   26.9327 C.3     1  UNL1        0.0741
      7 N           1.7253    1.5000   30.8543 N.ar    1  UNL1       -0.2837
      8 C           1.2120    2.4024   31.9371 C.ar    1  UNL1        0.2974
      9 O           0.1687    3.4679   31.7760 O.3     1  UNL1       -0.4795
     10 N           1.9254    2.0521   33.2093 N.ar    1  UNL1       -0.1943
     11 C           2.8794    0.9333   32.9128 C.ar    1  UNL1        0.1039
     12 C           3.8448    0.1810   33.7801 C.ar    1  UNL1        0.0503
     13 C           4.6866   -0.9124   33.1920 C.ar    1  UNL1        0.1417
     14 F           5.6520   -1.6647   34.0592 F       1  UNL1       -0.2041
     15 C           4.5629   -1.2536   31.7365 C.ar    1  UNL1        0.0312
     16 C           3.5976   -0.5014   30.8692 C.ar    1  UNL1        0.0211
     17 C           2.7558    0.5920   31.4574 C.ar    1  UNL1        0.0816
     18 H          -0.2240    3.6162   30.9383 H       1  UNL1        0.2953
     19 C          -0.0347    1.5193   25.1183 C.3     1  UNL1        0.0939
     20 C           0.9063    1.9842   24.0466 C.3     1  UNL1        0.1110
     21 O           3.0303    0.1801   24.3353 O.2     1  UNL1       -0.2699
     22 C           2.3200    0.1433   23.0146 C.2     1  UNL1        0.2487
     23 C           2.8408   -0.8546   22.0231 C.ar    1  UNL1        0.0496
     24 C           3.9984   -1.6284   22.5809 C.ar    1  UNL1        0.0042
     25 C           4.6682   -2.6806   21.7478 C.ar    1  UNL1        0.0001
     26 C           4.1805   -2.9590   20.3569 C.ar    1  UNL1       -0.0003
     27 C           3.0229   -2.1852   19.7991 C.ar    1  UNL1       -0.0041
     28 C           2.3531   -1.1330   20.6322 C.ar    1  UNL1       -0.0178
     29 C           1.2241   -0.4822   19.8893 C.3     1  UNL1        0.0283
     30 C           0.3039    0.6076   20.3537 C.3     1  UNL1        0.0262
     31 C           0.2856    1.3159   21.6759 C.3     1  UNL1        0.0941
     32 N           1.1828    1.1093   22.8601 N.am    1  UNL1       -0.2747
@<TRIPOS>BOND
     1    21    22    2
     2    22    23    1
     3    23    24   ar
     4    24    25   ar
     5    25    26   ar
     6    26    27   ar
     7    27    28   ar
     8    28    29    1
     9    29    30    1
    10    30    31    1
    11    31    32    1
    12    32    20    1
    13    20    19    1
    14    19     1    1
    15     1     2    1
    16     2     3    1
    17     3     4    1
    18     4     7    1
    19     7     8   ar
    20     8     9    1
    21     8    10   ar
    22    10    11   ar
    23    11    12   ar
    24    12    13   ar
    25    13    14    1
    26    13    15   ar
    27    15    16   ar
    28    16    17   ar
    29     4     5    1
    30     5     6    1
    31    32    22   am
    32     6     1    1
    33    28    23   ar
    34    17     7   ar
    35    17    11   ar
    36     9    18    1
@<TRIPOS>MOLECULE
*****
 32 36 0 0 0
SMALL
GASTEIGER

@<TRIPOS>ATOM
      1 N           7.7101   -3.6587   24.1883 N.3     1  UNL1       -0.2711
      2 C           6.8208   -4.7982   24.5891 C.3     1  UNL1        0.0741
      3 C           6.6647   -5.1540   26.0380 C.3     1  UNL1        0.0401
      4 C           7.3978   -4.3702   27.0860 C.3     1  UNL1        0.0926
      5 C           8.2871   -3.2307   26.6850 C.3     1  UNL1        0.0401
      6 C           8.4432   -2.8749   25.2363 C.3     1  UNL1        0.0741
      7 N           7.2417   -4.7260   28.5347 N.ar    1  UNL1       -0.2837
      8 C           7.4271   -6.0891   29.1328 C.ar    1  UNL1        0.2974
      9 O           7.8010   -7.3356   28.3871 O.3     1  UNL1       -0.4795
     10 N           7.1727   -5.9866   30.6075 N.ar    1  UNL1       -0.1943
     11 C           6.8303   -4.5603   30.9209 C.ar    1  UNL1        0.1039
     12 C           6.4851   -3.8702   32.2073 C.ar    1  UNL1        0.0503
     13 C           6.1825   -2.4011   32.2126 C.ar    1  UNL1        0.1417
     14 F           5.8374   -1.7110   33.4989 F       1  UNL1       -0.2041
     15 C           6.2252   -1.6219   30.9314 C.ar    1  UNL1        0.0312
     16 C           6.5704   -2.3119   29.6451 C.ar    1  UNL1        0.0211
     17 C           6.8729   -3.7811   29.6398 C.ar    1  UNL1        0.0816
     18 H           7.9409   -7.3035   27.4611 H       1  UNL1        0.2953
     19 C           7.8662   -3.3029   22.7395 C.3     1  UNL1        0.0939
     20 C           6.9162   -3.8638   21.7230 C.3     1  UNL1        0.1110
     21 O           4.3064   -2.9460   22.1658 O.2     1  UNL1       -0.2699
     22 C           4.9517   -2.4837   20.8931 C.2     1  UNL1        0.2487
     23 C           4.1144   -1.5912   20.0257 C.ar    1  UNL1        0.0496
     24 C           2.7664   -1.3427   20.6350 C.ar    1  UNL1        0.0042
     25 C           1.7717   -0.4726   19.9256 C.ar    1  UNL1        0.0001
     26 C           2.1248    0.1491   18.6070 C.ar    1  UNL1       -0.0003
     27 C           3.4728   -0.0994   17.9977 C.ar    1  UNL1       -0.0041
     28 C           4.4675   -0.9695   18.7071 C.ar    1  UNL1       -0.0178
     29 C           5.7453   -1.0870   17.9301 C.3     1  UNL1        0.0283
     30 C           6.9854   -1.8549   18.2798 C.3     1  UNL1        0.0262
     31 C           7.2540   -2.6952   19.4930 C.3     1  UNL1        0.0941
     32 N           6.3490   -2.9751   20.6560 N.am    1  UNL1       -0.2747
@<TRIPOS>BOND
     1    21    22    2
     2    22    23    1
     3    23    24   ar
     4    24    25   ar
     5    25    26   ar
     6    26    27   ar
     7    27    28   ar
     8    28    29    1
     9    29    30    1
    10    30    31    1
    11    31    32    1
    12    32    20    1
    13    20    19    1
    14    19     1    1
    15     1     2    1
    16     2     3    1
    17     3     4    1
    18     4     7    1
    19     7     8   ar
    20     8     9    1
    21     8    10   ar
    22    10    11   ar
    23    11    12   ar
    24    12    13   ar
    25    13    14    1
    26    13    15   ar
    27    15    16   ar
    28    16    17   ar
    29     4     5    1
    30     5     6    1
    31    32    22   am
    32     6     1    1
    33    28    23   ar
    34    17     7   ar
    35    17    11   ar
    36     9    18    1
@<TRIPOS>MOLECULE
*****
 32 36 0 0 0
SMALL
GASTEIGER

@<TRIPOS>ATOM
      1 N           6.9773   -2.8858   20.4156 N.3     1  UNL1       -0.2711
      2 C           5.7480   -3.4853   21.0317 C.3     1  UNL1        0.0741
      3 C           5.7588   -3.9038   22.4721 C.3     1  UNL1        0.0401
      4 C           6.9989   -3.7229   23.2964 C.3     1  UNL1        0.0926
      5 C           8.2282   -3.1235   22.6802 C.3     1  UNL1        0.0401
      6 C           8.2174   -2.7049   21.2399 C.3     1  UNL1        0.0741
      7 N           7.0098   -4.1414   24.7367 N.ar    1  UNL1       -0.2837
      8 C           6.5786   -3.3013   25.9023 C.ar    1  UNL1        0.2974
      9 O           6.0611   -1.8953   25.8320 O.3     1  UNL1       -0.4795
     10 N           6.7561   -4.1142   27.1503 N.ar    1  UNL1       -0.1943
     11 C           7.2968   -5.4567   26.7562 C.ar    1  UNL1        0.1039
     12 C           7.6667   -6.6661   27.5629 C.ar    1  UNL1        0.0503
     13 C           8.1934   -7.8922   26.8779 C.ar    1  UNL1        0.1417
     14 F           8.5632   -9.1015   27.6845 F       1  UNL1       -0.2041
     15 C           8.3501   -7.9090   25.3862 C.ar    1  UNL1        0.0312
     16 C           7.9803   -6.6997   24.5795 C.ar    1  UNL1        0.0211
     17 C           7.4536   -5.4735   25.2645 C.ar    1  UNL1        0.0816
     18 H           5.9842   -1.4652   25.0031 H       1  UNL1        0.2953
     19 C           6.9664   -2.4673   18.9752 C.3     1  UNL1        0.0939
     20 C           5.6621   -2.2868   18.2565 C.3     1  UNL1        0.1110
     21 O           3.1467   -2.5119   19.4694 O.2     1  UNL1       -0.2699
     22 C           3.5478   -1.1272   19.0550 C.2     1  UNL1        0.2487
     23 C           2.5491   -0.0462   19.3448 C.ar    1  UNL1        0.0496
     24 C           1.3221   -0.5973   20.0087 C.ar    1  UNL1        0.0042
     25 C           0.1966    0.3202   20.3846 C.ar    1  UNL1        0.0001
     26 C           0.2980    1.7888   20.0966 C.ar    1  UNL1       -0.0003
     27 C           1.5250    2.3399   19.4327 C.ar    1  UNL1       -0.0041
     28 C           2.6505    1.4224   19.0568 C.ar    1  UNL1       -0.0178
     29 C           3.7757    2.1726   18.4079 C.3     1  UNL1        0.0283
     30 C           5.0774    1.6397   17.8867 C.3     1  UNL1        0.0262
     31 C           5.5753    0.2247   17.8857 C.3     1  UNL1        0.0941
     32 N           4.8946   -1.0067   18.4057 N.am    1  UNL1       -0.2747
@<TRIPOS>BOND
     1    21    22    2
     2    22    23    1
     3    23    24   ar
     4    24    25   ar
     5    25    26   ar
     6    26    27   ar
     7    27    28   ar
     8    28    29    1
     9    29    30    1
    10    30    31    1
    11    31    32    1
    12    32    20    1
    13    20    19    1
    14    19     1    1
    15     1     2    1
    16     2     3    1
    17     3     4    1
    18     4     7    1
    19     7     8   ar
    20     8     9    1
    21     8    10   ar
    22    10    11   ar
    23    11    12   ar
    24    12    13   ar
    25    13    14    1
    26    13    15   ar
    27    15    16   ar
    28    16    17   ar
    29     4     5    1
    30     5     6    1
    31    32    22   am
    32     6     1    1
    33    28    23   ar
    34    17     7   ar
    35    17    11   ar
    36     9    18    1
@<TRIPOS>MOLECULE
*****
 32 36 0 0 0
SMALL
GASTEIGER

@<TRIPOS>ATOM
      1 N          -0.3284    1.9623   27.1513 N.3     1  UNL1       -0.2711
      2 C          -0.5549    0.7431   27.9952 C.3     1  UNL1        0.0741
      3 C           0.0654    0.6483   29.3578 C.3     1  UNL1        0.0401
      4 C           0.9120    1.7727   29.8763 C.3     1  UNL1        0.0926
      5 C           1.1384    2.9919   29.0323 C.3     1  UNL1        0.0401
      6 C           0.5182    3.0867   27.6698 C.3     1  UNL1        0.0741
      7 N           1.5322    1.6779   31.2387 N.ar    1  UNL1       -0.2837
      8 C           1.1695    2.5109   32.4324 C.ar    1  UNL1        0.2974
      9 O           0.1231    3.5847   32.4731 O.3     1  UNL1       -0.4795
     10 N           2.0372    2.0813   33.5782 N.ar    1  UNL1       -0.1943
     11 C           2.9359    0.9829   33.0927 C.ar    1  UNL1        0.1039
     12 C           3.9983    0.1775   33.7803 C.ar    1  UNL1        0.0503
     13 C           4.7485   -0.8772   33.0221 C.ar    1  UNL1        0.1417
     14 F           5.8108   -1.6826   33.7097 F       1  UNL1       -0.2041
     15 C           4.4364   -1.1265   31.5762 C.ar    1  UNL1        0.0312
     16 C           3.3741   -0.3211   30.8886 C.ar    1  UNL1        0.0211
     17 C           2.6239    0.7336   31.6468 C.ar    1  UNL1        0.0816
     18 H          -0.3725    3.7853   31.7037 H       1  UNL1        0.2953
     19 C          -0.9486    2.0570   25.7888 C.3     1  UNL1        0.0939
     20 C          -1.3174    3.3969   25.2242 C.3     1  UNL1        0.1110
     21 O          -1.9678    3.3149   22.5003 O.2     1  UNL1       -0.2699
     22 C          -3.0953    3.6570   23.4286 C.2     1  UNL1        0.2487
     23 C          -4.4218    3.9100   22.7757 C.ar    1  UNL1        0.0496
     24 C          -4.3362    3.7623   21.2855 C.ar    1  UNL1        0.0042
     25 C          -5.5567    3.9740   20.4395 C.ar    1  UNL1        0.0001
     26 C          -6.8627    4.3333   21.0838 C.ar    1  UNL1       -0.0003
     27 C          -6.9483    4.4810   22.5741 C.ar    1  UNL1       -0.0041
     28 C          -5.7279    4.2693   23.4200 C.ar    1  UNL1       -0.0178
     29 C          -6.0299    4.4644   24.8763 C.3     1  UNL1        0.0283
     30 C          -5.1005    4.3485   26.0480 C.3     1  UNL1        0.0262
     31 C          -3.6395    4.0086   26.0527 C.3     1  UNL1        0.0941
     32 N          -2.7470    3.7009   24.8870 N.am    1  UNL1       -0.2747
@<TRIPOS>BOND
     1    21    22    2
     2    22    23    1
     3    23    24   ar
     4    24    25   ar
     5    25    26   ar
     6    26    27   ar
     7    27    28   ar
     8    28    29    1
     9    29    30    1
    10    30    31    1
    11    31    32    1
    12    32    20    1
    13    20    19    1
    14    19     1    1
    15     1     2    1
    16     2     3    1
    17     3     4    1
    18     4     7    1
    19     7     8   ar
    20     8     9    1
    21     8    10   ar
    22    10    11   ar
    23    11    12   ar
    24    12    13   ar
    25    13    14    1
    26    13    15   ar
    27    15    16   ar
    28    16    17   ar
    29     4     5    1
    30     5     6    1
    31    32    22   am
    32     6     1    1
    33    28    23   ar
    34    17     7   ar
    35    17    11   ar
    36     9    18    1
@<TRIPOS>MOLECULE
*****
 32 36 0 0 0
SMALL
GASTEIGER

@<TRIPOS>ATOM
      1 N           1.0547    3.1024   18.4087 N.3     1  UNL1       -0.2711
      2 C           2.5461    3.1001   18.2491 C.3     1  UNL1        0.0741
      3 C           3.3174    1.8258   18.4267 C.3     1  UNL1        0.0401
      4 C           2.5972    0.5540   18.7639 C.3     1  UNL1        0.0926
      5 C           1.1057    0.5564   18.9235 C.3     1  UNL1        0.0401
      6 C           0.3344    1.8306   18.7459 C.3     1  UNL1        0.0741
      7 N           3.3684   -0.7202   18.9415 N.ar    1  UNL1       -0.2837
      8 C           3.9405   -1.5651   17.8419 C.ar    1  UNL1        0.2974
      9 O           3.8417   -1.2841   16.3719 O.3     1  UNL1       -0.4795
     10 N           4.6286   -2.7403   18.4707 N.ar    1  UNL1       -0.1943
     11 C           4.4819   -2.6218   19.9587 C.ar    1  UNL1        0.1039
     12 C           4.9568   -3.4894   21.0865 C.ar    1  UNL1        0.0503
     13 C           4.6529   -3.1085   22.5052 C.ar    1  UNL1        0.1417
     14 F           5.1278   -3.9761   23.6328 F       1  UNL1       -0.2041
     15 C           3.8740   -1.8600   22.7961 C.ar    1  UNL1        0.0312
     16 C           3.3991   -0.9924   21.6684 C.ar    1  UNL1        0.0211
     17 C           3.7030   -1.3733   20.2498 C.ar    1  UNL1        0.0816
     18 H           3.3896   -0.5209   16.0701 H       1  UNL1        0.2953
     19 C           0.2835    4.3767   18.2311 C.3     1  UNL1        0.0939
     20 C          -0.4423    4.9825   19.3958 C.3     1  UNL1        0.1110
     21 O          -2.3988    6.0724   17.7124 O.2     1  UNL1       -0.2699
     22 C          -2.9031    5.1600   18.7910 C.2     1  UNL1        0.2487
     23 C          -4.3882    4.9518   18.8256 C.ar    1  UNL1        0.0496
     24 C          -5.0754    5.7251   17.7394 C.ar    1  UNL1        0.0042
     25 C          -6.5670    5.6551   17.5978 C.ar    1  UNL1        0.0001
     26 C          -7.3714    4.8120   18.5423 C.ar    1  UNL1       -0.0003
     27 C          -6.6842    4.0387   19.6284 C.ar    1  UNL1       -0.0041
     28 C          -5.1925    4.1087   19.7701 C.ar    1  UNL1       -0.0178
     29 C          -4.7104    3.2655   20.9132 C.3     1  UNL1        0.0283
     30 C          -3.3050    3.0572   21.3942 C.3     1  UNL1        0.0262
     31 C          -2.0345    3.6407   20.8507 C.3     1  UNL1        0.0941
     32 N          -1.8555    4.5765   19.6922 N.am    1  UNL1       -0.2747
@<TRIPOS>BOND
     1    21    22    2
     2    22    23    1
     3    23    24   ar
     4    24    25   ar
     5    25    26   ar
     6    26    27   ar
     7    27    28   ar
     8    28    29    1
     9    29    30    1
    10    30    31    1
    11    31    32    1
    12    32    20    1
    13    20    19    1
    14    19     1    1
    15     1     2    1
    16     2     3    1
    17     3     4    1
    18     4     7    1
    19     7     8   ar
    20     8     9    1
    21     8    10   ar
    22    10    11   ar
    23    11    12   ar
    24    12    13   ar
    25    13    14    1
    26    13    15   ar
    27    15    16   ar
    28    16    17   ar
    29     4     5    1
    30     5     6    1
    31    32    22   am
    32     6     1    1
    33    28    23   ar
    34    17     7   ar
    35    17    11   ar
    36     9    18    1
@<TRIPOS>MOLECULE
*****
 32 36 0 0 0
SMALL
GASTEIGER

@<TRIPOS>ATOM
      1 N           1.1278    3.0142   18.5779 N.3     1  UNL1       -0.2711
      2 C           2.6042    3.0220   18.3135 C.3     1  UNL1        0.0741
      3 C           3.3940    1.7521   18.4313 C.3     1  UNL1        0.0401
      4 C           2.7072    0.4745   18.8134 C.3     1  UNL1        0.0926
      5 C           1.2306    0.4668   19.0777 C.3     1  UNL1        0.0401
      6 C           0.4409    1.7366   18.9600 C.3     1  UNL1        0.0741
      7 N           3.4968   -0.7953   18.9311 N.ar    1  UNL1       -0.2837
      8 C           4.0698   -1.5861   17.7925 C.ar    1  UNL1        0.2974
      9 O           3.9538   -1.2457   16.3363 O.3     1  UNL1       -0.4795
     10 N           4.7793   -2.7768   18.3658 N.ar    1  UNL1       -0.1943
     11 C           4.6448   -2.7220   19.8587 C.ar    1  UNL1        0.1039
     12 C           5.1416   -3.6291   20.9453 C.ar    1  UNL1        0.0503
     13 C           4.8458   -3.3115   22.3811 C.ar    1  UNL1        0.1417
     14 F           5.3426   -4.2185   23.4676 F       1  UNL1       -0.2041
     15 C           4.0532   -2.0869   22.7305 C.ar    1  UNL1        0.0312
     16 C           3.5564   -1.1799   21.6440 C.ar    1  UNL1        0.0211
     17 C           3.8521   -1.4974   20.2082 C.ar    1  UNL1        0.0816
     18 H           3.4887   -0.4769   16.0704 H       1  UNL1        0.2953
     19 C           0.3381    4.2841   18.4601 C.3     1  UNL1        0.0939
     20 C           0.0817    5.1233   19.6767 C.3     1  UNL1        0.1110
     21 O           0.9979    5.0228   22.3224 O.2     1  UNL1       -0.2699
     22 C          -0.4329    4.6237   22.1135 C.2     1  UNL1        0.2487
     23 C          -1.1839    4.2236   23.3488 C.ar    1  UNL1        0.0496
     24 C          -0.3167    4.3104   24.5696 C.ar    1  UNL1        0.0042
     25 C          -0.8765    3.9520   25.9142 C.ar    1  UNL1        0.0001
     26 C          -2.3036    3.5069   26.0381 C.ar    1  UNL1       -0.0003
     27 C          -3.1708    3.4202   24.8173 C.ar    1  UNL1       -0.0041
     28 C          -2.6110    3.7785   23.4727 C.ar    1  UNL1       -0.0178
     29 C          -3.6394    3.6236   22.3918 C.3     1  UNL1        0.0283
     30 C          -3.4950    3.8755   20.9202 C.3     1  UNL1        0.0262
     31 C          -2.2862    4.3446   20.1660 C.3     1  UNL1        0.0941
     32 N          -0.9234    4.6776   20.6970 N.am    1  UNL1       -0.2747
@<TRIPOS>BOND
     1    21    22    2
     2    22    23    1
     3    23    24   ar
     4    24    25   ar
     5    25    26   ar
     6    26    27   ar
     7    27    28   ar
     8    28    29    1
     9    29    30    1
    10    30    31    1
    11    31    32    1
    12    32    20    1
    13    20    19    1
    14    19     1    1
    15     1     2    1
    16     2     3    1
    17     3     4    1
    18     4     7    1
    19     7     8   ar
    20     8     9    1
    21     8    10   ar
    22    10    11   ar
    23    11    12   ar
    24    12    13   ar
    25    13    14    1
    26    13    15   ar
    27    15    16   ar
    28    16    17   ar
    29     4     5    1
    30     5     6    1
    31    32    22   am
    32     6     1    1
    33    28    23   ar
    34    17     7   ar
    35    17    11   ar
    36     9    18    1
