@<TRIPOS>MOLECULE
*****
 18 19 0 0 0
SMALL
GASTEIGER

@<TRIPOS>ATOM
      1 C         -10.9913  -17.8400   23.4058 C.ar    1  UNL1       -0.0162
      2 C         -12.2213  -18.3190   22.6932 C.ar    1  UNL1        0.0165
      3 C         -12.6439  -17.6709   21.4082 C.ar    1  UNL1        0.0986
      4 N         -11.8366  -16.5437   20.8357 N.ar    1  UNL1       -0.2422
      5 C         -10.6067  -16.0647   21.5483 C.ar    1  UNL1        0.1016
      6 C         -10.1840  -16.7129   22.8333 C.ar    1  UNL1        0.0497
      7 C          -8.9540  -16.2339   23.5458 C.ar    1  UNL1        0.1461
      8 C          -8.8980  -15.7004   24.9466 C.ar    1  UNL1        0.0403
      9 C          -7.4735  -15.3410   25.2492 C.ar    1  UNL1        0.0375
     10 C          -6.6490  -15.6524   24.0353 C.ar    1  UNL1        0.1385
     11 O          -7.5641  -16.2042   22.9826 O.2     1  UNL1       -0.4563
     12 C          -5.1694  -15.4479   23.8983 C.3     1  UNL1        0.1307
     13 N          -4.6346  -14.5194   22.8486 N.3     1  UNL1       -0.3148
     14 H          -4.8412  -14.8967   21.9237 H       1  UNL1        0.1192
     15 H          -3.6251  -14.4257   22.9599 H       1  UNL1        0.1192
     16 C         -10.5687  -18.4882   24.6908 C.3     1  UNL1        0.0266
     17 C          -9.1005  -20.3629   23.6516 C.3     1  UNL1        0.0004
     18 C         -10.0818  -19.9070   24.6905 C.3     1  UNL1        0.0047
@<TRIPOS>BOND
     1    17    18    1
     2    18    16    1
     3    16     1    1
     4     1     2   ar
     5     2     3   ar
     6     3     4   ar
     7     4     5   ar
     8     5     6   ar
     9     6     7    1
    10     7     8   ar
    11     8     9   ar
    12     9    10   ar
    13    10    12    1
    14    12    13    1
    15    10    11   ar
    16     6     1   ar
    17    11     7   ar
    18    13    14    1
    19    13    15    1
@<TRIPOS>MOLECULE
*****
 18 19 0 0 0
SMALL
GASTEIGER

@<TRIPOS>ATOM
      1 C         -10.0248  -16.8833   22.3817 C.ar    1  UNL1       -0.0162
      2 C         -11.3505  -16.1819   22.3646 C.ar    1  UNL1        0.0165
      3 C         -12.3481  -16.4897   21.2876 C.ar    1  UNL1        0.0986
      4 N         -12.0200  -17.4990   20.2276 N.ar    1  UNL1       -0.2422
      5 C         -10.6943  -18.2005   20.2447 C.ar    1  UNL1        0.1016
      6 C          -9.6967  -17.8927   21.3218 C.ar    1  UNL1        0.0497
      7 C          -8.3709  -18.5942   21.3388 C.ar    1  UNL1        0.1461
      8 C          -7.9856  -19.7295   22.2402 C.ar    1  UNL1        0.0403
      9 C          -6.5743  -20.1205   21.9159 C.ar    1  UNL1        0.0375
     10 C          -6.0872  -19.2268   20.8140 C.ar    1  UNL1        0.1385
     11 O          -7.1976  -18.2835   20.4573 O.2     1  UNL1       -0.4563
     12 C          -4.7284  -19.2691   20.1801 C.3     1  UNL1        0.1307
     13 N          -4.2804  -18.1471   19.2910 N.3     1  UNL1       -0.3148
     14 H          -4.8598  -18.1263   18.4518 H       1  UNL1        0.1192
     15 H          -3.3055  -18.2905   19.0277 H       1  UNL1        0.1192
     16 C          -9.0272  -16.5755   23.4588 C.3     1  UNL1        0.0266
     17 C          -9.9527  -18.4264   25.0296 C.3     1  UNL1        0.0004
     18 C          -9.2165  -17.1336   24.8381 C.3     1  UNL1        0.0047
@<TRIPOS>BOND
     1    17    18    1
     2    18    16    1
     3    16     1    1
     4     1     2   ar
     5     2     3   ar
     6     3     4   ar
     7     4     5   ar
     8     5     6   ar
     9     6     7    1
    10     7     8   ar
    11     8     9   ar
    12     9    10   ar
    13    10    12    1
    14    12    13    1
    15    10    11   ar
    16     6     1   ar
    17    11     7   ar
    18    13    14    1
    19    13    15    1
@<TRIPOS>MOLECULE
*****
 18 19 0 0 0
SMALL
GASTEIGER

@<TRIPOS>ATOM
      1 C          -9.4200  -18.7900   21.7805 C.ar    1  UNL1       -0.0162
      2 C         -10.2116  -19.4178   20.6718 C.ar    1  UNL1        0.0165
      3 C         -11.0187  -18.5569   19.7459 C.ar    1  UNL1        0.0986
      4 N         -11.0344  -17.0682   19.9286 N.ar    1  UNL1       -0.2422
      5 C         -10.2428  -16.4404   21.0373 C.ar    1  UNL1        0.1016
      6 C          -9.4356  -17.3013   21.9633 C.ar    1  UNL1        0.0497
      7 C          -8.6440  -16.6734   23.0720 C.ar    1  UNL1        0.1461
      8 C          -9.1935  -16.1793   24.3774 C.ar    1  UNL1        0.0403
      9 C          -8.0531  -15.6300   25.1821 C.ar    1  UNL1        0.0375
     10 C          -6.7987  -15.7845   24.3741 C.ar    1  UNL1        0.1385
     11 O          -7.1640  -16.4294   23.0700 O.2     1  UNL1       -0.4563
     12 C          -5.4211  -15.3674   24.7961 C.3     1  UNL1        0.1307
     13 N          -5.2439  -14.4098   25.9369 N.3     1  UNL1       -0.3148
     14 H          -5.6265  -13.4999   25.6796 H       1  UNL1        0.1192
     15 H          -4.2509  -14.3135   26.1489 H       1  UNL1        0.1192
     16 C          -8.6128  -19.6509   22.7064 C.3     1  UNL1        0.0266
     17 C         -10.3521  -19.7902   24.6313 C.3     1  UNL1        0.0004
     18 C          -9.2959  -20.4375   23.7855 C.3     1  UNL1        0.0047
@<TRIPOS>BOND
     1    17    18    1
     2    18    16    1
     3    16     1    1
     4     1     2   ar
     5     2     3   ar
     6     3     4   ar
     7     4     5   ar
     8     5     6   ar
     9     6     7    1
    10     7     8   ar
    11     8     9   ar
    12     9    10   ar
    13    10    12    1
    14    12    13    1
    15    10    11   ar
    16     6     1   ar
    17    11     7   ar
    18    13    14    1
    19    13    15    1
@<TRIPOS>MOLECULE
*****
 18 19 0 0 0
SMALL
GASTEIGER

@<TRIPOS>ATOM
      1 C         -10.6778  -17.9961   22.0172 C.ar    1  UNL1       -0.0162
      2 C         -11.1977  -18.9081   20.9458 C.ar    1  UNL1        0.0165
      3 C         -10.2475  -19.5389   19.9716 C.ar    1  UNL1        0.0986
      4 N          -8.7773  -19.2577   20.0687 N.ar    1  UNL1       -0.2422
      5 C          -8.2574  -18.3457   21.1401 C.ar    1  UNL1        0.1016
      6 C          -9.2077  -17.7149   22.1143 C.ar    1  UNL1        0.0497
      7 C          -8.6877  -16.8028   23.1857 C.ar    1  UNL1        0.1461
      8 C          -7.9085  -15.5399   22.9669 C.ar    1  UNL1        0.0403
      9 C          -7.5949  -14.9502   24.3099 C.ar    1  UNL1        0.0375
     10 C          -8.1803  -15.8486   25.3589 C.ar    1  UNL1        0.1385
     11 O          -8.8557  -16.9935   24.6640 O.2     1  UNL1       -0.4563
     12 C          -8.1037  -15.6388   26.8421 C.3     1  UNL1        0.1307
     13 N          -6.9819  -14.8343   27.4289 N.3     1  UNL1       -0.3148
     14 H          -6.0990  -15.3228   27.2798 H       1  UNL1        0.1192
     15 H          -7.1382  -14.7122   28.4294 H       1  UNL1        0.1192
     16 C         -11.6281  -17.3653   22.9914 C.3     1  UNL1        0.0266
     17 C         -13.8453  -18.0243   24.1744 C.3     1  UNL1        0.0004
     18 C         -13.0926  -17.6822   22.9228 C.3     1  UNL1        0.0047
@<TRIPOS>BOND
     1    17    18    1
     2    18    16    1
     3    16     1    1
     4     1     2   ar
     5     2     3   ar
     6     3     4   ar
     7     4     5   ar
     8     5     6   ar
     9     6     7    1
    10     7     8   ar
    11     8     9   ar
    12     9    10   ar
    13    10    12    1
    14    12    13    1
    15    10    11   ar
    16     6     1   ar
    17    11     7   ar
    18    13    14    1
    19    13    15    1
@<TRIPOS>MOLECULE
*****
 18 19 0 0 0
SMALL
GASTEIGER

@<TRIPOS>ATOM
      1 C          -6.8903  -17.2323   22.7872 C.ar    1  UNL1       -0.0162
      2 C          -5.5031  -17.0940   23.3408 C.ar    1  UNL1        0.0165
      3 C          -5.1627  -15.9354   24.2307 C.ar    1  UNL1        0.0986
      4 N          -6.2095  -14.9151   24.5669 N.ar    1  UNL1       -0.2422
      5 C          -7.5967  -15.0534   24.0132 C.ar    1  UNL1        0.1016
      6 C          -7.9371  -16.2119   23.1234 C.ar    1  UNL1        0.0497
      7 C          -9.3243  -16.3502   22.5698 C.ar    1  UNL1        0.1461
      8 C         -10.5838  -16.4915   23.3721 C.ar    1  UNL1        0.0403
      9 C         -11.7335  -16.6000   22.4148 C.ar    1  UNL1        0.0375
     10 C         -11.1846  -16.5257   21.0208 C.ar    1  UNL1        0.1385
     11 O          -9.6956  -16.3713   21.1166 O.2     1  UNL1       -0.4563
     12 C         -11.9842  -16.5938   19.7535 C.3     1  UNL1        0.1307
     13 N         -12.2599  -15.3432   18.9726 N.3     1  UNL1       -0.3148
     14 H         -12.8597  -14.7259   19.5199 H       1  UNL1        0.1192
     15 H         -12.7273  -15.5842   18.0986 H       1  UNL1        0.1192
     16 C          -7.2307  -18.3909   21.8974 C.3     1  UNL1        0.0266
     17 C          -8.9165  -19.8976   23.1771 C.3     1  UNL1        0.0004
     18 C          -7.5913  -19.7172   22.4980 C.3     1  UNL1        0.0047
@<TRIPOS>BOND
     1    17    18    1
     2    18    16    1
     3    16     1    1
     4     1     2   ar
     5     2     3   ar
     6     3     4   ar
     7     4     5   ar
     8     5     6   ar
     9     6     7    1
    10     7     8   ar
    11     8     9   ar
    12     9    10   ar
    13    10    12    1
    14    12    13    1
    15    10    11   ar
    16     6     1   ar
    17    11     7   ar
    18    13    14    1
    19    13    15    1
@<TRIPOS>MOLECULE
*****
 18 19 0 0 0
SMALL
GASTEIGER

@<TRIPOS>ATOM
      1 C          -6.1872  -18.7627   22.1931 C.ar    1  UNL1       -0.0162
      2 C          -4.7084  -18.9819   22.3156 C.ar    1  UNL1        0.0165
      3 C          -3.8525  -17.9577   23.0001 C.ar    1  UNL1        0.0986
      4 N          -4.4754  -16.7143   23.5621 N.ar    1  UNL1       -0.2422
      5 C          -5.9542  -16.4951   23.4395 C.ar    1  UNL1        0.1016
      6 C          -6.8101  -17.5193   22.7550 C.ar    1  UNL1        0.0497
      7 C          -8.2890  -17.3000   22.6325 C.ar    1  UNL1        0.1461
      8 C          -9.3278  -17.7169   23.6309 C.ar    1  UNL1        0.0403
      9 C         -10.6695  -17.2999   23.1055 C.ar    1  UNL1        0.0375
     10 C         -10.4598  -16.6251   21.7823 C.ar    1  UNL1        0.1385
     11 O          -8.9886  -16.6252   21.4900 O.2     1  UNL1       -0.4563
     12 C         -11.5329  -16.0512   20.9054 C.3     1  UNL1        0.1307
     13 N         -12.7379  -16.8743   20.5584 N.3     1  UNL1       -0.3148
     14 H         -12.4537  -17.6675   19.9834 H       1  UNL1        0.1192
     15 H         -13.4040  -16.3007   20.0410 H       1  UNL1        0.1192
     16 C          -7.0430  -19.7869   21.5086 C.3     1  UNL1        0.0266
     17 C          -8.7204  -19.5349   19.5406 C.3     1  UNL1        0.0004
     18 C          -7.3121  -19.6770   20.0370 C.3     1  UNL1        0.0047
@<TRIPOS>BOND
     1    17    18    1
     2    18    16    1
     3    16     1    1
     4     1     2   ar
     5     2     3   ar
     6     3     4   ar
     7     4     5   ar
     8     5     6   ar
     9     6     7    1
    10     7     8   ar
    11     8     9   ar
    12     9    10   ar
    13    10    12    1
    14    12    13    1
    15    10    11   ar
    16     6     1   ar
    17    11     7   ar
    18    13    14    1
    19    13    15    1
@<TRIPOS>MOLECULE
*****
 18 19 0 0 0
SMALL
GASTEIGER

@<TRIPOS>ATOM
      1 C          -8.8353  -18.3457   23.3830 C.ar    1  UNL1       -0.0162
      2 C          -9.7005  -17.4740   24.2441 C.ar    1  UNL1        0.0165
      3 C          -9.2963  -16.0563   24.5215 C.ar    1  UNL1        0.0986
      4 N          -8.0270  -15.5104   23.9378 N.ar    1  UNL1       -0.2422
      5 C          -7.1618  -16.3821   23.0767 C.ar    1  UNL1        0.1016
      6 C          -7.5660  -17.7998   22.7993 C.ar    1  UNL1        0.0497
      7 C          -6.7008  -18.6715   21.9381 C.ar    1  UNL1        0.1461
      8 C          -7.1835  -19.6935   20.9519 C.ar    1  UNL1        0.0403
      9 C          -5.9821  -20.3279   20.3162 C.ar    1  UNL1        0.0375
     10 C          -4.7568  -19.6979   20.9095 C.ar    1  UNL1        0.1385
     11 O          -5.2011  -18.6742   21.9119 O.2     1  UNL1       -0.4563
     12 C          -3.3367  -20.0329   20.5616 C.3     1  UNL1        0.1307
     13 N          -2.2752  -19.9909   21.6205 N.3     1  UNL1       -0.3148
     14 H          -2.1507  -19.0300   21.9394 H       1  UNL1        0.1192
     15 H          -1.3967  -20.3378   21.2353 H       1  UNL1        0.1192
     16 C          -9.2395  -19.7633   23.1056 C.3     1  UNL1        0.0266
     17 C         -10.9596  -19.7854   21.1586 C.3     1  UNL1        0.0004
     18 C         -10.6164  -20.0638   22.5920 C.3     1  UNL1        0.0047
@<TRIPOS>BOND
     1    17    18    1
     2    18    16    1
     3    16     1    1
     4     1     2   ar
     5     2     3   ar
     6     3     4   ar
     7     4     5   ar
     8     5     6   ar
     9     6     7    1
    10     7     8   ar
    11     8     9   ar
    12     9    10   ar
    13    10    12    1
    14    12    13    1
    15    10    11   ar
    16     6     1   ar
    17    11     7   ar
    18    13    14    1
    19    13    15    1
@<TRIPOS>MOLECULE
*****
 18 19 0 0 0
SMALL
GASTEIGER

@<TRIPOS>ATOM
      1 C         -10.8405  -18.6911   22.3995 C.ar    1  UNL1       -0.0162
      2 C         -12.2141  -18.1252   22.6062 C.ar    1  UNL1        0.0165
      3 C         -12.5100  -16.7098   22.2071 C.ar    1  UNL1        0.0986
      4 N         -11.4323  -15.8604   21.6014 N.ar    1  UNL1       -0.2422
      5 C         -10.0586  -16.4264   21.3948 C.ar    1  UNL1        0.1016
      6 C          -9.7627  -17.8417   21.7939 C.ar    1  UNL1        0.0497
      7 C          -8.3890  -18.4076   21.5872 C.ar    1  UNL1        0.1461
      8 C          -7.9581  -19.2825   20.4475 C.ar    1  UNL1        0.0403
      9 C          -6.5078  -19.6136   20.6399 C.ar    1  UNL1        0.0375
     10 C          -6.0423  -18.9433   21.8986 C.ar    1  UNL1        0.1385
     11 O          -7.2050  -18.1980   22.4840 O.2     1  UNL1       -0.4563
     12 C          -4.6574  -19.0072   22.4712 C.3     1  UNL1        0.1307
     13 N          -3.5292  -19.5518   21.6463 N.3     1  UNL1       -0.3148
     14 H          -3.6862  -20.5438   21.4683 H       1  UNL1        0.1192
     15 H          -2.6506  -19.4318   22.1504 H       1  UNL1        0.1192
     16 C         -10.5446  -20.1064   22.7986 C.3     1  UNL1        0.0266
     17 C         -10.0200  -19.4329   25.2524 C.3     1  UNL1        0.0004
     18 C          -9.8708  -20.3912   24.1081 C.3     1  UNL1        0.0047
@<TRIPOS>BOND
     1    17    18    1
     2    18    16    1
     3    16     1    1
     4     1     2   ar
     5     2     3   ar
     6     3     4   ar
     7     4     5   ar
     8     5     6   ar
     9     6     7    1
    10     7     8   ar
    11     8     9   ar
    12     9    10   ar
    13    10    12    1
    14    12    13    1
    15    10    11   ar
    16     6     1   ar
    17    11     7   ar
    18    13    14    1
    19    13    15    1
@<TRIPOS>MOLECULE
*****
 18 19 0 0 0
SMALL
GASTEIGER

@<TRIPOS>ATOM
      1 C          -9.0226  -16.8167   24.9309 C.ar    1  UNL1       -0.0162
      2 C          -8.2229  -16.3811   26.1228 C.ar    1  UNL1        0.0165
      3 C          -7.0769  -15.4289   25.9497 C.ar    1  UNL1        0.0986
      4 N          -6.7305  -14.9124   24.5847 N.ar    1  UNL1       -0.2422
      5 C          -7.5302  -15.3481   23.3928 C.ar    1  UNL1        0.1016
      6 C          -8.6762  -16.3002   23.5659 C.ar    1  UNL1        0.0497
      7 C          -9.4759  -16.7359   22.3739 C.ar    1  UNL1        0.1461
      8 C          -9.2525  -17.9824   21.5700 C.ar    1  UNL1        0.0403
      9 C         -10.2779  -18.0184   20.4759 C.ar    1  UNL1        0.0375
     10 C         -11.1351  -16.7941   20.6035 C.ar    1  UNL1        0.1385
     11 O         -10.6395  -16.0015   21.7766 O.2     1  UNL1       -0.4563
     12 C         -12.2859  -16.4269   19.7142 C.3     1  UNL1        0.1307
     13 N         -12.1972  -15.2149   18.8349 N.3     1  UNL1       -0.3148
     14 H         -12.1551  -14.3766   19.4145 H       1  UNL1        0.1192
     15 H         -13.0193  -15.1709   18.2326 H       1  UNL1        0.1192
     16 C         -10.1687  -17.7689   25.1040 C.3     1  UNL1        0.0266
     17 C         -10.6041  -20.1495   24.1591 C.3     1  UNL1        0.0004
     18 C          -9.9167  -19.2471   25.1405 C.3     1  UNL1        0.0047
@<TRIPOS>BOND
     1    17    18    1
     2    18    16    1
     3    16     1    1
     4     1     2   ar
     5     2     3   ar
     6     3     4   ar
     7     4     5   ar
     8     5     6   ar
     9     6     7    1
    10     7     8   ar
    11     8     9   ar
    12     9    10   ar
    13    10    12    1
    14    12    13    1
    15    10    11   ar
    16     6     1   ar
    17    11     7   ar
    18    13    14    1
    19    13    15    1
