@<TRIPOS>MOLECULE
*****
 42 43 0 0 0
SMALL
GASTEIGER

@<TRIPOS>ATOM
      1 O          -8.2420  -17.3413   24.0736 O.3     1  UNL1       -0.2926
      2 P          -8.1874  -16.6630   22.7369 P.3     1  UNL1        0.3697
      3 O          -9.1275  -15.6056   23.2349 O.2     1  UNL1       -0.2553
      4 O          -8.1327  -15.9848   21.4001 O.3     1  UNL1       -0.3218
      5 H          -8.6941  -15.1939   21.4156 H       1  UNL1        0.2198
      6 C          -7.2472  -17.7205   22.2388 C.3     1  UNL1        0.2579
      7 O          -7.1675  -18.0225   20.7717 O.3     1  UNL1       -0.3426
      8 C          -7.6481  -19.3446   20.2510 C.3     1  UNL1        0.1387
      9 C          -6.7527  -20.5463   20.3150 C.3     1  UNL1        0.0342
     10 C          -9.0243  -19.4649   19.6661 C.3     1  UNL1        0.1384
     11 N         -10.2002  -18.8771   20.3884 N.ar    1  UNL1       -0.2918
     12 C         -11.2084  -17.9304   19.8076 C.ar    1  UNL1        0.1798
     13 N         -12.2056  -17.6010   20.8786 N.ar    1  UNL1       -0.2195
     14 C         -11.8137  -18.3441   22.1213 C.ar    1  UNL1        0.1481
     15 C         -12.4254  -18.4044   23.4896 C.ar    1  UNL1        0.1480
     16 N         -13.6648  -17.6157   23.7925 N.pl3   1  UNL1       -0.3413
     17 N         -11.7976  -19.2534   24.5549 N.ar    1  UNL1       -0.2078
     18 C         -10.5581  -20.0421   24.2520 C.ar    1  UNL1        0.2015
     19 N          -9.9465  -19.9818   22.8837 N.ar    1  UNL1       -0.2048
     20 C         -10.5743  -19.1327   21.8184 C.ar    1  UNL1        0.1674
     21 H         -14.0768  -17.0585   23.0933 H       1  UNL1        0.1438
     22 H         -14.0662  -17.6554   24.6906 H       1  UNL1        0.1438
     23 C          -9.1784  -16.8385   25.1321 C.3     1  UNL1        0.1514
     24 C          -9.0103  -17.2829   26.5548 C.3     1  UNL1        0.0326
     25 C          -8.4455  -16.3382   27.5739 C.3     1  UNL1        0.0026
     26 C          -6.9715  -16.0616   27.6044 C.3     1  UNL1        0.0001
     27 C          -6.4089  -14.9068   26.8300 C.3     1  UNL1        0.0000
     28 C          -5.1429  -15.0766   26.0437 C.3     1  UNL1        0.0000
     29 C          -5.1473  -15.8852   24.7803 C.3     1  UNL1        0.0000
     30 C          -4.8246  -15.2307   23.4698 C.3     1  UNL1        0.0000
     31 C          -3.6714  -15.7257   22.6481 C.3     1  UNL1        0.0000
     32 C          -3.1041  -17.0916   22.8979 C.3     1  UNL1        0.0000
     33 C          -4.0177  -18.2340   23.2298 C.3     1  UNL1        0.0000
     34 C          -3.7570  -19.5944   22.6543 C.3     1  UNL1        0.0000
     35 C          -2.6598  -19.7862   21.6497 C.3     1  UNL1        0.0000
     36 C          -2.9421  -20.4911   20.3561 C.3     1  UNL1        0.0000
     37 C          -3.6854  -19.7827   19.2626 C.3     1  UNL1        0.0000
     38 C          -3.9077  -18.3015   19.3445 C.3     1  UNL1        0.0000
     39 C          -2.9121  -17.3588   18.7362 C.3     1  UNL1        0.0000
     40 C          -1.5274  -17.8364   18.4132 C.3     1  UNL1        0.0000
     41 C          -0.4447  -16.8005   20.5357 C.3     1  UNL1        0.0000
     42 C          -0.4765  -17.8687   19.4832 C.3     1  UNL1        0.0000
@<TRIPOS>BOND
     1    41    42    1
     2    42    40    1
     3    40    39    1
     4    39    38    1
     5    38    37    1
     6    37    36    1
     7    36    35    1
     8    35    34    1
     9    34    33    1
    10    33    32    1
    11    32    31    1
    12    31    30    1
    13    30    29    1
    14    29    28    1
    15    28    27    1
    16    27    26    1
    17    26    25    1
    18    25    24    1
    19    24    23    1
    20    23     1    1
    21     1     2    1
    22     2     3    2
    23     2     4    1
    24     2     6    1
    25     6     7    1
    26     7     8    1
    27     8     9    1
    28     8    10    1
    29    10    11    1
    30    11    12   ar
    31    12    13   ar
    32    13    14   ar
    33    14    15   ar
    34    15    16    1
    35    15    17   ar
    36    17    18   ar
    37    18    19   ar
    38    19    20   ar
    39    20    11   ar
    40    20    14   ar
    41     4     5    1
    42    16    21    1
    43    16    22    1
@<TRIPOS>MOLECULE
*****
 42 43 0 0 0
SMALL
GASTEIGER

@<TRIPOS>ATOM
      1 O          -9.1494  -16.2501   24.4441 O.3     1  UNL1       -0.2926
      2 P          -8.4664  -16.5408   23.1406 P.3     1  UNL1        0.3697
      3 O          -8.3131  -15.0694   22.8927 O.2     1  UNL1       -0.2553
      4 O          -7.7834  -16.8316   21.8372 O.3     1  UNL1       -0.3218
      5 H          -7.5427  -15.9972   21.4051 H       1  UNL1        0.2198
      6 C          -8.6197  -18.0122   23.3886 C.3     1  UNL1        0.2579
      7 O          -9.2429  -18.4971   24.6639 O.3     1  UNL1       -0.3426
      8 C         -10.2367  -19.6202   24.6335 C.3     1  UNL1        0.1387
      9 C          -9.7897  -21.0249   24.9109 C.3     1  UNL1        0.0342
     10 C         -11.6776  -19.3386   24.3255 C.3     1  UNL1        0.1384
     11 N         -12.0370  -18.3110   23.2936 N.ar    1  UNL1       -0.2918
     12 C         -12.9453  -17.1351   23.4994 C.ar    1  UNL1        0.1798
     13 N         -13.0209  -16.3763   22.2077 N.ar    1  UNL1       -0.2195
     14 C         -12.1593  -17.0831   21.2037 C.ar    1  UNL1        0.1481
     15 C         -11.8499  -16.7923   19.7651 C.ar    1  UNL1        0.1480
     16 N         -12.4579  -15.5966   19.0939 N.pl3   1  UNL1       -0.3413
     17 N         -10.9323  -17.6974   18.9976 N.ar    1  UNL1       -0.2078
     18 C         -10.3242  -18.8931   19.6688 C.ar    1  UNL1        0.2015
     19 N         -10.6337  -19.1838   21.1074 N.ar    1  UNL1       -0.2048
     20 C         -11.5512  -18.2788   21.8748 C.ar    1  UNL1        0.1674
     21 H         -13.0602  -15.0026   19.5977 H       1  UNL1        0.1438
     22 H         -12.2549  -15.4058   18.1497 H       1  UNL1        0.1438
     23 C          -8.5931  -15.2056   25.3657 C.3     1  UNL1        0.1514
     24 C          -8.2138  -15.5700   26.7705 C.3     1  UNL1        0.0326
     25 C          -6.7739  -15.7983   27.1233 C.3     1  UNL1        0.0026
     26 C          -5.7086  -14.9256   26.5287 C.3     1  UNL1        0.0001
     27 C          -5.0719  -15.3027   25.2239 C.3     1  UNL1        0.0000
     28 C          -5.3082  -16.6639   24.6397 C.3     1  UNL1        0.0000
     29 C          -4.6263  -17.0613   23.3640 C.3     1  UNL1        0.0000
     30 C          -3.4957  -18.0466   23.3935 C.3     1  UNL1        0.0000
     31 C          -2.2297  -17.7583   22.6424 C.3     1  UNL1        0.0000
     32 C          -2.0499  -16.4375   21.9546 C.3     1  UNL1        0.0000
     33 C          -1.0308  -16.2927   20.8635 C.3     1  UNL1        0.0000
     34 C          -0.5599  -17.5023   20.1117 C.3     1  UNL1        0.0000
     35 C          -1.3033  -17.9648   18.8938 C.3     1  UNL1        0.0000
     36 C          -2.7488  -17.6058   18.7160 C.3     1  UNL1        0.0000
     37 C          -3.8184  -18.5328   19.2126 C.3     1  UNL1        0.0000
     38 C          -3.4424  -19.8072   19.9087 C.3     1  UNL1        0.0000
     39 C          -4.4753  -20.8711   20.1350 C.3     1  UNL1        0.0000
     40 C          -5.9173  -20.5938   19.8287 C.3     1  UNL1        0.0000
     41 C          -6.3908  -20.2442   22.3593 C.3     1  UNL1        0.0000
     42 C          -6.8634  -20.2338   20.9357 C.3     1  UNL1        0.0000
@<TRIPOS>BOND
     1    41    42    1
     2    42    40    1
     3    40    39    1
     4    39    38    1
     5    38    37    1
     6    37    36    1
     7    36    35    1
     8    35    34    1
     9    34    33    1
    10    33    32    1
    11    32    31    1
    12    31    30    1
    13    30    29    1
    14    29    28    1
    15    28    27    1
    16    27    26    1
    17    26    25    1
    18    25    24    1
    19    24    23    1
    20    23     1    1
    21     1     2    1
    22     2     3    2
    23     2     4    1
    24     2     6    1
    25     6     7    1
    26     7     8    1
    27     8     9    1
    28     8    10    1
    29    10    11    1
    30    11    12   ar
    31    12    13   ar
    32    13    14   ar
    33    14    15   ar
    34    15    16    1
    35    15    17   ar
    36    17    18   ar
    37    18    19   ar
    38    19    20   ar
    39    20    11   ar
    40    20    14   ar
    41     4     5    1
    42    16    21    1
    43    16    22    1
@<TRIPOS>MOLECULE
*****
 42 43 0 0 0
SMALL
GASTEIGER

@<TRIPOS>ATOM
      1 O          -7.8530  -16.7676   23.2267 O.3     1  UNL1       -0.2926
      2 P          -8.0837  -15.7079   22.1905 P.3     1  UNL1        0.3697
      3 O          -7.1586  -14.7856   22.9277 O.2     1  UNL1       -0.2553
      4 O          -8.3144  -14.6482   21.1542 O.3     1  UNL1       -0.3218
      5 H          -7.8001  -13.8574   21.3803 H       1  UNL1        0.2198
      6 C          -9.0088  -16.6302   21.4533 C.3     1  UNL1        0.2579
      7 O          -8.4737  -17.8795   20.8186 O.3     1  UNL1       -0.3426
      8 C          -9.3351  -18.6728   19.8813 C.3     1  UNL1        0.1387
      9 C          -8.7265  -19.7508   19.0341 C.3     1  UNL1        0.0342
     10 C         -10.8051  -18.3883   19.7911 C.3     1  UNL1        0.1384
     11 N         -11.6148  -18.2208   21.0427 N.ar    1  UNL1       -0.2918
     12 C         -12.8497  -17.3819   21.1882 C.ar    1  UNL1        0.1798
     13 N         -13.3297  -17.5055   22.6040 N.ar    1  UNL1       -0.2195
     14 C         -12.3915  -18.4207   23.3334 C.ar    1  UNL1        0.1481
     15 C         -12.3653  -18.9086   24.7515 C.ar    1  UNL1        0.1480
     16 N         -13.4253  -18.4665   25.7165 N.pl3   1  UNL1       -0.3413
     17 N         -11.2793  -19.8386   25.2047 N.ar    1  UNL1       -0.2078
     18 C         -10.2193  -20.2807   24.2398 C.ar    1  UNL1        0.2015
     19 N         -10.2455  -19.7928   22.8217 N.ar    1  UNL1       -0.2048
     20 C         -11.3316  -18.8628   22.3685 C.ar    1  UNL1        0.1674
     21 H         -14.1381  -17.8561   25.4190 H       1  UNL1        0.1438
     22 H         -13.4081  -18.7868   26.6473 H       1  UNL1        0.1438
     23 C          -8.8144  -16.9230   24.3675 C.3     1  UNL1        0.1514
     24 C          -8.9019  -15.8624   25.4246 C.3     1  UNL1        0.0326
     25 C          -8.4389  -16.1554   26.8210 C.3     1  UNL1        0.0026
     26 C          -7.0888  -15.6874   27.2771 C.3     1  UNL1        0.0001
     27 C          -6.1283  -15.0925   26.2905 C.3     1  UNL1        0.0000
     28 C          -4.7438  -15.6547   26.1590 C.3     1  UNL1        0.0000
     29 C          -4.4915  -16.8225   25.2520 C.3     1  UNL1        0.0000
     30 C          -4.7113  -16.6859   23.7745 C.3     1  UNL1        0.0000
     31 C          -3.9371  -17.5441   22.8185 C.3     1  UNL1        0.0000
     32 C          -2.4561  -17.7095   22.9896 C.3     1  UNL1        0.0000
     33 C          -1.6889  -18.6026   22.0602 C.3     1  UNL1        0.0000
     34 C          -0.7979  -18.0056   21.0115 C.3     1  UNL1        0.0000
     35 C          -1.3649  -17.0577   19.9966 C.3     1  UNL1        0.0000
     36 C          -2.6606  -17.3784   19.3123 C.3     1  UNL1        0.0000
     37 C          -2.8181  -18.6746   18.5741 C.3     1  UNL1        0.0000
     38 C          -3.0507  -19.9469   19.3337 C.3     1  UNL1        0.0000
     39 C          -4.4454  -20.4694   19.5125 C.3     1  UNL1        0.0000
     40 C          -5.3705  -19.8167   20.4965 C.3     1  UNL1        0.0000
     41 C          -7.0535  -20.0989   22.4555 C.3     1  UNL1        0.0000
     42 C          -5.8580  -20.5834   21.6901 C.3     1  UNL1        0.0000
@<TRIPOS>BOND
     1    41    42    1
     2    42    40    1
     3    40    39    1
     4    39    38    1
     5    38    37    1
     6    37    36    1
     7    36    35    1
     8    35    34    1
     9    34    33    1
    10    33    32    1
    11    32    31    1
    12    31    30    1
    13    30    29    1
    14    29    28    1
    15    28    27    1
    16    27    26    1
    17    26    25    1
    18    25    24    1
    19    24    23    1
    20    23     1    1
    21     1     2    1
    22     2     3    2
    23     2     4    1
    24     2     6    1
    25     6     7    1
    26     7     8    1
    27     8     9    1
    28     8    10    1
    29    10    11    1
    30    11    12   ar
    31    12    13   ar
    32    13    14   ar
    33    14    15   ar
    34    15    16    1
    35    15    17   ar
    36    17    18   ar
    37    18    19   ar
    38    19    20   ar
    39    20    11   ar
    40    20    14   ar
    41     4     5    1
    42    16    21    1
    43    16    22    1
@<TRIPOS>MOLECULE
*****
 42 43 0 0 0
SMALL
GASTEIGER

@<TRIPOS>ATOM
      1 O           7.6372   -4.7153   29.7900 O.3     1  UNL1       -0.2926
      2 P           7.1231   -5.0589   31.1566 P.3     1  UNL1        0.3697
      3 O           7.7454   -6.4195   31.0485 O.2     1  UNL1       -0.2553
      4 O           6.6091   -5.4026   32.5232 O.3     1  UNL1       -0.3218
      5 H           6.8777   -6.3062   32.7519 H       1  UNL1        0.2198
      6 C           6.5009   -3.6984   31.2647 C.3     1  UNL1        0.2579
      7 O           6.2800   -3.0796   32.6131 O.3     1  UNL1       -0.3426
      8 C           5.3086   -1.9473   32.7687 C.3     1  UNL1        0.1387
      9 C           4.2861   -1.9818   33.8657 C.3     1  UNL1        0.0342
     10 C           5.3596   -0.7805   31.8273 C.3     1  UNL1        0.1384
     11 N           4.6029   -0.8275   30.5330 N.ar    1  UNL1       -0.2918
     12 C           3.1118   -0.7701   30.3809 C.ar    1  UNL1        0.1798
     13 N           2.7919   -0.8472   28.9174 N.ar    1  UNL1       -0.2195
     14 C           4.0854   -0.9523   28.1651 C.ar    1  UNL1        0.1481
     15 C           4.3885   -1.0575   26.6998 C.ar    1  UNL1        0.1480
     16 N           3.2692   -1.0696   25.7013 N.pl3   1  UNL1       -0.3413
     17 N           5.8110   -1.1505   26.2331 N.ar    1  UNL1       -0.2078
     18 C           6.9303   -1.1383   27.2316 C.ar    1  UNL1        0.2015
     19 N           6.6271   -1.0331   28.6969 N.ar    1  UNL1       -0.2048
     20 C           5.2047   -0.9401   29.1636 C.ar    1  UNL1        0.1674
     21 H           2.3356   -1.0086   26.0077 H       1  UNL1        0.1438
     22 H           3.4682   -1.1387   24.7396 H       1  UNL1        0.1438
     23 C           6.6883   -4.6290   28.6315 C.3     1  UNL1        0.1514
     24 C           7.0249   -5.3033   27.3345 C.3     1  UNL1        0.0326
     25 C           7.6369   -6.6727   27.3379 C.3     1  UNL1        0.0026
     26 C           7.4184   -7.5947   26.1751 C.3     1  UNL1        0.0001
     27 C           8.5031   -7.7885   25.1574 C.3     1  UNL1        0.0000
     28 C           8.3943   -7.1353   23.8115 C.3     1  UNL1        0.0000
     29 C           8.6134   -5.6575   23.6751 C.3     1  UNL1        0.0000
     30 C           7.4386   -4.7259   23.6329 C.3     1  UNL1        0.0000
     31 C           7.0265   -4.0966   22.3352 C.3     1  UNL1        0.0000
     32 C           5.9960   -3.0068   22.3239 C.3     1  UNL1        0.0000
     33 C           4.5461   -3.3474   22.1455 C.3     1  UNL1        0.0000
     34 C           4.1484   -4.4978   21.2689 C.3     1  UNL1        0.0000
     35 C           3.8765   -4.2711   19.8113 C.3     1  UNL1        0.0000
     36 C           5.0174   -4.1609   18.8437 C.3     1  UNL1        0.0000
     37 C           5.3102   -2.8503   18.1755 C.3     1  UNL1        0.0000
     38 C           5.2868   -1.5801   18.9731 C.3     1  UNL1        0.0000
     39 C           4.0950   -0.6720   18.9024 C.3     1  UNL1        0.0000
     40 C           3.4548   -0.1751   20.1646 C.3     1  UNL1        0.0000
     41 C           0.8718   -0.4403   20.2537 C.3     1  UNL1        0.0000
     42 C           2.2374   -0.8621   20.7089 C.3     1  UNL1        0.0000
@<TRIPOS>BOND
     1    41    42    1
     2    42    40    1
     3    40    39    1
     4    39    38    1
     5    38    37    1
     6    37    36    1
     7    36    35    1
     8    35    34    1
     9    34    33    1
    10    33    32    1
    11    32    31    1
    12    31    30    1
    13    30    29    1
    14    29    28    1
    15    28    27    1
    16    27    26    1
    17    26    25    1
    18    25    24    1
    19    24    23    1
    20    23     1    1
    21     1     2    1
    22     2     3    2
    23     2     4    1
    24     2     6    1
    25     6     7    1
    26     7     8    1
    27     8     9    1
    28     8    10    1
    29    10    11    1
    30    11    12   ar
    31    12    13   ar
    32    13    14   ar
    33    14    15   ar
    34    15    16    1
    35    15    17   ar
    36    17    18   ar
    37    18    19   ar
    38    19    20   ar
    39    20    11   ar
    40    20    14   ar
    41     4     5    1
    42    16    21    1
    43    16    22    1
@<TRIPOS>MOLECULE
*****
 42 43 0 0 0
SMALL
GASTEIGER

@<TRIPOS>ATOM
      1 O          -7.8894  -17.4665   23.2459 O.3     1  UNL1       -0.2926
      2 P          -8.4433  -16.3998   22.3485 P.3     1  UNL1        0.3697
      3 O          -8.9765  -15.6697   23.5454 O.2     1  UNL1       -0.2553
      4 O          -8.9972  -15.3332   21.4511 O.3     1  UNL1       -0.3218
      5 H          -9.4417  -14.6581   21.9874 H       1  UNL1        0.2198
      6 C          -7.9101  -17.1299   21.1516 C.3     1  UNL1        0.2579
      7 O          -7.5658  -18.5863   21.2534 O.3     1  UNL1       -0.3426
      8 C          -8.0681  -19.5498   20.2193 C.3     1  UNL1        0.1387
      9 C          -7.0951  -20.3264   19.3824 C.3     1  UNL1        0.0342
     10 C          -9.5433  -19.7367   20.0220 C.3     1  UNL1        0.1384
     11 N         -10.4855  -19.5327   21.1712 N.ar    1  UNL1       -0.2918
     12 C         -10.7242  -20.4948   22.2970 C.ar    1  UNL1        0.1798
     13 N         -11.7406  -19.8874   23.2180 N.ar    1  UNL1       -0.2195
     14 C         -12.1300  -18.5501   22.6613 C.ar    1  UNL1        0.1481
     15 C         -13.0907  -17.5036   23.1429 C.ar    1  UNL1        0.1480
     16 N         -13.8664  -17.7229   24.4079 N.pl3   1  UNL1       -0.3413
     17 N         -13.2757  -16.2380   22.3595 N.ar    1  UNL1       -0.2078
     18 C         -12.5000  -16.0187   21.0945 C.ar    1  UNL1        0.2015
     19 N         -11.5393  -17.0652   20.6129 N.ar    1  UNL1       -0.2048
     20 C         -11.3543  -18.3309   21.3963 C.ar    1  UNL1        0.1674
     21 H         -13.7450  -18.5536   24.9221 H       1  UNL1        0.1438
     22 H         -14.4969  -17.0360   24.7240 H       1  UNL1        0.1438
     23 C          -8.7991  -18.2074   24.1804 C.3     1  UNL1        0.1514
     24 C          -9.6110  -17.4536   25.1917 C.3     1  UNL1        0.0326
     25 C          -9.4252  -17.7246   26.6553 C.3     1  UNL1        0.0026
     26 C          -8.5046  -16.8620   27.4667 C.3     1  UNL1        0.0001
     27 C          -7.9434  -15.6021   26.8773 C.3     1  UNL1        0.0000
     28 C          -6.5793  -15.1273   27.2821 C.3     1  UNL1        0.0000
     29 C          -5.4567  -15.1347   26.2872 C.3     1  UNL1        0.0000
     30 C          -5.7261  -14.8006   24.8499 C.3     1  UNL1        0.0000
     31 C          -5.0850  -15.6068   23.7596 C.3     1  UNL1        0.0000
     32 C          -4.5093  -16.9578   24.0652 C.3     1  UNL1        0.0000
     33 C          -4.6076  -18.0612   23.0539 C.3     1  UNL1        0.0000
     34 C          -3.3828  -18.8369   22.6688 C.3     1  UNL1        0.0000
     35 C          -2.0518  -18.1492   22.5955 C.3     1  UNL1        0.0000
     36 C          -1.9637  -16.7365   22.0992 C.3     1  UNL1        0.0000
     37 C          -1.1899  -16.4265   20.8521 C.3     1  UNL1        0.0000
     38 C          -0.7023  -17.5417   19.9754 C.3     1  UNL1        0.0000
     39 C          -1.4893  -17.9412   18.7626 C.3     1  UNL1        0.0000
     40 C          -2.9606  -17.6569   18.6960 C.3     1  UNL1        0.0000
     41 C          -3.4994  -20.0562   19.5346 C.3     1  UNL1        0.0000
     42 C          -3.9425  -18.6548   19.2347 C.3     1  UNL1        0.0000
@<TRIPOS>BOND
     1    41    42    1
     2    42    40    1
     3    40    39    1
     4    39    38    1
     5    38    37    1
     6    37    36    1
     7    36    35    1
     8    35    34    1
     9    34    33    1
    10    33    32    1
    11    32    31    1
    12    31    30    1
    13    30    29    1
    14    29    28    1
    15    28    27    1
    16    27    26    1
    17    26    25    1
    18    25    24    1
    19    24    23    1
    20    23     1    1
    21     1     2    1
    22     2     3    2
    23     2     4    1
    24     2     6    1
    25     6     7    1
    26     7     8    1
    27     8     9    1
    28     8    10    1
    29    10    11    1
    30    11    12   ar
    31    12    13   ar
    32    13    14   ar
    33    14    15   ar
    34    15    16    1
    35    15    17   ar
    36    17    18   ar
    37    18    19   ar
    38    19    20   ar
    39    20    11   ar
    40    20    14   ar
    41     4     5    1
    42    16    21    1
    43    16    22    1
@<TRIPOS>MOLECULE
*****
 42 43 0 0 0
SMALL
GASTEIGER

@<TRIPOS>ATOM
      1 O           8.3842   -3.0350   24.5000 O.3     1  UNL1       -0.2926
      2 P           7.3528   -3.9132   25.1441 P.3     1  UNL1        0.3697
      3 O           8.2407   -5.1050   24.9410 O.2     1  UNL1       -0.2553
      4 O           6.3213   -4.7914   25.7881 O.3     1  UNL1       -0.3218
      5 H           6.6403   -5.7074   25.8032 H       1  UNL1        0.2198
      6 C           6.4648   -2.7215   25.3471 C.3     1  UNL1        0.2579
      7 O           6.9385   -1.5661   26.1783 O.3     1  UNL1       -0.3426
      8 C           6.0471   -0.9888   27.2375 C.3     1  UNL1        0.1387
      9 C           4.6176   -0.6639   26.9195 C.3     1  UNL1        0.0342
     10 C           6.5851   -0.7363   28.6148 C.3     1  UNL1        0.1384
     11 N           6.4545   -1.7888   29.6756 N.ar    1  UNL1       -0.2918
     12 C           5.7551   -1.6308   30.9931 C.ar    1  UNL1        0.1798
     13 N           5.8688   -2.9285   31.7368 N.ar    1  UNL1       -0.2195
     14 C           6.6385   -3.8885   30.8789 C.ar    1  UNL1        0.1481
     15 C           7.0564   -5.3131   31.0932 C.ar    1  UNL1        0.1480
     16 N           6.6944   -6.0174   32.3671 N.pl3   1  UNL1       -0.3413
     17 N           7.8364   -6.0333   30.0335 N.ar    1  UNL1       -0.2078
     18 C           8.1984   -5.3289   28.7596 C.ar    1  UNL1        0.2015
     19 N           7.7804   -3.9044   28.5454 N.ar    1  UNL1       -0.2048
     20 C           7.0005   -3.1842   29.6050 C.ar    1  UNL1        0.1674
     21 H           6.1825   -5.5447   33.0626 H       1  UNL1        0.1438
     22 H           6.9688   -6.9524   32.5077 H       1  UNL1        0.1438
     23 C           8.8220   -3.3018   23.0904 C.3     1  UNL1        0.1514
     24 C           7.9890   -2.8157   21.9416 C.3     1  UNL1        0.0326
     25 C           8.1489   -3.4345   20.5845 C.3     1  UNL1        0.0026
     26 C           8.6190   -2.5997   19.4304 C.3     1  UNL1        0.0001
     27 C           7.6242   -1.8629   18.5834 C.3     1  UNL1        0.0000
     28 C           6.1562   -2.0011   18.8589 C.3     1  UNL1        0.0000
     29 C           5.3620   -3.0729   18.1728 C.3     1  UNL1        0.0000
     30 C           4.8519   -4.2460   18.9562 C.3     1  UNL1        0.0000
     31 C           3.9501   -4.0261   20.1345 C.3     1  UNL1        0.0000
     32 C           4.5137   -4.0467   21.5244 C.3     1  UNL1        0.0000
     33 C           4.3027   -2.8749   22.4367 C.3     1  UNL1        0.0000
     34 C           4.2490   -1.4858   21.8732 C.3     1  UNL1        0.0000
     35 C           2.9594   -0.7200   21.8874 C.3     1  UNL1        0.0000
     36 C           2.0170   -0.8163   20.7244 C.3     1  UNL1        0.0000
     37 C           2.5549   -0.8585   19.3248 C.3     1  UNL1        0.0000
     38 C           2.7331    0.4142   18.5511 C.3     1  UNL1        0.0000
     39 C           4.1045    0.9920   18.3631 C.3     1  UNL1        0.0000
     40 C           4.9137    1.4065   19.5561 C.3     1  UNL1        0.0000
     41 C           7.3695    1.3878   20.4042 C.3     1  UNL1        0.0000
     42 C           6.3498    1.8054   19.3864 C.3     1  UNL1        0.0000
@<TRIPOS>BOND
     1    41    42    1
     2    42    40    1
     3    40    39    1
     4    39    38    1
     5    38    37    1
     6    37    36    1
     7    36    35    1
     8    35    34    1
     9    34    33    1
    10    33    32    1
    11    32    31    1
    12    31    30    1
    13    30    29    1
    14    29    28    1
    15    28    27    1
    16    27    26    1
    17    26    25    1
    18    25    24    1
    19    24    23    1
    20    23     1    1
    21     1     2    1
    22     2     3    2
    23     2     4    1
    24     2     6    1
    25     6     7    1
    26     7     8    1
    27     8     9    1
    28     8    10    1
    29    10    11    1
    30    11    12   ar
    31    12    13   ar
    32    13    14   ar
    33    14    15   ar
    34    15    16    1
    35    15    17   ar
    36    17    18   ar
    37    18    19   ar
    38    19    20   ar
    39    20    11   ar
    40    20    14   ar
    41     4     5    1
    42    16    21    1
    43    16    22    1
@<TRIPOS>MOLECULE
*****
 42 43 0 0 0
SMALL
GASTEIGER

@<TRIPOS>ATOM
      1 O           0.9254    1.1407   28.2858 O.3     1  UNL1       -0.2926
      2 P           1.3805    0.1635   29.3288 P.3     1  UNL1        0.3697
      3 O           0.0156   -0.4585   29.3416 O.2     1  UNL1       -0.2553
      4 O           1.8355   -0.8137   30.3719 O.3     1  UNL1       -0.3218
      5 H           1.1014   -1.4035   30.6045 H       1  UNL1        0.2198
      6 C           2.7454    0.7855   29.3161 C.3     1  UNL1        0.2579
      7 O           3.6168    0.6570   28.1020 O.3     1  UNL1       -0.3426
      8 C           4.5419   -0.5156   27.9634 C.3     1  UNL1        0.1387
      9 C           4.2209   -1.6136   26.9932 C.3     1  UNL1        0.0342
     10 C           5.7881   -0.5903   28.7951 C.3     1  UNL1        0.1384
     11 N           5.9382   -1.6695   29.8260 N.ar    1  UNL1       -0.2918
     12 C           5.6080   -1.5481   31.2841 C.ar    1  UNL1        0.1798
     13 N           5.9106   -2.8632   31.9390 N.ar    1  UNL1       -0.2195
     14 C           6.4279   -3.7975   30.8855 C.ar    1  UNL1        0.1481
     15 C           6.8855   -5.2246   30.9467 C.ar    1  UNL1        0.1480
     16 N           6.8685   -5.9624   32.2526 N.pl3   1  UNL1       -0.3413
     17 N           7.3602   -5.9140   29.7020 N.ar    1  UNL1       -0.2078
     18 C           7.3773   -5.1762   28.3961 C.ar    1  UNL1        0.2015
     19 N           6.9196   -3.7491   28.3349 N.ar    1  UNL1       -0.2048
     20 C           6.4449   -3.0597   29.5796 C.ar    1  UNL1        0.1674
     21 H           6.5569   -5.5099   33.0696 H       1  UNL1        0.1438
     22 H           7.1689   -6.8991   32.2928 H       1  UNL1        0.1438
     23 C          -0.4163    0.9739   27.6362 C.3     1  UNL1        0.1514
     24 C          -0.9112    2.0019   26.6624 C.3     1  UNL1        0.0326
     25 C          -0.3478    2.0514   25.2731 C.3     1  UNL1        0.0026
     26 C           0.6024    0.9868   24.8108 C.3     1  UNL1        0.0001
     27 C           2.0826    1.2055   24.9158 C.3     1  UNL1        0.0000
     28 C           3.0300    0.2687   24.2267 C.3     1  UNL1        0.0000
     29 C           4.2844    0.7989   23.5977 C.3     1  UNL1        0.0000
     30 C           4.2643    1.2848   22.1787 C.3     1  UNL1        0.0000
     31 C           4.2098    2.7557   21.8903 C.3     1  UNL1        0.0000
     32 C           2.9012    3.4857   21.9597 C.3     1  UNL1        0.0000
     33 C           1.6143    2.7372   21.7763 C.3     1  UNL1        0.0000
     34 C           1.3022    2.0941   20.4576 C.3     1  UNL1        0.0000
     35 C           0.3457    0.9404   20.3935 C.3     1  UNL1        0.0000
     36 C           0.8623   -0.4511   20.1775 C.3     1  UNL1        0.0000
     37 C           2.1608   -0.8739   20.7982 C.3     1  UNL1        0.0000
     38 C           3.0234   -1.8917   20.1128 C.3     1  UNL1        0.0000
     39 C           3.8113   -1.5094   18.8950 C.3     1  UNL1        0.0000
     40 C           4.4779   -0.1676   18.8238 C.3     1  UNL1        0.0000
     41 C           4.2755    2.3611   18.2623 C.3     1  UNL1        0.0000
     42 C           3.8491    0.9414   18.0332 C.3     1  UNL1        0.0000
@<TRIPOS>BOND
     1    41    42    1
     2    42    40    1
     3    40    39    1
     4    39    38    1
     5    38    37    1
     6    37    36    1
     7    36    35    1
     8    35    34    1
     9    34    33    1
    10    33    32    1
    11    32    31    1
    12    31    30    1
    13    30    29    1
    14    29    28    1
    15    28    27    1
    16    27    26    1
    17    26    25    1
    18    25    24    1
    19    24    23    1
    20    23     1    1
    21     1     2    1
    22     2     3    2
    23     2     4    1
    24     2     6    1
    25     6     7    1
    26     7     8    1
    27     8     9    1
    28     8    10    1
    29    10    11    1
    30    11    12   ar
    31    12    13   ar
    32    13    14   ar
    33    14    15   ar
    34    15    16    1
    35    15    17   ar
    36    17    18   ar
    37    18    19   ar
    38    19    20   ar
    39    20    11   ar
    40    20    14   ar
    41     4     5    1
    42    16    21    1
    43    16    22    1
@<TRIPOS>MOLECULE
*****
 42 43 0 0 0
SMALL
GASTEIGER

@<TRIPOS>ATOM
      1 O           7.8526   -4.1010   26.9521 O.3     1  UNL1       -0.2926
      2 P           6.9966   -4.9399   27.8541 P.3     1  UNL1        0.3697
      3 O           7.8755   -6.1254   27.5857 O.2     1  UNL1       -0.2553
      4 O           6.1406   -5.7787   28.7560 O.3     1  UNL1       -0.3218
      5 H           6.4919   -6.6823   28.7869 H       1  UNL1        0.2198
      6 C           6.1176   -3.7544   28.1224 C.3     1  UNL1        0.2579
      7 O           6.4574   -2.4192   27.5293 O.3     1  UNL1       -0.3426
      8 C           5.3735   -1.5558   26.9551 C.3     1  UNL1        0.1387
      9 C           5.6592   -0.6827   25.7693 C.3     1  UNL1        0.0342
     10 C           4.0038   -1.5655   27.5667 C.3     1  UNL1        0.1384
     11 N           3.7604   -0.8679   28.8721 N.ar    1  UNL1       -0.2918
     12 C           4.7285   -0.7703   30.0136 C.ar    1  UNL1        0.1798
     13 N           4.0725    0.0125   31.1121 N.ar    1  UNL1       -0.2195
     14 C           2.6989    0.3988   30.6495 C.ar    1  UNL1        0.1481
     15 C           1.5989    1.1757   31.3101 C.ar    1  UNL1        0.1480
     16 N           1.7918    1.7199   32.6945 N.pl3   1  UNL1       -0.3413
     17 N           0.3060    1.4085   30.5861 N.ar    1  UNL1       -0.2078
     18 C           0.1130    0.8644   29.2017 C.ar    1  UNL1        0.2015
     19 N           1.2130    0.0875   28.5412 N.ar    1  UNL1       -0.2048
     20 C           2.5060   -0.1453   29.2651 C.ar    1  UNL1        0.1674
     21 H           2.6404    1.5671   33.1696 H       1  UNL1        0.1438
     22 H           1.0698    2.2298   33.1280 H       1  UNL1        0.1438
     23 C           8.1489   -4.5632   25.5562 C.3     1  UNL1        0.1514
     24 C           7.6377   -3.7811   24.3827 C.3     1  UNL1        0.0326
     25 C           6.1972   -3.8901   23.9790 C.3     1  UNL1        0.0026
     26 C           5.8174   -3.8222   22.5295 C.3     1  UNL1        0.0001
     27 C           6.8573   -3.5065   21.4956 C.3     1  UNL1        0.0000
     28 C           6.9953   -2.1071   20.9735 C.3     1  UNL1        0.0000
     29 C           7.0746   -0.9542   21.9299 C.3     1  UNL1        0.0000
     30 C           6.3595    0.3275   21.6205 C.3     1  UNL1        0.0000
     31 C           4.9051    0.3054   21.2541 C.3     1  UNL1        0.0000
     32 C           3.9210   -0.4076   22.1333 C.3     1  UNL1        0.0000
     33 C           2.4503   -0.2884   21.8633 C.3     1  UNL1        0.0000
     34 C           1.8718   -0.8517   20.5992 C.3     1  UNL1        0.0000
     35 C           0.9540   -0.0162   19.7569 C.3     1  UNL1        0.0000
     36 C           1.4402    0.5550   18.4579 C.3     1  UNL1        0.0000
     37 C           2.9118    0.6432   18.1815 C.3     1  UNL1        0.0000
     38 C           3.6045   -0.4654   17.4458 C.3     1  UNL1        0.0000
     39 C           4.6882   -1.2518   18.1219 C.3     1  UNL1        0.0000
     40 C           4.5796   -2.7443   18.2241 C.3     1  UNL1        0.0000
     41 C           3.5502   -4.8352   19.3725 C.3     1  UNL1        0.0000
     42 C           3.8523   -3.3660   19.3795 C.3     1  UNL1        0.0000
@<TRIPOS>BOND
     1    41    42    1
     2    42    40    1
     3    40    39    1
     4    39    38    1
     5    38    37    1
     6    37    36    1
     7    36    35    1
     8    35    34    1
     9    34    33    1
    10    33    32    1
    11    32    31    1
    12    31    30    1
    13    30    29    1
    14    29    28    1
    15    28    27    1
    16    27    26    1
    17    26    25    1
    18    25    24    1
    19    24    23    1
    20    23     1    1
    21     1     2    1
    22     2     3    2
    23     2     4    1
    24     2     6    1
    25     6     7    1
    26     7     8    1
    27     8     9    1
    28     8    10    1
    29    10    11    1
    30    11    12   ar
    31    12    13   ar
    32    13    14   ar
    33    14    15   ar
    34    15    16    1
    35    15    17   ar
    36    17    18   ar
    37    18    19   ar
    38    19    20   ar
    39    20    11   ar
    40    20    14   ar
    41     4     5    1
    42    16    21    1
    43    16    22    1
@<TRIPOS>MOLECULE
*****
 42 43 0 0 0
SMALL
GASTEIGER

@<TRIPOS>ATOM
      1 O           6.9957   -3.9200   27.2412 O.3     1  UNL1       -0.2926
      2 P           6.7252   -4.8628   28.3761 P.3     1  UNL1        0.3697
      3 O           6.1809   -5.8715   27.4084 O.2     1  UNL1       -0.2553
      4 O           6.4548   -5.8056   29.5109 O.3     1  UNL1       -0.3218
      5 H           6.0646   -6.6238   29.1656 H       1  UNL1        0.2198
      6 C           7.2695   -3.8542   29.3437 C.3     1  UNL1        0.2579
      7 O           6.5199   -3.5449   30.6056 O.3     1  UNL1       -0.3426
      8 C           7.0647   -2.5368   31.5737 C.3     1  UNL1        0.1387
      9 C           8.3525   -2.8079   32.2934 C.3     1  UNL1        0.0342
     10 C           6.3215   -1.2577   31.8221 C.3     1  UNL1        0.1384
     11 N           4.9397   -1.0734   31.2682 N.ar    1  UNL1       -0.2918
     12 C           3.6621   -1.1171   32.0529 C.ar    1  UNL1        0.1798
     13 N           2.5258   -0.8838   31.1020 N.ar    1  UNL1       -0.2195
     14 C           3.1011   -0.6958   29.7295 C.ar    1  UNL1        0.1481
     15 C           2.4592   -0.4331   28.3995 C.ar    1  UNL1        0.1480
     16 N           0.9674   -0.3159   28.2968 N.pl3   1  UNL1       -0.3413
     17 N           3.3093   -0.2876   27.1722 N.ar    1  UNL1       -0.2078
     18 C           4.8011   -0.4048   27.2749 C.ar    1  UNL1        0.2015
     19 N           5.4430   -0.6675   28.6049 N.ar    1  UNL1       -0.2048
     20 C           4.5930   -0.8130   29.8322 C.ar    1  UNL1        0.1674
     21 H           0.4095   -0.4114   29.1023 H       1  UNL1        0.1438
     22 H           0.5461   -0.1435   27.4238 H       1  UNL1        0.1438
     23 C           7.4396   -4.4543   25.9118 C.3     1  UNL1        0.1514
     24 C           6.8293   -3.9237   24.6485 C.3     1  UNL1        0.0326
     25 C           5.8305   -2.8063   24.7098 C.3     1  UNL1        0.0026
     26 C           6.0838   -1.5320   23.9601 C.3     1  UNL1        0.0001
     27 C           7.1516   -1.4804   22.9079 C.3     1  UNL1        0.0000
     28 C           6.8158   -1.8033   21.4821 C.3     1  UNL1        0.0000
     29 C           6.6348   -3.2311   21.0590 C.3     1  UNL1        0.0000
     30 C           5.2730   -3.8587   21.1007 C.3     1  UNL1        0.0000
     31 C           4.4429   -3.9331   19.8536 C.3     1  UNL1        0.0000
     32 C           5.0274   -3.5136   18.5374 C.3     1  UNL1        0.0000
     33 C           4.5876   -2.2310   17.8962 C.3     1  UNL1        0.0000
     34 C           5.3399   -0.9615   18.1652 C.3     1  UNL1        0.0000
     35 C           4.8163    0.3450   17.6465 C.3     1  UNL1        0.0000
     36 C           4.3231    1.3887   18.6043 C.3     1  UNL1        0.0000
     37 C           2.8987    1.8542   18.5380 C.3     1  UNL1        0.0000
     38 C           1.7949    0.8622   18.3194 C.3     1  UNL1        0.0000
     39 C           0.7944    0.6019   19.4062 C.3     1  UNL1        0.0000
     40 C           0.9776   -0.5652   20.3305 C.3     1  UNL1        0.0000
     41 C           3.0311   -0.9574   21.8731 C.3     1  UNL1        0.0000
     42 C           2.3456   -1.1396   20.5513 C.3     1  UNL1        0.0000
@<TRIPOS>BOND
     1    41    42    1
     2    42    40    1
     3    40    39    1
     4    39    38    1
     5    38    37    1
     6    37    36    1
     7    36    35    1
     8    35    34    1
     9    34    33    1
    10    33    32    1
    11    32    31    1
    12    31    30    1
    13    30    29    1
    14    29    28    1
    15    28    27    1
    16    27    26    1
    17    26    25    1
    18    25    24    1
    19    24    23    1
    20    23     1    1
    21     1     2    1
    22     2     3    2
    23     2     4    1
    24     2     6    1
    25     6     7    1
    26     7     8    1
    27     8     9    1
    28     8    10    1
    29    10    11    1
    30    11    12   ar
    31    12    13   ar
    32    13    14   ar
    33    14    15   ar
    34    15    16    1
    35    15    17   ar
    36    17    18   ar
    37    18    19   ar
    38    19    20   ar
    39    20    11   ar
    40    20    14   ar
    41     4     5    1
    42    16    21    1
    43    16    22    1
