@<TRIPOS>MOLECULE
*****
 28 31 0 0 0
SMALL
GASTEIGER

@<TRIPOS>ATOM
      1 N           4.9096    2.0080   18.5114 N.3     1  UNL1       -0.3205
      2 C           3.4365    1.7796   18.6781 C.3     1  UNL1        0.0766
      3 C           2.3685    2.8309   18.6144 C.3     1  UNL1        0.1079
      4 N           1.0447    2.1608   18.8348 N.pl3   1  UNL1       -0.2914
      5 C           1.2946    0.6953   19.0346 C.3     1  UNL1        0.0980
      6 C           2.7728    0.4597   18.9378 C.3     1  UNL1        0.0602
      7 H           5.0834    2.9993   18.3455 H       1  UNL1        0.1189
      8 H           5.2501    1.4656   17.7175 H       1  UNL1        0.1189
      9 C           3.4656   -0.8635   19.0764 C.ar    1  UNL1        0.0103
     10 C           3.4596   -1.5788   20.3948 C.ar    1  UNL1        0.0300
     11 C           4.1524   -2.9020   20.5334 C.ar    1  UNL1        0.1672
     12 F           4.1465   -3.6172   21.8519 F       1  UNL1       -0.2018
     13 C           4.8512   -3.5098   19.3535 C.ar    1  UNL1        0.1696
     14 F           5.5440   -4.8330   19.4921 F       1  UNL1       -0.2017
     15 C           4.8572   -2.7945   18.0350 C.ar    1  UNL1        0.0612
     16 C           4.1644   -1.4714   17.8965 C.ar    1  UNL1        0.1386
     17 F           4.1703   -0.7560   16.5780 F       1  UNL1       -0.2044
     18 C          -0.2939    2.8375   18.8522 C.ar    1  UNL1        0.1350
     19 C          -1.1241    2.8256   20.1014 C.ar    1  UNL1        0.0535
     20 C          -2.4627    3.5023   20.1188 C.ar    1  UNL1        0.0863
     21 N          -2.9711    4.1907   18.8869 N.ar    1  UNL1       -0.2239
     22 C          -2.1409    4.2026   17.6376 C.ar    1  UNL1        0.2000
     23 N          -0.8023    3.5259   17.6203 N.ar    1  UNL1       -0.2090
     24 C          -3.2929    3.4905   21.3680 C.ar    1  UNL1        0.0248
     25 C          -4.7340    3.0858   21.4652 C.ar    1  UNL1        0.0090
     26 C          -5.1595    3.2265   22.8966 C.ar    1  UNL1        0.0355
     27 S          -3.9813    3.7182   23.6843 S.2     1  UNL1       -0.0859
     28 C          -2.8278    3.8813   22.7395 C.ar    1  UNL1        0.0369
@<TRIPOS>BOND
     1     1     2    1
     2     2     3    1
     3     3     4    1
     4     4    18    1
     5    18    19   ar
     6    19    20   ar
     7    20    24    1
     8    24    25   ar
     9    25    26   ar
    10    26    27   ar
    11    27    28   ar
    12    20    21   ar
    13    21    22   ar
    14    22    23   ar
    15     4     5    1
    16     5     6    1
    17     6     9    1
    18     9    10   ar
    19    10    11   ar
    20    11    12    1
    21    11    13   ar
    22    13    14    1
    23    13    15   ar
    24    15    16   ar
    25    16    17    1
    26     6     2    1
    27    16     9   ar
    28    23    18   ar
    29    28    24   ar
    30     1     7    1
    31     1     8    1
@<TRIPOS>MOLECULE
*****
 28 31 0 0 0
SMALL
GASTEIGER

@<TRIPOS>ATOM
      1 N           0.5520    1.0804   18.1016 N.3     1  UNL1       -0.3205
      2 C           0.8061    1.0869   19.5799 C.3     1  UNL1        0.0766
      3 C           0.0083    1.8322   20.6084 C.3     1  UNL1        0.1079
      4 N           0.6118    1.5550   21.9534 N.pl3   1  UNL1       -0.2914
      5 C           1.7826    0.6384   21.7561 C.3     1  UNL1        0.0980
      6 C           1.9027    0.3490   20.2892 C.3     1  UNL1        0.0602
      7 H          -0.2563    1.6667   17.8930 H       1  UNL1        0.1189
      8 H           0.3685    0.1259   17.7923 H       1  UNL1        0.1189
      9 C           2.9377   -0.5248   19.6447 C.ar    1  UNL1        0.0103
     10 C           2.8824   -2.0126   19.8275 C.ar    1  UNL1        0.0300
     11 C           3.9174   -2.8863   19.1831 C.ar    1  UNL1        0.1672
     12 F           3.8622   -4.3741   19.3659 F       1  UNL1       -0.2018
     13 C           5.0076   -2.2723   18.3559 C.ar    1  UNL1        0.1696
     14 F           6.0426   -3.1461   17.7114 F       1  UNL1       -0.2017
     15 C           5.0629   -0.7845   18.1730 C.ar    1  UNL1        0.0612
     16 C           4.0279    0.0892   18.8175 C.ar    1  UNL1        0.1386
     17 F           4.0832    1.5771   18.6347 F       1  UNL1       -0.2044
     18 C           0.1292    2.0991   23.2654 C.ar    1  UNL1        0.1350
     19 C           0.3921    1.3423   24.5335 C.ar    1  UNL1        0.0535
     20 C          -0.0905    1.8863   25.8453 C.ar    1  UNL1        0.0863
     21 N          -0.8360    3.1871   25.8891 N.ar    1  UNL1       -0.2239
     22 C          -1.0990    3.9440   24.6211 C.ar    1  UNL1        0.2000
     23 N          -0.6164    3.3999   23.3092 N.ar    1  UNL1       -0.2090
     24 C           0.1725    1.1295   27.1135 C.ar    1  UNL1        0.0248
     25 C          -0.8634    0.4877   27.9882 C.ar    1  UNL1        0.0090
     26 C          -0.1586   -0.1568   29.1448 C.ar    1  UNL1        0.0355
     27 S           1.3129    0.0866   28.9850 S.2     1  UNL1       -0.0859
     28 C           1.5175    0.8816   27.7296 C.ar    1  UNL1        0.0369
@<TRIPOS>BOND
     1     1     2    1
     2     2     3    1
     3     3     4    1
     4     4    18    1
     5    18    19   ar
     6    19    20   ar
     7    20    24    1
     8    24    25   ar
     9    25    26   ar
    10    26    27   ar
    11    27    28   ar
    12    20    21   ar
    13    21    22   ar
    14    22    23   ar
    15     4     5    1
    16     5     6    1
    17     6     9    1
    18     9    10   ar
    19    10    11   ar
    20    11    12    1
    21    11    13   ar
    22    13    14    1
    23    13    15   ar
    24    15    16   ar
    25    16    17    1
    26     6     2    1
    27    16     9   ar
    28    23    18   ar
    29    28    24   ar
    30     1     7    1
    31     1     8    1
@<TRIPOS>MOLECULE
*****
 28 31 0 0 0
SMALL
GASTEIGER

@<TRIPOS>ATOM
      1 N           7.5296   -0.5786   20.5983 N.3     1  UNL1       -0.3205
      2 C           7.0518   -1.7977   21.3301 C.3     1  UNL1        0.0766
      3 C           7.9031   -2.7300   22.1401 C.3     1  UNL1        0.1079
      4 N           7.0162   -3.8069   22.6911 N.pl3   1  UNL1       -0.2914
      5 C           5.6168   -3.5403   22.2216 C.3     1  UNL1        0.0980
      6 C           5.6387   -2.2985   21.3805 C.3     1  UNL1        0.0602
      7 H           8.5351   -0.4733   20.7334 H       1  UNL1        0.1189
      8 H           7.0497    0.2453   20.9605 H       1  UNL1        0.1189
      9 C           4.4554   -1.6681   20.7079 C.ar    1  UNL1        0.0103
     10 C           4.4709   -1.4354   19.2261 C.ar    1  UNL1        0.0300
     11 C           3.2876   -0.8051   18.5534 C.ar    1  UNL1        0.1672
     12 F           3.3032   -0.5724   17.0717 F       1  UNL1       -0.2018
     13 C           2.0888   -0.4075   19.3626 C.ar    1  UNL1        0.1696
     14 F           0.9055    0.2228   18.6899 F       1  UNL1       -0.2017
     15 C           2.0733   -0.6402   20.8444 C.ar    1  UNL1        0.0612
     16 C           3.2565   -1.2705   21.5169 C.ar    1  UNL1        0.1386
     17 F           3.2411   -1.5032   22.9988 F       1  UNL1       -0.2044
     18 C           7.4522   -4.9500   23.5592 C.ar    1  UNL1        0.1350
     19 C           7.2968   -4.8625   25.0485 C.ar    1  UNL1        0.0535
     20 C           7.7328   -6.0054   25.9165 C.ar    1  UNL1        0.0863
     21 N           8.3243   -7.2359   25.2951 N.ar    1  UNL1       -0.2239
     22 C           8.4798   -7.3234   23.8058 C.ar    1  UNL1        0.2000
     23 N           8.0437   -6.1804   22.9378 N.ar    1  UNL1       -0.2090
     24 C           7.5774   -5.9180   27.4059 C.ar    1  UNL1        0.0248
     25 C           8.4430   -6.5989   28.4242 C.ar    1  UNL1        0.0090
     26 C           7.9296   -6.2359   29.7861 C.ar    1  UNL1        0.0355
     27 S           6.7466   -5.3307   29.6094 S.2     1  UNL1       -0.0859
     28 C           6.5289   -5.1342   28.1384 C.ar    1  UNL1        0.0369
@<TRIPOS>BOND
     1     1     2    1
     2     2     3    1
     3     3     4    1
     4     4    18    1
     5    18    19   ar
     6    19    20   ar
     7    20    24    1
     8    24    25   ar
     9    25    26   ar
    10    26    27   ar
    11    27    28   ar
    12    20    21   ar
    13    21    22   ar
    14    22    23   ar
    15     4     5    1
    16     5     6    1
    17     6     9    1
    18     9    10   ar
    19    10    11   ar
    20    11    12    1
    21    11    13   ar
    22    13    14    1
    23    13    15   ar
    24    15    16   ar
    25    16    17    1
    26     6     2    1
    27    16     9   ar
    28    23    18   ar
    29    28    24   ar
    30     1     7    1
    31     1     8    1
@<TRIPOS>MOLECULE
*****
 28 31 0 0 0
SMALL
GASTEIGER

@<TRIPOS>ATOM
      1 N           7.3184   -1.4274   26.2335 N.3     1  UNL1       -0.3205
      2 C           6.7646   -2.3311   25.1720 C.3     1  UNL1        0.0766
      3 C           6.1006   -1.8937   23.9001 C.3     1  UNL1        0.1079
      4 N           5.7032   -3.1231   23.1381 N.pl3   1  UNL1       -0.2914
      5 C           6.1217   -4.3204   23.9391 C.3     1  UNL1        0.0980
      6 C           6.7777   -3.8309   25.1961 C.3     1  UNL1        0.0602
      7 H           7.1756   -0.4550   25.9605 H       1  UNL1        0.1189
      8 H           8.3164   -1.6061   26.3454 H       1  UNL1        0.1189
      9 C           7.3468   -4.6903   26.2859 C.ar    1  UNL1        0.0103
     10 C           6.6202   -4.8253   27.5911 C.ar    1  UNL1        0.0300
     11 C           7.1893   -5.6847   28.6809 C.ar    1  UNL1        0.1672
     12 F           6.4627   -5.8197   29.9862 F       1  UNL1       -0.2018
     13 C           8.4849   -6.4090   28.4654 C.ar    1  UNL1        0.1696
     14 F           9.0540   -7.2683   29.5552 F       1  UNL1       -0.2017
     15 C           9.2116   -6.2739   27.1600 C.ar    1  UNL1        0.0612
     16 C           8.6425   -5.4146   26.0704 C.ar    1  UNL1        0.1386
     17 F           9.3691   -5.2795   24.7649 F       1  UNL1       -0.2044
     18 C           5.0092   -3.1505   21.8085 C.ar    1  UNL1        0.1350
     19 C           4.0798   -2.0376   21.4246 C.ar    1  UNL1        0.0535
     20 C           3.3858   -2.0650   20.0951 C.ar    1  UNL1        0.0863
     21 N           3.6214   -3.2053   19.1495 N.ar    1  UNL1       -0.2239
     22 C           4.5509   -4.3182   19.5334 C.ar    1  UNL1        0.2000
     23 N           5.2448   -4.2908   20.8629 N.ar    1  UNL1       -0.2090
     24 C           2.4563   -0.9520   19.7111 C.ar    1  UNL1        0.0248
     25 C           1.1623   -0.6107   20.3886 C.ar    1  UNL1        0.0090
     26 C           0.5638    0.5672   19.6785 C.ar    1  UNL1        0.0355
     27 S           1.4880    0.9539   18.5620 S.2     1  UNL1       -0.0859
     28 C           2.6576    0.0150   18.5823 C.ar    1  UNL1        0.0369
@<TRIPOS>BOND
     1     1     2    1
     2     2     3    1
     3     3     4    1
     4     4    18    1
     5    18    19   ar
     6    19    20   ar
     7    20    24    1
     8    24    25   ar
     9    25    26   ar
    10    26    27   ar
    11    27    28   ar
    12    20    21   ar
    13    21    22   ar
    14    22    23   ar
    15     4     5    1
    16     5     6    1
    17     6     9    1
    18     9    10   ar
    19    10    11   ar
    20    11    12    1
    21    11    13   ar
    22    13    14    1
    23    13    15   ar
    24    15    16   ar
    25    16    17    1
    26     6     2    1
    27    16     9   ar
    28    23    18   ar
    29    28    24   ar
    30     1     7    1
    31     1     8    1
@<TRIPOS>MOLECULE
*****
 28 31 0 0 0
SMALL
GASTEIGER

@<TRIPOS>ATOM
      1 N         -10.2355   -4.7333   19.3201 N.3     1  UNL1       -0.3205
      2 C         -11.3173   -3.8080   18.8474 C.3     1  UNL1        0.0766
      3 C         -11.2272   -2.3127   18.7704 C.3     1  UNL1        0.1079
      4 N         -12.5333   -1.7960   18.2441 N.pl3   1  UNL1       -0.2914
      5 C         -13.4307   -2.9720   17.9957 C.3     1  UNL1        0.0980
      6 C         -12.6792   -4.2155   18.3685 C.3     1  UNL1        0.0602
      7 H          -9.4150   -4.1891   19.5865 H       1  UNL1        0.1189
      8 H          -9.9871   -5.3776   18.5694 H       1  UNL1        0.1189
      9 C         -13.1984   -5.6199   18.2783 C.ar    1  UNL1        0.0103
     10 C         -14.3619   -6.0451   19.1242 C.ar    1  UNL1        0.0300
     11 C         -14.8811   -7.4495   19.0340 C.ar    1  UNL1        0.1672
     12 F         -16.0446   -7.8748   19.8798 F       1  UNL1       -0.2018
     13 C         -14.2367   -8.4286   18.0980 C.ar    1  UNL1        0.1696
     14 F         -14.7559   -9.8330   18.0079 F       1  UNL1       -0.2017
     15 C         -13.0732   -8.0034   17.2521 C.ar    1  UNL1        0.0612
     16 C         -12.5541   -6.5990   17.3424 C.ar    1  UNL1        0.1386
     17 F         -11.3905   -6.1737   16.4965 F       1  UNL1       -0.2044
     18 C         -12.8810   -0.3561   18.0076 C.ar    1  UNL1        0.1350
     19 C         -14.1269    0.2232   18.6095 C.ar    1  UNL1        0.0535
     20 C         -14.4745    1.6631   18.3731 C.ar    1  UNL1        0.0863
     21 N         -13.5763    2.5236   17.5347 N.ar    1  UNL1       -0.2239
     22 C         -12.3305    1.9443   16.9328 C.ar    1  UNL1        0.2000
     23 N         -11.9829    0.5044   17.1693 N.ar    1  UNL1       -0.2090
     24 C         -15.7204    2.2425   18.9749 C.ar    1  UNL1        0.0248
     25 C         -15.7821    3.1675   20.1541 C.ar    1  UNL1        0.0090
     26 C         -17.2231    3.4952   20.4113 C.ar    1  UNL1        0.0355
     27 S         -18.0520    2.7728   19.3909 S.2     1  UNL1       -0.0859
     28 C         -17.1232    1.9985   18.5032 C.ar    1  UNL1        0.0369
@<TRIPOS>BOND
     1     1     2    1
     2     2     3    1
     3     3     4    1
     4     4    18    1
     5    18    19   ar
     6    19    20   ar
     7    20    24    1
     8    24    25   ar
     9    25    26   ar
    10    26    27   ar
    11    27    28   ar
    12    20    21   ar
    13    21    22   ar
    14    22    23   ar
    15     4     5    1
    16     5     6    1
    17     6     9    1
    18     9    10   ar
    19    10    11   ar
    20    11    12    1
    21    11    13   ar
    22    13    14    1
    23    13    15   ar
    24    15    16   ar
    25    16    17    1
    26     6     2    1
    27    16     9   ar
    28    23    18   ar
    29    28    24   ar
    30     1     7    1
    31     1     8    1
@<TRIPOS>MOLECULE
*****
 28 31 0 0 0
SMALL
GASTEIGER

@<TRIPOS>ATOM
      1 N           6.7726   -6.0689   31.9953 N.3     1  UNL1       -0.3205
      2 C           6.8895   -5.3625   30.6772 C.3     1  UNL1        0.0766
      3 C           7.0426   -6.0174   29.3364 C.3     1  UNL1        0.1079
      4 N           7.1216   -4.9368   28.2990 N.pl3   1  UNL1       -0.2914
      5 C           7.0173   -3.6141   28.9987 C.3     1  UNL1        0.0980
      6 C           6.8739   -3.8771   30.4684 C.3     1  UNL1        0.0602
      7 H           6.8130   -7.0770   31.8455 H       1  UNL1        0.1189
      8 H           5.8844   -5.8256   32.4338 H       1  UNL1        0.1189
      9 C           6.7385   -2.8374   31.5411 C.ar    1  UNL1        0.0103
     10 C           5.4315   -2.6633   32.2562 C.ar    1  UNL1        0.0300
     11 C           5.2962   -1.6235   33.3289 C.ar    1  UNL1        0.1672
     12 F           3.9892   -1.4494   34.0440 F       1  UNL1       -0.2018
     13 C           6.4679   -0.7580   33.6865 C.ar    1  UNL1        0.1696
     14 F           6.3326    0.2817   34.7592 F       1  UNL1       -0.2017
     15 C           7.7750   -0.9322   32.9714 C.ar    1  UNL1        0.0612
     16 C           7.9102   -1.9718   31.8988 C.ar    1  UNL1        0.1386
     17 F           9.2173   -2.1460   31.1836 F       1  UNL1       -0.2044
     18 C           7.2774   -5.1428   26.8214 C.ar    1  UNL1        0.1350
     19 C           6.5567   -4.2460   25.8590 C.ar    1  UNL1        0.0535
     20 C           6.7127   -4.4521   24.3814 C.ar    1  UNL1        0.0863
     21 N           7.5892   -5.5549   23.8663 N.ar    1  UNL1       -0.2239
     22 C           8.3099   -6.4517   24.8287 C.ar    1  UNL1        0.2000
     23 N           8.1540   -6.2456   26.3063 N.ar    1  UNL1       -0.2090
     24 C           5.9919   -3.5553   23.4189 C.ar    1  UNL1        0.0248
     25 C           4.8006   -2.6999   23.7337 C.ar    1  UNL1        0.0090
     26 C           4.4085   -1.9724   22.4820 C.ar    1  UNL1        0.0355
     27 S           5.3575   -2.3781   21.3934 S.2     1  UNL1       -0.0859
     28 C           6.3361   -3.3564   21.9725 C.ar    1  UNL1        0.0369
@<TRIPOS>BOND
     1     1     2    1
     2     2     3    1
     3     3     4    1
     4     4    18    1
     5    18    19   ar
     6    19    20   ar
     7    20    24    1
     8    24    25   ar
     9    25    26   ar
    10    26    27   ar
    11    27    28   ar
    12    20    21   ar
    13    21    22   ar
    14    22    23   ar
    15     4     5    1
    16     5     6    1
    17     6     9    1
    18     9    10   ar
    19    10    11   ar
    20    11    12    1
    21    11    13   ar
    22    13    14    1
    23    13    15   ar
    24    15    16   ar
    25    16    17    1
    26     6     2    1
    27    16     9   ar
    28    23    18   ar
    29    28    24   ar
    30     1     7    1
    31     1     8    1
@<TRIPOS>MOLECULE
*****
 28 31 0 0 0
SMALL
GASTEIGER

@<TRIPOS>ATOM
      1 N           3.6048    2.2002   22.0793 N.3     1  UNL1       -0.3205
      2 C           2.1798    2.0408   21.6390 C.3     1  UNL1        0.0766
      3 C           1.0162    2.8661   22.1025 C.3     1  UNL1        0.1079
      4 N          -0.2146    2.3634   21.4078 N.pl3   1  UNL1       -0.2914
      5 C           0.1884    1.2274   20.5150 C.3     1  UNL1        0.0980
      6 C           1.6682    1.0280   20.6578 C.3     1  UNL1        0.0602
      7 H           3.6695    2.9646   22.7515 H       1  UNL1        0.1189
      8 H           4.1895    2.4088   21.2699 H       1  UNL1        0.1189
      9 C           2.4918   -0.0031   19.9448 C.ar    1  UNL1        0.0103
     10 C           2.7770    0.1467   18.4798 C.ar    1  UNL1        0.0300
     11 C           3.6006   -0.8844   17.7667 C.ar    1  UNL1        0.1672
     12 F           3.8859   -0.7345   16.3018 F       1  UNL1       -0.2018
     13 C           4.1389   -2.0653   18.5186 C.ar    1  UNL1        0.1696
     14 F           4.9625   -3.0965   17.8056 F       1  UNL1       -0.2017
     15 C           3.8537   -2.2153   19.9837 C.ar    1  UNL1        0.0612
     16 C           3.0301   -1.1842   20.6966 C.ar    1  UNL1        0.1386
     17 F           2.7448   -1.3340   22.1617 F       1  UNL1       -0.2044
     18 C          -1.6043    2.9022   21.5764 C.ar    1  UNL1        0.1350
     19 C          -2.0945    3.3001   22.9371 C.ar    1  UNL1        0.0535
     20 C          -3.4842    3.8388   23.1056 C.ar    1  UNL1        0.0863
     21 N          -4.3837    3.9796   21.9135 N.ar    1  UNL1       -0.2239
     22 C          -3.8936    3.5817   20.5529 C.ar    1  UNL1        0.2000
     23 N          -2.5039    3.0430   20.3844 N.ar    1  UNL1       -0.2090
     24 C          -3.9745    4.2368   24.4663 C.ar    1  UNL1        0.0248
     25 C          -3.3613    3.8380   25.7758 C.ar    1  UNL1        0.0090
     26 C          -4.1718    4.4582   26.8751 C.ar    1  UNL1        0.0355
     27 S          -5.2860    5.2403   26.2449 S.2     1  UNL1       -0.0859
     28 C          -5.1640    5.1034   24.7562 C.ar    1  UNL1        0.0369
@<TRIPOS>BOND
     1     1     2    1
     2     2     3    1
     3     3     4    1
     4     4    18    1
     5    18    19   ar
     6    19    20   ar
     7    20    24    1
     8    24    25   ar
     9    25    26   ar
    10    26    27   ar
    11    27    28   ar
    12    20    21   ar
    13    21    22   ar
    14    22    23   ar
    15     4     5    1
    16     5     6    1
    17     6     9    1
    18     9    10   ar
    19    10    11   ar
    20    11    12    1
    21    11    13   ar
    22    13    14    1
    23    13    15   ar
    24    15    16   ar
    25    16    17    1
    26     6     2    1
    27    16     9   ar
    28    23    18   ar
    29    28    24   ar
    30     1     7    1
    31     1     8    1
@<TRIPOS>MOLECULE
*****
 28 31 0 0 0
SMALL
GASTEIGER

@<TRIPOS>ATOM
      1 N           5.9087   -0.1352   23.4938 N.3     1  UNL1       -0.3205
      2 C           6.0909   -1.6237   23.4607 C.3     1  UNL1        0.0766
      3 C           6.6963   -2.4623   24.5470 C.3     1  UNL1        0.1079
      4 N           6.6793   -3.8919   24.0931 N.pl3   1  UNL1       -0.2914
      5 C           6.0632   -3.9368   22.7262 C.3     1  UNL1        0.0980
      6 C           5.6996   -2.5350   22.3353 C.3     1  UNL1        0.0602
      7 H           6.2623    0.2310   24.3777 H       1  UNL1        0.1189
      8 H           4.9173    0.0881   23.4056 H       1  UNL1        0.1189
      9 C           5.0574   -2.1178   21.0455 C.ar    1  UNL1        0.0103
     10 C           3.6059   -1.7404   21.0180 C.ar    1  UNL1        0.0300
     11 C           2.9638   -1.3231   19.7282 C.ar    1  UNL1        0.1672
     12 F           1.5123   -0.9457   19.7008 F       1  UNL1       -0.2018
     13 C           3.7731   -1.2834   18.4660 C.ar    1  UNL1        0.1696
     14 F           3.1309   -0.8662   17.1762 F       1  UNL1       -0.2017
     15 C           5.2246   -1.6609   18.4934 C.ar    1  UNL1        0.0612
     16 C           5.8667   -2.0780   19.7831 C.ar    1  UNL1        0.1386
     17 F           7.3182   -2.4555   19.8107 F       1  UNL1       -0.2044
     18 C           7.1888   -5.0697   24.8697 C.ar    1  UNL1        0.1350
     19 C           7.2403   -5.0147   26.3678 C.ar    1  UNL1        0.0535
     20 C           7.7498   -6.1925   27.1444 C.ar    1  UNL1        0.0863
     21 N           8.2078   -7.4253   26.4229 N.ar    1  UNL1       -0.2239
     22 C           8.1563   -7.4803   24.9249 C.ar    1  UNL1        0.2000
     23 N           7.6468   -6.3025   24.1483 N.ar    1  UNL1       -0.2090
     24 C           7.8013   -6.1376   28.6426 C.ar    1  UNL1        0.0248
     25 C           8.8822   -6.7126   29.5093 C.ar    1  UNL1        0.0090
     26 C           8.5299   -6.4284   30.9393 C.ar    1  UNL1        0.0355
     27 S           7.2313   -5.6777   30.9565 S.2     1  UNL1       -0.0859
     28 C           6.7811   -5.4980   29.5370 C.ar    1  UNL1        0.0369
@<TRIPOS>BOND
     1     1     2    1
     2     2     3    1
     3     3     4    1
     4     4    18    1
     5    18    19   ar
     6    19    20   ar
     7    20    24    1
     8    24    25   ar
     9    25    26   ar
    10    26    27   ar
    11    27    28   ar
    12    20    21   ar
    13    21    22   ar
    14    22    23   ar
    15     4     5    1
    16     5     6    1
    17     6     9    1
    18     9    10   ar
    19    10    11   ar
    20    11    12    1
    21    11    13   ar
    22    13    14    1
    23    13    15   ar
    24    15    16   ar
    25    16    17    1
    26     6     2    1
    27    16     9   ar
    28    23    18   ar
    29    28    24   ar
    30     1     7    1
    31     1     8    1
@<TRIPOS>MOLECULE
*****
 28 31 0 0 0
SMALL
GASTEIGER

@<TRIPOS>ATOM
      1 N           7.7760   -3.0298   20.5056 N.3     1  UNL1       -0.3205
      2 C           7.2364   -3.5929   21.7868 C.3     1  UNL1        0.0766
      3 C           8.0128   -4.3810   22.7997 C.3     1  UNL1        0.1079
      4 N           7.0818   -4.7420   23.9191 N.pl3   1  UNL1       -0.2914
      5 C           5.7299   -4.1770   23.5980 C.3     1  UNL1        0.0980
      6 C           5.8254   -3.4668   22.2802 C.3     1  UNL1        0.0602
      7 H           8.7651   -3.2644   20.4210 H       1  UNL1        0.1189
      8 H           7.6660   -2.0158   20.5069 H       1  UNL1        0.1189
      9 C           4.7064   -2.7555   21.5789 C.ar    1  UNL1        0.0103
     10 C           4.0001   -1.6181   22.2553 C.ar    1  UNL1        0.0300
     11 C           2.8811   -0.9068   21.5539 C.ar    1  UNL1        0.1672
     12 F           2.1748    0.2306   22.2303 F       1  UNL1       -0.2018
     13 C           2.4685   -1.3328   20.1762 C.ar    1  UNL1        0.1696
     14 F           1.3495   -0.6214   19.4749 F       1  UNL1       -0.2017
     15 C           3.1748   -2.4702   19.4998 C.ar    1  UNL1        0.0612
     16 C           4.2937   -3.1815   20.2011 C.ar    1  UNL1        0.1386
     17 F           5.0001   -4.3189   19.5247 F       1  UNL1       -0.2044
     18 C           7.4399   -5.5296   25.1444 C.ar    1  UNL1        0.1350
     19 C           7.1675   -4.9631   26.5063 C.ar    1  UNL1        0.0535
     20 C           7.5256   -5.7508   27.7316 C.ar    1  UNL1        0.0863
     21 N           8.1560   -7.1050   27.5949 N.ar    1  UNL1       -0.2239
     22 C           8.4284   -7.6715   26.2330 C.ar    1  UNL1        0.2000
     23 N           8.0703   -6.8838   25.0078 N.ar    1  UNL1       -0.2090
     24 C           7.2532   -5.1843   29.0936 C.ar    1  UNL1        0.0248
     25 C           7.3929   -5.9146   30.3963 C.ar    1  UNL1        0.0090
     26 C           7.0194   -4.9697   31.4998 C.ar    1  UNL1        0.0355
     27 S           6.6487   -3.6554   30.8790 S.2     1  UNL1       -0.0859
     28 C           6.7932   -3.7881   29.3919 C.ar    1  UNL1        0.0369
@<TRIPOS>BOND
     1     1     2    1
     2     2     3    1
     3     3     4    1
     4     4    18    1
     5    18    19   ar
     6    19    20   ar
     7    20    24    1
     8    24    25   ar
     9    25    26   ar
    10    26    27   ar
    11    27    28   ar
    12    20    21   ar
    13    21    22   ar
    14    22    23   ar
    15     4     5    1
    16     5     6    1
    17     6     9    1
    18     9    10   ar
    19    10    11   ar
    20    11    12    1
    21    11    13   ar
    22    13    14    1
    23    13    15   ar
    24    15    16   ar
    25    16    17    1
    26     6     2    1
    27    16     9   ar
    28    23    18   ar
    29    28    24   ar
    30     1     7    1
    31     1     8    1
