@<TRIPOS>MOLECULE
*****
 26 28 0 0 0
SMALL
GASTEIGER

@<TRIPOS>ATOM
      1 C          -9.1022  -19.0122   20.8959 C.2     1  UNL1        0.2685
      2 O          -9.0112  -20.0070   19.7770 O.2     1  UNL1       -0.2682
      3 N          -8.1257  -19.0710   22.0331 N.am    1  UNL1       -0.2723
      4 C          -8.2168  -18.0761   23.1520 C.3     1  UNL1        0.0761
      5 C          -7.4729  -16.7767   23.0626 C.3     1  UNL1        0.0212
      6 C          -7.5640  -15.7818   24.1815 C.3     1  UNL1        0.0172
      7 C          -8.3989  -16.0865   25.3898 C.3     1  UNL1        0.0509
      8 N          -8.4899  -15.0916   26.5088 N.3     1  UNL1       -0.3222
      9 C          -9.1428  -17.3859   25.4793 C.3     1  UNL1        0.0172
     10 C          -9.0517  -18.3807   24.3604 C.3     1  UNL1        0.0212
     11 H          -7.9262  -14.2723   26.2820 H       1  UNL1        0.1188
     12 H          -8.1433  -15.5152   27.3695 H       1  UNL1        0.1188
     13 C         -13.0312  -15.8177   22.3924 C.3     1  UNL1        0.1321
     14 N         -11.9756  -16.4902   21.5656 N.ar    1  UNL1       -0.3057
     15 C         -11.6490  -16.1840   20.1340 C.ar    1  UNL1        0.1787
     16 N         -10.5328  -17.0915   19.7089 N.ar    1  UNL1       -0.2192
     17 C         -10.1697  -17.9585   20.8777 C.ar    1  UNL1        0.1535
     18 C         -11.0613  -17.5870   22.0253 C.ar    1  UNL1        0.1012
     19 C          -7.0583  -20.1246   22.0513 C.3     1  UNL1        0.1204
     20 C          -5.6728  -19.7969   21.5790 C.ar    1  UNL1       -0.0015
     21 C          -5.2140  -20.2536   20.2260 C.ar    1  UNL1       -0.0026
     22 C          -3.8285  -19.9259   19.7537 C.ar    1  UNL1        0.0006
     23 C          -2.9018  -19.1414   20.6346 C.ar    1  UNL1        0.0114
     24 C          -3.3606  -18.6847   21.9876 C.ar    1  UNL1        0.0574
     25 CL         -2.4340  -17.9002   22.8685 Cl      1  UNL1       -0.0823
     26 C          -4.7461  -19.0124   22.4599 C.ar    1  UNL1        0.0088
@<TRIPOS>BOND
     1    13    14    1
     2    14    15   ar
     3    15    16   ar
     4    16    17   ar
     5    17     1    1
     6     1     2    2
     7     1     3   am
     8     3    19    1
     9    19    20    1
    10    20    21   ar
    11    21    22   ar
    12    22    23   ar
    13    23    24   ar
    14    24    25    1
    15    24    26   ar
    16     4     3    1
    17     4     5    1
    18     5     6    1
    19     6     7    1
    20     7     8    1
    21     7     9    1
    22     9    10    1
    23    17    18   ar
    24    18    14   ar
    25    26    20   ar
    26    10     4    1
    27     8    11    1
    28     8    12    1
@<TRIPOS>MOLECULE
*****
 26 28 0 0 0
SMALL
GASTEIGER

@<TRIPOS>ATOM
      1 C          -5.7931  -20.3444   20.7913 C.2     1  UNL1        0.2685
      2 O          -6.2369  -21.5821   20.0696 O.2     1  UNL1       -0.2682
      3 N          -6.7035  -19.6902   21.7880 N.am    1  UNL1       -0.2723
      4 C          -6.2596  -18.4524   22.5097 C.3     1  UNL1        0.0761
      5 C          -4.8419  -18.3283   22.9837 C.3     1  UNL1        0.0212
      6 C          -4.3982  -17.0905   23.7055 C.3     1  UNL1        0.0172
      7 C          -5.3721  -15.9769   23.9532 C.3     1  UNL1        0.0509
      8 N          -4.9282  -14.7391   24.6750 N.3     1  UNL1       -0.3222
      9 C          -6.7898  -16.1010   23.4792 C.3     1  UNL1        0.0172
     10 C          -7.2335  -17.3388   22.7575 C.3     1  UNL1        0.0212
     11 H          -3.9424  -14.8247   24.9223 H       1  UNL1        0.1188
     12 H          -5.4827  -14.6228   25.5232 H       1  UNL1        0.1188
     13 C          -1.8995  -17.4598   18.6936 C.3     1  UNL1        0.1321
     14 N          -2.6492  -18.4348   19.5523 N.ar    1  UNL1       -0.3057
     15 C          -2.0608  -19.2904   20.6348 C.ar    1  UNL1        0.1787
     16 N          -3.1668  -20.1098   21.2307 N.ar    1  UNL1       -0.2192
     17 C          -4.4388  -19.7607   20.5165 C.ar    1  UNL1        0.1535
     18 C          -4.1190  -18.7256   19.4791 C.ar    1  UNL1        0.1012
     19 C          -8.0577  -20.2738   22.0628 C.3     1  UNL1        0.1204
     20 C          -9.2921  -19.5459   21.6195 C.ar    1  UNL1       -0.0015
     21 C          -9.4598  -19.1620   20.1792 C.ar    1  UNL1       -0.0026
     22 C         -10.6942  -18.4342   19.7359 C.ar    1  UNL1        0.0006
     23 C         -11.7609  -18.0903   20.7329 C.ar    1  UNL1        0.0114
     24 C         -11.5931  -18.4743   22.1732 C.ar    1  UNL1        0.0574
     25 CL        -12.6598  -18.1304   23.1702 Cl      1  UNL1       -0.0823
     26 C         -10.3588  -19.2021   22.6165 C.ar    1  UNL1        0.0088
@<TRIPOS>BOND
     1    13    14    1
     2    14    15   ar
     3    15    16   ar
     4    16    17   ar
     5    17     1    1
     6     1     2    2
     7     1     3   am
     8     3    19    1
     9    19    20    1
    10    20    21   ar
    11    21    22   ar
    12    22    23   ar
    13    23    24   ar
    14    24    25    1
    15    24    26   ar
    16     4     3    1
    17     4     5    1
    18     5     6    1
    19     6     7    1
    20     7     8    1
    21     7     9    1
    22     9    10    1
    23    17    18   ar
    24    18    14   ar
    25    26    20   ar
    26    10     4    1
    27     8    11    1
    28     8    12    1
@<TRIPOS>MOLECULE
*****
 26 28 0 0 0
SMALL
GASTEIGER

@<TRIPOS>ATOM
      1 C          -5.4111  -20.2139   20.7255 C.2     1  UNL1        0.2685
      2 O          -5.7042  -21.5186   20.0460 O.2     1  UNL1       -0.2682
      3 N          -6.2529  -19.7654   21.8832 N.am    1  UNL1       -0.2723
      4 C          -5.9597  -18.4606   22.5627 C.3     1  UNL1        0.0761
      5 C          -7.0336  -17.4205   22.6844 C.3     1  UNL1        0.0212
      6 C          -6.7403  -16.1158   23.3639 C.3     1  UNL1        0.0172
      7 C          -5.3732  -15.8512   23.9216 C.3     1  UNL1        0.0509
      8 N          -5.0800  -14.5464   24.6011 N.3     1  UNL1       -0.3222
      9 C          -4.2994  -16.8913   23.7998 C.3     1  UNL1        0.0172
     10 C          -4.5926  -18.1960   23.1204 C.3     1  UNL1        0.0212
     11 H          -5.9171  -13.9636   24.5937 H       1  UNL1        0.1188
     12 H          -4.3277  -14.0671   24.1065 H       1  UNL1        0.1188
     13 C          -0.5621  -18.2637   19.9738 C.3     1  UNL1        0.1321
     14 N          -2.0472  -18.4612   19.9018 N.ar    1  UNL1       -0.3057
     15 C          -3.0119  -17.6185   19.1211 C.ar    1  UNL1        0.1787
     16 N          -4.3894  -18.1725   19.3346 N.ar    1  UNL1       -0.2192
     17 C          -4.2761  -19.3575   20.2472 C.ar    1  UNL1        0.1535
     18 C          -2.8286  -19.5360   20.5978 C.ar    1  UNL1        0.1012
     19 C          -7.3878  -20.6216   22.3614 C.3     1  UNL1        0.1204
     20 C          -8.7539  -20.0272   22.5363 C.ar    1  UNL1       -0.0015
     21 C          -9.4305  -20.0829   23.8738 C.ar    1  UNL1       -0.0026
     22 C         -10.7965  -19.4884   24.0486 C.ar    1  UNL1        0.0006
     23 C         -11.4859  -18.8383   22.8859 C.ar    1  UNL1        0.0114
     24 C         -10.8094  -18.7826   21.5483 C.ar    1  UNL1        0.0574
     25 CL        -11.4988  -18.1325   20.3856 Cl      1  UNL1       -0.0823
     26 C          -9.4433  -19.3770   21.3735 C.ar    1  UNL1        0.0088
@<TRIPOS>BOND
     1    13    14    1
     2    14    15   ar
     3    15    16   ar
     4    16    17   ar
     5    17     1    1
     6     1     2    2
     7     1     3   am
     8     3    19    1
     9    19    20    1
    10    20    21   ar
    11    21    22   ar
    12    22    23   ar
    13    23    24   ar
    14    24    25    1
    15    24    26   ar
    16     4     3    1
    17     4     5    1
    18     5     6    1
    19     6     7    1
    20     7     8    1
    21     7     9    1
    22     9    10    1
    23    17    18   ar
    24    18    14   ar
    25    26    20   ar
    26    10     4    1
    27     8    11    1
    28     8    12    1
@<TRIPOS>MOLECULE
*****
 26 28 0 0 0
SMALL
GASTEIGER

@<TRIPOS>ATOM
      1 C          -7.1664  -19.6332   20.5492 C.2     1  UNL1        0.2685
      2 O          -7.3418  -20.6352   19.4469 O.2     1  UNL1       -0.2682
      3 N          -8.3637  -18.9442   21.1340 N.am    1  UNL1       -0.2723
      4 C          -8.1883  -17.9422   22.2364 C.3     1  UNL1        0.0761
      5 C          -7.5761  -16.6045   21.9435 C.3     1  UNL1        0.0212
      6 C          -7.4007  -15.6025   23.0459 C.3     1  UNL1        0.0172
      7 C          -7.8375  -15.9382   24.4411 C.3     1  UNL1        0.0509
      8 N          -7.6621  -14.9361   25.5434 N.3     1  UNL1       -0.3222
      9 C          -8.4497  -17.2759   24.7339 C.3     1  UNL1        0.0172
     10 C          -8.6251  -18.2779   23.6315 C.3     1  UNL1        0.0212
     11 H          -7.2341  -14.0896   25.1685 H       1  UNL1        0.1188
     12 H          -7.0609  -15.3291   26.2676 H       1  UNL1        0.1188
     13 C          -2.0834  -18.2202   20.7682 C.3     1  UNL1        0.1321
     14 N          -3.4574  -18.6706   21.1675 N.ar    1  UNL1       -0.3057
     15 C          -3.9057  -19.0058   22.5591 C.ar    1  UNL1        0.1787
     16 N          -5.3496  -19.4072   22.4969 N.ar    1  UNL1       -0.2192
     17 C          -5.7938  -19.3200   21.0668 C.ar    1  UNL1        0.1535
     18 C          -4.6244  -18.8648   20.2451 C.ar    1  UNL1        0.1012
     19 C          -9.7363  -19.2573   20.6164 C.3     1  UNL1        0.1204
     20 C         -10.8843  -18.3462   20.9361 C.ar    1  UNL1       -0.0015
     21 C         -11.1796  -17.1726   20.0499 C.ar    1  UNL1       -0.0026
     22 C         -12.3275  -16.2616   20.3696 C.ar    1  UNL1        0.0006
     23 C         -13.1801  -16.5242   21.5755 C.ar    1  UNL1        0.0114
     24 C         -12.8848  -17.6978   22.4617 C.ar    1  UNL1        0.0574
     25 CL        -13.7374  -17.9604   23.6675 Cl      1  UNL1       -0.0823
     26 C         -11.7369  -18.6088   22.1420 C.ar    1  UNL1        0.0088
@<TRIPOS>BOND
     1    13    14    1
     2    14    15   ar
     3    15    16   ar
     4    16    17   ar
     5    17     1    1
     6     1     2    2
     7     1     3   am
     8     3    19    1
     9    19    20    1
    10    20    21   ar
    11    21    22   ar
    12    22    23   ar
    13    23    24   ar
    14    24    25    1
    15    24    26   ar
    16     4     3    1
    17     4     5    1
    18     5     6    1
    19     6     7    1
    20     7     8    1
    21     7     9    1
    22     9    10    1
    23    17    18   ar
    24    18    14   ar
    25    26    20   ar
    26    10     4    1
    27     8    11    1
    28     8    12    1
@<TRIPOS>MOLECULE
*****
 26 28 0 0 0
SMALL
GASTEIGER

@<TRIPOS>ATOM
      1 C          -6.3370  -20.2732   21.4279 C.2     1  UNL1        0.2685
      2 O          -5.9925  -21.5318   20.6883 O.2     1  UNL1       -0.2682
      3 N          -5.2451  -19.3755   21.9299 N.am    1  UNL1       -0.2723
      4 C          -5.5897  -18.1167   22.6695 C.3     1  UNL1        0.0761
      5 C          -4.5722  -17.4680   23.5605 C.3     1  UNL1        0.0212
      6 C          -4.9168  -16.2093   24.3001 C.3     1  UNL1        0.0172
      7 C          -6.2789  -15.5995   24.1487 C.3     1  UNL1        0.0509
      8 N          -6.6234  -14.3407   24.8883 N.3     1  UNL1       -0.3222
      9 C          -7.2963  -16.2482   23.2577 C.3     1  UNL1        0.0172
     10 C          -6.9517  -17.5069   22.5182 C.3     1  UNL1        0.0212
     11 H          -5.8208  -14.0410   25.4418 H       1  UNL1        0.1188
     12 H          -7.4161  -14.5155   25.5060 H       1  UNL1        0.1188
     13 C         -11.2524  -18.4864   20.7015 C.3     1  UNL1        0.1321
     14 N         -10.0328  -19.0908   21.3317 N.ar    1  UNL1       -0.3057
     15 C          -9.9348  -19.6224   22.7310 C.ar    1  UNL1        0.1787
     16 N          -8.5385  -20.1299   22.9373 N.ar    1  UNL1       -0.2192
     17 C          -7.7734  -19.9121   21.6656 C.ar    1  UNL1        0.1535
     18 C          -8.6969  -19.2699   20.6732 C.ar    1  UNL1        0.1012
     19 C          -3.8088  -19.7364   21.6922 C.3     1  UNL1        0.1204
     20 C          -3.0079  -18.9907   20.6662 C.ar    1  UNL1       -0.0015
     21 C          -3.6462  -18.5741   19.3743 C.ar    1  UNL1       -0.0026
     22 C          -2.8453  -17.8284   18.3484 C.ar    1  UNL1        0.0006
     23 C          -1.4062  -17.4995   18.6143 C.ar    1  UNL1        0.0114
     24 C          -0.7679  -17.9162   19.9061 C.ar    1  UNL1        0.0574
     25 CL          0.6712  -17.5872   20.1721 Cl      1  UNL1       -0.0823
     26 C          -1.5688  -18.6618   20.9321 C.ar    1  UNL1        0.0088
@<TRIPOS>BOND
     1    13    14    1
     2    14    15   ar
     3    15    16   ar
     4    16    17   ar
     5    17     1    1
     6     1     2    2
     7     1     3   am
     8     3    19    1
     9    19    20    1
    10    20    21   ar
    11    21    22   ar
    12    22    23   ar
    13    23    24   ar
    14    24    25    1
    15    24    26   ar
    16     4     3    1
    17     4     5    1
    18     5     6    1
    19     6     7    1
    20     7     8    1
    21     7     9    1
    22     9    10    1
    23    17    18   ar
    24    18    14   ar
    25    26    20   ar
    26    10     4    1
    27     8    11    1
    28     8    12    1
@<TRIPOS>MOLECULE
*****
 26 28 0 0 0
SMALL
GASTEIGER

@<TRIPOS>ATOM
      1 C         -15.1364   -8.4615   18.3062 C.2     1  UNL1        0.2685
      2 O         -14.7912   -9.8340   17.8092 O.2     1  UNL1       -0.2682
      3 N         -14.1285   -7.3546   18.2131 N.am    1  UNL1       -0.2723
      4 C         -14.4737   -5.9820   18.7101 C.3     1  UNL1        0.0761
      5 C         -14.1187   -5.5803   20.1110 C.3     1  UNL1        0.0212
      6 C         -14.4639   -4.2079   20.6080 C.3     1  UNL1        0.0172
      7 C         -15.1643   -3.2371   19.7041 C.3     1  UNL1        0.0509
      8 N         -15.5096   -1.8645   20.2011 N.3     1  UNL1       -0.3222
      9 C         -15.5194   -3.6387   18.3032 C.3     1  UNL1        0.0172
     10 C         -15.1741   -5.0112   17.8062 C.3     1  UNL1        0.0212
     11 H         -15.1972   -1.7641   21.1669 H       1  UNL1        0.1188
     12 H         -16.5196   -1.7302   20.1548 H       1  UNL1        0.1188
     13 C         -20.1947   -7.0408   18.8323 C.3     1  UNL1        0.1321
     14 N         -18.8147   -7.5428   19.1382 N.ar    1  UNL1       -0.3057
     15 C         -18.3294   -8.0314   20.4708 C.ar    1  UNL1        0.1787
     16 N         -16.8925   -8.4350   20.3213 N.ar    1  UNL1       -0.2192
     17 C         -16.4897   -8.1959   18.8964 C.ar    1  UNL1        0.1535
     18 C         -17.6776   -7.6445   18.1651 C.ar    1  UNL1        0.1012
     19 C         -12.7753   -7.6201   17.6229 C.3     1  UNL1        0.1204
     20 C         -11.6766   -6.6113   17.7819 C.ar    1  UNL1       -0.0015
     21 C         -10.7062   -6.7321   18.9193 C.ar    1  UNL1       -0.0026
     22 C          -9.6076   -5.7233   19.0782 C.ar    1  UNL1        0.0006
     23 C          -9.4794   -4.5937   18.0997 C.ar    1  UNL1        0.0114
     24 C         -10.4498   -4.4728   16.9623 C.ar    1  UNL1        0.0574
     25 CL        -10.3215   -3.3431   15.9839 Cl      1  UNL1       -0.0823
     26 C         -11.5484   -5.4816   16.8034 C.ar    1  UNL1        0.0088
@<TRIPOS>BOND
     1    13    14    1
     2    14    15   ar
     3    15    16   ar
     4    16    17   ar
     5    17     1    1
     6     1     2    2
     7     1     3   am
     8     3    19    1
     9    19    20    1
    10    20    21   ar
    11    21    22   ar
    12    22    23   ar
    13    23    24   ar
    14    24    25    1
    15    24    26   ar
    16     4     3    1
    17     4     5    1
    18     5     6    1
    19     6     7    1
    20     7     8    1
    21     7     9    1
    22     9    10    1
    23    17    18   ar
    24    18    14   ar
    25    26    20   ar
    26    10     4    1
    27     8    11    1
    28     8    12    1
@<TRIPOS>MOLECULE
*****
 26 28 0 0 0
SMALL
GASTEIGER

@<TRIPOS>ATOM
      1 C         -15.3812   -4.3333   18.5342 C.2     1  UNL1        0.2685
      2 O         -14.8671   -2.9282   18.6413 O.2     1  UNL1       -0.2682
      3 N         -14.6468   -5.4540   19.2085 N.am    1  UNL1       -0.2723
      4 C         -15.1610   -6.8591   19.1014 C.3     1  UNL1        0.0761
      5 C         -16.3234   -7.2985   19.9414 C.3     1  UNL1        0.0212
      6 C         -16.8375   -8.7035   19.8343 C.3     1  UNL1        0.0172
      7 C         -16.1891   -9.6692   18.8872 C.3     1  UNL1        0.0509
      8 N         -16.7032  -11.0743   18.7801 N.3     1  UNL1       -0.3222
      9 C         -15.0266   -9.2299   18.0472 C.3     1  UNL1        0.0172
     10 C         -14.5126   -7.8248   18.1543 C.3     1  UNL1        0.0212
     11 H         -17.4901  -11.1980   19.4173 H       1  UNL1        0.1188
     12 H         -15.9601  -11.7280   19.0266 H       1  UNL1        0.1188
     13 C         -20.4632   -4.7168   17.1533 C.3     1  UNL1        0.1321
     14 N         -18.9656   -4.7939   17.1181 N.ar    1  UNL1       -0.3057
     15 C         -18.1360   -5.3165   15.9828 C.ar    1  UNL1        0.1787
     16 N         -16.6924   -5.2075   16.3751 N.ar    1  UNL1       -0.2192
     17 C         -16.6297   -4.6176   17.7528 C.ar    1  UNL1        0.1535
     18 C         -18.0346   -4.3620   18.2121 C.ar    1  UNL1        0.1012
     19 C         -13.3984   -5.1697   19.9899 C.3     1  UNL1        0.1204
     20 C         -12.0582   -5.2645   19.3229 C.ar    1  UNL1       -0.0015
     21 C         -11.3516   -4.0182   18.8788 C.ar    1  UNL1       -0.0026
     22 C         -10.0114   -4.1131   18.2119 C.ar    1  UNL1        0.0006
     23 C          -9.3778   -5.4544   17.9890 C.ar    1  UNL1        0.0114
     24 C         -10.0845   -6.7007   18.4331 C.ar    1  UNL1        0.0574
     25 CL         -9.4509   -8.0419   18.2102 Cl      1  UNL1       -0.0823
     26 C         -11.4246   -6.6058   19.1000 C.ar    1  UNL1        0.0088
@<TRIPOS>BOND
     1    13    14    1
     2    14    15   ar
     3    15    16   ar
     4    16    17   ar
     5    17     1    1
     6     1     2    2
     7     1     3   am
     8     3    19    1
     9    19    20    1
    10    20    21   ar
    11    21    22   ar
    12    22    23   ar
    13    23    24   ar
    14    24    25    1
    15    24    26   ar
    16     4     3    1
    17     4     5    1
    18     5     6    1
    19     6     7    1
    20     7     8    1
    21     7     9    1
    22     9    10    1
    23    17    18   ar
    24    18    14   ar
    25    26    20   ar
    26    10     4    1
    27     8    11    1
    28     8    12    1
@<TRIPOS>MOLECULE
*****
 26 28 0 0 0
SMALL
GASTEIGER

@<TRIPOS>ATOM
      1 C         -15.0244   -7.6256   17.5320 C.2     1  UNL1        0.2685
      2 O         -14.1465   -8.5866   16.7867 O.2     1  UNL1       -0.2682
      3 N         -14.6817   -6.1656   17.5626 N.am    1  UNL1       -0.2723
      4 C         -15.5597   -5.2045   18.3081 C.3     1  UNL1        0.0761
      5 C         -16.7352   -4.5750   17.6211 C.3     1  UNL1        0.0212
      6 C         -17.6132   -3.6141   18.3666 C.3     1  UNL1        0.0172
      7 C         -17.3156   -3.2826   19.7989 C.3     1  UNL1        0.0509
      8 N         -18.1937   -2.3216   20.5443 N.3     1  UNL1       -0.3222
      9 C         -16.1401   -3.9121   20.4858 C.3     1  UNL1        0.0172
     10 C         -15.2622   -4.8731   19.7404 C.3     1  UNL1        0.0212
     11 H         -18.9379   -1.9935   19.9289 H       1  UNL1        0.1188
     12 H         -17.6374   -1.5266   20.8589 H       1  UNL1        0.1188
     13 C         -19.9346   -9.2996   18.5164 C.3     1  UNL1        0.1321
     14 N         -18.5021   -8.8940   18.6993 N.ar    1  UNL1       -0.3057
     15 C         -17.7451   -8.8908   19.9943 C.ar    1  UNL1        0.1787
     16 N         -16.3502   -8.4152   19.7147 N.ar    1  UNL1       -0.2192
     17 C         -16.2451   -8.1246   18.2469 C.ar    1  UNL1        0.1535
     18 C         -17.5750   -8.4204   17.6193 C.ar    1  UNL1        0.1012
     19 C         -13.4611   -5.6666   16.8478 C.3     1  UNL1        0.1204
     20 C         -12.1689   -5.5059   17.5926 C.ar    1  UNL1       -0.0015
     21 C         -11.6970   -4.1386   17.9896 C.ar    1  UNL1       -0.0026
     22 C         -10.4049   -3.9780   18.7343 C.ar    1  UNL1        0.0006
     23 C          -9.5848   -5.1848   19.0821 C.ar    1  UNL1        0.0114
     24 C         -10.0567   -6.5522   18.6852 C.ar    1  UNL1        0.0574
     25 CL         -9.2365   -7.7590   19.0330 Cl      1  UNL1       -0.0823
     26 C         -11.3487   -6.7127   17.9404 C.ar    1  UNL1        0.0088
@<TRIPOS>BOND
     1    13    14    1
     2    14    15   ar
     3    15    16   ar
     4    16    17   ar
     5    17     1    1
     6     1     2    2
     7     1     3   am
     8     3    19    1
     9    19    20    1
    10    20    21   ar
    11    21    22   ar
    12    22    23   ar
    13    23    24   ar
    14    24    25    1
    15    24    26   ar
    16     4     3    1
    17     4     5    1
    18     5     6    1
    19     6     7    1
    20     7     8    1
    21     7     9    1
    22     9    10    1
    23    17    18   ar
    24    18    14   ar
    25    26    20   ar
    26    10     4    1
    27     8    11    1
    28     8    12    1
@<TRIPOS>MOLECULE
*****
 26 28 0 0 0
SMALL
GASTEIGER

@<TRIPOS>ATOM
      1 C         -15.2624   -4.0135   18.6731 C.2     1  UNL1        0.2685
      2 O         -14.8706   -2.5813   18.8854 O.2     1  UNL1       -0.2682
      3 N         -14.3347   -5.1150   19.0927 N.am    1  UNL1       -0.2723
      4 C         -14.7266   -6.5473   18.8804 C.3     1  UNL1        0.0761
      5 C         -14.0662   -7.3536   17.8016 C.3     1  UNL1        0.0212
      6 C         -14.4581   -8.7858   17.5894 C.3     1  UNL1        0.0172
      7 C         -15.5104   -9.4118   18.4560 C.3     1  UNL1        0.0509
      8 N         -15.9023  -10.8441   18.2437 N.3     1  UNL1       -0.3222
      9 C         -16.1708   -8.6055   19.5347 C.3     1  UNL1        0.0172
     10 C         -15.7788   -7.1733   19.7470 C.3     1  UNL1        0.0212
     11 H         -15.3572  -11.2354   17.4755 H       1  UNL1        0.1188
     12 H         -16.8953  -10.8947   18.0163 H       1  UNL1        0.1188
     13 C         -20.4380   -4.7822   17.9629 C.3     1  UNL1        0.1321
     14 N         -18.9610   -4.6977   17.7149 N.ar    1  UNL1       -0.3057
     15 C         -18.2646   -5.0092   16.4234 C.ar    1  UNL1        0.1787
     16 N         -16.7943   -4.7908   16.6252 N.ar    1  UNL1       -0.2192
     17 C         -16.5821   -4.3444   18.0413 C.ar    1  UNL1        0.1535
     18 C         -17.9211   -4.2868   18.7149 C.ar    1  UNL1        0.1012
     19 C         -13.0151   -4.7842   19.7245 C.3     1  UNL1        0.1204
     20 C         -11.7812   -4.6865   18.8770 C.ar    1  UNL1       -0.0015
     21 C         -10.8017   -5.8220   18.8445 C.ar    1  UNL1       -0.0026
     22 C          -9.5680   -5.7242   17.9970 C.ar    1  UNL1        0.0006
     23 C          -9.3138   -4.4909   17.1820 C.ar    1  UNL1        0.0114
     24 C         -10.2933   -3.3554   17.2144 C.ar    1  UNL1        0.0574
     25 CL        -10.0391   -2.1220   16.3994 Cl      1  UNL1       -0.0823
     26 C         -11.5270   -3.4532   18.0619 C.ar    1  UNL1        0.0088
@<TRIPOS>BOND
     1    13    14    1
     2    14    15   ar
     3    15    16   ar
     4    16    17   ar
     5    17     1    1
     6     1     2    2
     7     1     3   am
     8     3    19    1
     9    19    20    1
    10    20    21   ar
    11    21    22   ar
    12    22    23   ar
    13    23    24   ar
    14    24    25    1
    15    24    26   ar
    16     4     3    1
    17     4     5    1
    18     5     6    1
    19     6     7    1
    20     7     8    1
    21     7     9    1
    22     9    10    1
    23    17    18   ar
    24    18    14   ar
    25    26    20   ar
    26    10     4    1
    27     8    11    1
    28     8    12    1
