@<TRIPOS>MOLECULE
*****
 31 32 0 0 0
SMALL
GASTEIGER

@<TRIPOS>ATOM
      1 C          -8.2555  -15.8375   25.4187 C.3     1  UNL1        0.0952
      2 C          -8.4290  -16.0134   26.8982 C.3     1  UNL1        0.0233
      3 C          -7.0760  -15.9160   27.5384 C.3     1  UNL1        0.0233
      4 C          -6.0663  -15.6799   26.4545 C.3     1  UNL1        0.0935
      5 N          -6.7953  -15.6314   25.1444 N.am    1  UNL1       -0.2794
      6 C          -6.1733  -15.4148   23.7968 C.2     1  UNL1        0.2270
      7 O          -7.0340  -15.3909   22.5686 O.2     1  UNL1       -0.2748
      8 C          -9.3501  -15.8633   24.3934 C.3     1  UNL1        0.1133
      9 C          -9.1416  -18.4462   24.2050 C.3     1  UNL1        0.1151
     10 N          -9.7020  -17.1482   23.7040 N.am    1  UNL1       -0.2717
     11 C         -10.6145  -17.1350   22.5135 C.2     1  UNL1        0.2870
     12 O         -11.1750  -15.8369   22.0124 O.2     1  UNL1       -0.2690
     13 C         -10.9664  -18.4198   21.8240 C.3     1  UNL1        0.3306
     14 C         -11.3184  -19.7046   21.1345 C.3     1  UNL1        0.0821
     15 F          -9.9929  -18.0988   20.7289 F       1  UNL1       -0.1946
     16 F         -11.9399  -18.7408   22.9191 F       1  UNL1       -0.1946
     17 C          -4.6905  -15.2222   23.6774 C.3     1  UNL1        0.1010
     18 C          -3.8535  -16.2550   22.9826 C.3     1  UNL1        0.0644
     19 N          -2.9017  -15.8437   21.8986 N.3     1  UNL1       -0.3215
     20 H          -2.9533  -14.8336   21.7661 H       1  UNL1        0.1188
     21 H          -3.1530  -16.3139   21.0291 H       1  UNL1        0.1188
     22 C          -3.9684  -17.6991   23.3716 C.3     1  UNL1        0.0447
     23 C          -4.5500  -18.6913   22.4087 C.ar    1  UNL1        0.0090
     24 C          -6.0345  -18.8985   22.3505 C.ar    1  UNL1        0.0300
     25 C          -6.6161  -19.8907   21.3876 C.ar    1  UNL1        0.1672
     26 F          -8.1006  -20.0979   21.3293 F       1  UNL1       -0.2018
     27 C          -5.7132  -20.6758   20.4829 C.ar    1  UNL1        0.1696
     28 F          -6.2948  -21.6680   19.5200 F       1  UNL1       -0.2017
     29 C          -4.2287  -20.4686   20.5411 C.ar    1  UNL1        0.0612
     30 C          -3.6472  -19.4764   21.5040 C.ar    1  UNL1        0.1386
     31 F          -2.1626  -19.2692   21.5623 F       1  UNL1       -0.2044
@<TRIPOS>BOND
     1     9    10    1
     2    10     8    1
     3     1     8    1
     4     1     2    1
     5     2     3    1
     6     3     4    1
     7     4     5    1
     8     5     6   am
     9     6     7    2
    10     6    17    1
    11    17    18    1
    12    18    19    1
    13    18    22    1
    14    22    23    1
    15    23    24   ar
    16    24    25   ar
    17    25    26    1
    18    25    27   ar
    19    27    28    1
    20    27    29   ar
    21    29    30   ar
    22    30    31    1
    23    10    11   am
    24    11    12    2
    25    11    13    1
    26    13    14    1
    27    13    15    1
    28    13    16    1
    29     5     1    1
    30    30    23   ar
    31    19    20    1
    32    19    21    1
@<TRIPOS>MOLECULE
*****
 31 32 0 0 0
SMALL
GASTEIGER

@<TRIPOS>ATOM
      1 C         -10.2325  -17.5447   22.2411 C.3     1  UNL1        0.0952
      2 C         -11.6206  -18.1013   22.1258 C.3     1  UNL1        0.0233
      3 C         -11.5653  -19.3027   21.2292 C.3     1  UNL1        0.0233
      4 C         -10.1430  -19.4884   20.7904 C.3     1  UNL1        0.0935
      5 N          -9.3193  -18.4019   21.4158 N.am    1  UNL1       -0.2794
      6 C          -7.8418  -18.2069   21.2457 C.2     1  UNL1        0.2270
      7 O          -7.1510  -17.0691   21.9371 O.2     1  UNL1       -0.2748
      8 C          -9.8286  -16.3419   23.0413 C.3     1  UNL1        0.1133
      9 C          -9.5165  -17.7085   25.2288 C.3     1  UNL1        0.1151
     10 N          -9.1802  -16.5166   24.3826 N.am    1  UNL1       -0.2717
     11 C          -8.1954  -15.4992   24.8777 C.2     1  UNL1        0.2870
     12 O          -7.8590  -14.3072   24.0314 O.2     1  UNL1       -0.2690
     13 C          -7.5470  -15.6737   26.2190 C.3     1  UNL1        0.3306
     14 C          -6.8985  -15.8482   27.5603 C.3     1  UNL1        0.0821
     15 F          -8.7839  -15.1483   26.8853 F       1  UNL1       -0.1946
     16 F          -6.3100  -16.1991   25.5526 F       1  UNL1       -0.1946
     17 C          -7.0552  -19.1498   20.3842 C.3     1  UNL1        0.1010
     18 C          -6.1518  -20.1668   21.0163 C.3     1  UNL1        0.0644
     19 N          -6.5590  -20.8414   22.2926 N.3     1  UNL1       -0.3215
     20 H          -7.4708  -20.4912   22.5864 H       1  UNL1        0.1188
     21 H          -5.8690  -20.6431   23.0172 H       1  UNL1        0.1188
     22 C          -4.8412  -20.5092   20.3721 C.3     1  UNL1        0.0447
     23 C          -3.7335  -19.4980   20.3418 C.ar    1  UNL1        0.0090
     24 C          -3.1407  -19.0740   19.0308 C.ar    1  UNL1        0.0300
     25 C          -2.0331  -18.0630   19.0005 C.ar    1  UNL1        0.1672
     26 F          -1.4403  -17.6389   17.6895 F       1  UNL1       -0.2018
     27 C          -1.5183  -17.4759   20.2813 C.ar    1  UNL1        0.1696
     28 F          -0.4107  -16.4648   20.2510 F       1  UNL1       -0.2017
     29 C          -2.1111  -17.8999   21.5923 C.ar    1  UNL1        0.0612
     30 C          -3.2187  -18.9110   21.6225 C.ar    1  UNL1        0.1386
     31 F          -3.8116  -19.3350   22.9336 F       1  UNL1       -0.2044
@<TRIPOS>BOND
     1     9    10    1
     2    10     8    1
     3     1     8    1
     4     1     2    1
     5     2     3    1
     6     3     4    1
     7     4     5    1
     8     5     6   am
     9     6     7    2
    10     6    17    1
    11    17    18    1
    12    18    19    1
    13    18    22    1
    14    22    23    1
    15    23    24   ar
    16    24    25   ar
    17    25    26    1
    18    25    27   ar
    19    27    28    1
    20    27    29   ar
    21    29    30   ar
    22    30    31    1
    23    10    11   am
    24    11    12    2
    25    11    13    1
    26    13    14    1
    27    13    15    1
    28    13    16    1
    29     5     1    1
    30    30    23   ar
    31    19    20    1
    32    19    21    1
@<TRIPOS>MOLECULE
*****
 31 32 0 0 0
SMALL
GASTEIGER

@<TRIPOS>ATOM
      1 C          -9.4613  -18.2222   23.8520 C.3     1  UNL1        0.0952
      2 C         -10.0070  -19.2582   24.7896 C.3     1  UNL1        0.0233
      3 C          -9.5908  -20.6073   24.2827 C.3     1  UNL1        0.0233
      4 C          -8.7879  -20.4050   23.0320 C.3     1  UNL1        0.0935
      5 N          -8.7079  -18.9310   22.7658 N.am    1  UNL1       -0.2794
      6 C          -7.9989  -18.2800   21.6153 C.2     1  UNL1        0.2270
      7 O          -8.0049  -16.7862   21.4790 O.2     1  UNL1       -0.2748
      8 C          -9.6380  -16.7381   23.9786 C.3     1  UNL1        0.1133
      9 C          -7.9099  -14.8042   24.1344 C.3     1  UNL1        0.1151
     10 N          -8.6595  -15.9317   24.7800 N.am    1  UNL1       -0.2717
     11 C          -8.4305  -16.2530   26.2272 C.2     1  UNL1        0.2870
     12 O          -9.1800  -17.3806   26.8729 O.2     1  UNL1       -0.2690
     13 C          -7.4519  -15.4468   27.0287 C.3     1  UNL1        0.3306
     14 C          -6.4734  -14.6405   27.8302 C.3     1  UNL1        0.0821
     15 F          -6.3183  -16.2183   26.4207 F       1  UNL1       -0.1946
     16 F          -8.5856  -14.6752   27.6367 F       1  UNL1       -0.1946
     17 C          -7.2840  -19.1228   20.6012 C.3     1  UNL1        0.1010
     18 C          -6.1526  -20.0107   21.0273 C.3     1  UNL1        0.0644
     19 N          -6.0132  -21.3830   20.4379 N.3     1  UNL1       -0.3215
     20 H          -6.7675  -21.5447   19.7707 H       1  UNL1        0.1188
     21 H          -6.0622  -22.0791   21.1818 H       1  UNL1        0.1188
     22 C          -5.1606  -19.5263   22.0428 C.3     1  UNL1        0.0447
     23 C          -3.9790  -18.7111   21.6076 C.ar    1  UNL1        0.0090
     24 C          -3.4614  -18.8301   20.2048 C.ar    1  UNL1        0.0300
     25 C          -2.2799  -18.0149   19.7697 C.ar    1  UNL1        0.1672
     26 F          -1.7623  -18.1339   18.3668 F       1  UNL1       -0.2018
     27 C          -1.6160  -17.0806   20.7373 C.ar    1  UNL1        0.1696
     28 F          -0.4345  -16.2653   20.3021 F       1  UNL1       -0.2017
     29 C          -2.1336  -16.9615   22.1401 C.ar    1  UNL1        0.0612
     30 C          -3.3151  -17.7768   22.5753 C.ar    1  UNL1        0.1386
     31 F          -3.8328  -17.6578   23.9781 F       1  UNL1       -0.2044
@<TRIPOS>BOND
     1     9    10    1
     2    10     8    1
     3     1     8    1
     4     1     2    1
     5     2     3    1
     6     3     4    1
     7     4     5    1
     8     5     6   am
     9     6     7    2
    10     6    17    1
    11    17    18    1
    12    18    19    1
    13    18    22    1
    14    22    23    1
    15    23    24   ar
    16    24    25   ar
    17    25    26    1
    18    25    27   ar
    19    27    28    1
    20    27    29   ar
    21    29    30   ar
    22    30    31    1
    23    10    11   am
    24    11    12    2
    25    11    13    1
    26    13    14    1
    27    13    15    1
    28    13    16    1
    29     5     1    1
    30    30    23   ar
    31    19    20    1
    32    19    21    1
@<TRIPOS>MOLECULE
*****
 31 32 0 0 0
SMALL
GASTEIGER

@<TRIPOS>ATOM
      1 C          -9.1045  -16.9443   22.1635 C.3     1  UNL1        0.0952
      2 C          -8.6734  -16.1639   23.3698 C.3     1  UNL1        0.0233
      3 C          -7.2148  -16.4302   23.5972 C.3     1  UNL1        0.0233
      4 C          -6.7445  -17.3753   22.5315 C.3     1  UNL1        0.0935
      5 N          -7.9125  -17.6930   21.6454 N.am    1  UNL1       -0.2794
      6 C          -7.8919  -18.6000   20.4510 C.2     1  UNL1        0.2270
      7 O          -9.1448  -18.8229   19.6568 O.2     1  UNL1       -0.2748
      8 C         -10.4853  -16.9712   21.5782 C.3     1  UNL1        0.1133
      9 C         -12.4540  -15.7572   22.7618 C.3     1  UNL1        0.1151
     10 N         -11.6822  -17.0125   22.4814 N.am    1  UNL1       -0.2717
     11 C         -12.1074  -18.3092   23.1042 C.2     1  UNL1        0.2870
     12 O         -11.3356  -19.5645   22.8238 O.2     1  UNL1       -0.2690
     13 C         -13.3043  -18.3505   24.0074 C.3     1  UNL1        0.3306
     14 C         -14.5012  -18.3919   24.9106 C.3     1  UNL1        0.0821
     15 F         -14.2063  -18.1936   22.8192 F       1  UNL1       -0.1946
     16 F         -12.4023  -18.5074   25.1956 F       1  UNL1       -0.1946
     17 C          -6.6185  -19.2842   20.0507 C.3     1  UNL1        0.1010
     18 C          -5.9368  -20.2186   21.0059 C.3     1  UNL1        0.0644
     19 N          -6.7117  -20.8375   22.1313 N.3     1  UNL1       -0.3215
     20 H          -7.6788  -20.5152   22.0958 H       1  UNL1        0.1188
     21 H          -6.2949  -20.5649   23.0214 H       1  UNL1        0.1188
     22 C          -4.4803  -20.5340   20.8357 C.3     1  UNL1        0.0447
     23 C          -3.4824  -19.4218   20.7044 C.ar    1  UNL1        0.0090
     24 C          -2.8384  -19.1446   19.3784 C.ar    1  UNL1        0.0300
     25 C          -1.8405  -18.0324   19.2472 C.ar    1  UNL1        0.1672
     26 F          -1.1964  -17.7552   17.9212 F       1  UNL1       -0.2018
     27 C          -1.4867  -17.1974   20.4421 C.ar    1  UNL1        0.1696
     28 F          -0.4887  -16.0852   20.3108 F       1  UNL1       -0.2017
     29 C          -2.1307  -17.4746   21.7681 C.ar    1  UNL1        0.0612
     30 C          -3.1285  -18.5868   21.8992 C.ar    1  UNL1        0.1386
     31 F          -3.7726  -18.8640   23.2253 F       1  UNL1       -0.2044
@<TRIPOS>BOND
     1     9    10    1
     2    10     8    1
     3     1     8    1
     4     1     2    1
     5     2     3    1
     6     3     4    1
     7     4     5    1
     8     5     6   am
     9     6     7    2
    10     6    17    1
    11    17    18    1
    12    18    19    1
    13    18    22    1
    14    22    23    1
    15    23    24   ar
    16    24    25   ar
    17    25    26    1
    18    25    27   ar
    19    27    28    1
    20    27    29   ar
    21    29    30   ar
    22    30    31    1
    23    10    11   am
    24    11    12    2
    25    11    13    1
    26    13    14    1
    27    13    15    1
    28    13    16    1
    29     5     1    1
    30    30    23   ar
    31    19    20    1
    32    19    21    1
@<TRIPOS>MOLECULE
*****
 31 32 0 0 0
SMALL
GASTEIGER

@<TRIPOS>ATOM
      1 C          -9.6806  -18.1408   23.9070 C.3     1  UNL1        0.0952
      2 C         -10.3125  -19.0334   24.9336 C.3     1  UNL1        0.0233
      3 C         -10.0665  -20.4558   24.5256 C.3     1  UNL1        0.0233
      4 C          -9.2825  -20.4422   23.2469 C.3     1  UNL1        0.0935
      5 N          -9.0441  -19.0115   22.8645 N.am    1  UNL1       -0.2794
      6 C          -8.2998  -18.5351   21.6525 C.2     1  UNL1        0.2270
      7 O          -8.1407  -17.0651   21.3998 O.2     1  UNL1       -0.2748
      8 C          -9.6847  -16.6409   23.9205 C.3     1  UNL1        0.1133
      9 C          -7.7905  -14.8625   23.9119 C.3     1  UNL1        0.1151
     10 N          -8.6004  -15.8943   24.6395 N.am    1  UNL1       -0.2717
     11 C          -8.3260  -16.1796   26.0864 C.2     1  UNL1        0.2870
     12 O          -9.1358  -17.2115   26.8141 O.2     1  UNL1       -0.2690
     13 C          -7.2417  -15.4331   26.8055 C.3     1  UNL1        0.3306
     14 C          -6.1575  -14.6866   27.5246 C.3     1  UNL1        0.0821
     15 F          -8.2651  -14.8277   27.7199 F       1  UNL1       -0.1946
     16 F          -6.2184  -16.0386   25.8911 F       1  UNL1       -0.1946
     17 C          -7.7146  -19.5286   20.6932 C.3     1  UNL1        0.1010
     18 C          -6.4560  -20.2632   21.0490 C.3     1  UNL1        0.0644
     19 N          -5.9538  -21.3638   20.1622 N.3     1  UNL1       -0.3215
     20 H          -6.5857  -21.4768   19.3695 H       1  UNL1        0.1188
     21 H          -5.9129  -22.2348   20.6913 H       1  UNL1        0.1188
     22 C          -5.6998  -19.8972   22.2916 C.3     1  UNL1        0.0447
     23 C          -4.6460  -18.8308   22.2415 C.ar    1  UNL1        0.0090
     24 C          -4.8798  -17.5129   22.9186 C.ar    1  UNL1        0.0300
     25 C          -3.8261  -16.4466   22.8685 C.ar    1  UNL1        0.1672
     26 F          -4.0599  -15.1287   23.5456 F       1  UNL1       -0.2018
     27 C          -2.5385  -16.6982   22.1413 C.ar    1  UNL1        0.1696
     28 F          -1.4847  -15.6318   22.0912 F       1  UNL1       -0.2017
     29 C          -2.3046  -18.0161   21.4642 C.ar    1  UNL1        0.0612
     30 C          -3.3584  -19.0824   21.5143 C.ar    1  UNL1        0.1386
     31 F          -3.1246  -20.4003   20.8372 F       1  UNL1       -0.2044
@<TRIPOS>BOND
     1     9    10    1
     2    10     8    1
     3     1     8    1
     4     1     2    1
     5     2     3    1
     6     3     4    1
     7     4     5    1
     8     5     6   am
     9     6     7    2
    10     6    17    1
    11    17    18    1
    12    18    19    1
    13    18    22    1
    14    22    23    1
    15    23    24   ar
    16    24    25   ar
    17    25    26    1
    18    25    27   ar
    19    27    28    1
    20    27    29   ar
    21    29    30   ar
    22    30    31    1
    23    10    11   am
    24    11    12    2
    25    11    13    1
    26    13    14    1
    27    13    15    1
    28    13    16    1
    29     5     1    1
    30    30    23   ar
    31    19    20    1
    32    19    21    1
@<TRIPOS>MOLECULE
*****
 31 32 0 0 0
SMALL
GASTEIGER

@<TRIPOS>ATOM
      1 C          -8.2823  -15.4796   25.7517 C.3     1  UNL1        0.0952
      2 C          -8.4837  -15.2637   27.2224 C.3     1  UNL1        0.0233
      3 C          -7.1553  -15.4232   27.9005 C.3     1  UNL1        0.0233
      4 C          -6.1329  -15.7377   26.8490 C.3     1  UNL1        0.0935
      5 N          -6.8295  -15.7725   25.5209 N.am    1  UNL1       -0.2794
      6 C          -6.1861  -16.0513   24.1949 C.2     1  UNL1        0.2270
      7 O          -7.0149  -16.0526   22.9447 O.2     1  UNL1       -0.2748
      8 C          -9.3470  -15.4140   24.6971 C.3     1  UNL1        0.1133
      9 C         -10.2218  -16.5956   22.5550 C.3     1  UNL1        0.1151
     10 N          -9.7758  -16.6630   23.9855 N.am    1  UNL1       -0.2717
     11 C          -9.7585  -17.9793   24.7046 C.2     1  UNL1        0.2870
     12 O          -9.3125  -18.0466   26.1352 O.2     1  UNL1       -0.2690
     13 C         -10.1873  -19.2282   23.9931 C.3     1  UNL1        0.3306
     14 C         -10.6162  -20.4772   23.2815 C.3     1  UNL1        0.0821
     15 F         -11.5959  -19.0113   24.4611 F       1  UNL1       -0.1946
     16 F          -8.7788  -19.4452   23.5250 F       1  UNL1       -0.1946
     17 C          -4.7140  -16.3288   24.1192 C.3     1  UNL1        0.1010
     18 C          -3.8887  -15.7080   23.0313 C.3     1  UNL1        0.0644
     19 N          -4.1943  -14.3175   22.5589 N.3     1  UNL1       -0.3215
     20 H          -4.9876  -13.9472   23.0823 H       1  UNL1        0.1188
     21 H          -4.4227  -14.3385   21.5650 H       1  UNL1        0.1188
     22 C          -2.7578  -16.4776   22.4158 C.3     1  UNL1        0.0447
     23 C          -3.0454  -17.6524   21.5285 C.ar    1  UNL1        0.0090
     24 C          -4.1391  -18.6139   21.8882 C.ar    1  UNL1        0.0300
     25 C          -4.4266  -19.7886   21.0009 C.ar    1  UNL1        0.1672
     26 F          -5.5204  -20.7502   21.3605 F       1  UNL1       -0.2018
     27 C          -3.6205  -20.0019   19.7541 C.ar    1  UNL1        0.1696
     28 F          -3.9081  -21.1767   18.8668 F       1  UNL1       -0.2017
     29 C          -2.5269  -19.0404   19.3944 C.ar    1  UNL1        0.0612
     30 C          -2.2393  -17.8656   20.2817 C.ar    1  UNL1        0.1386
     31 F          -1.1456  -16.9041   19.9221 F       1  UNL1       -0.2044
@<TRIPOS>BOND
     1     9    10    1
     2    10     8    1
     3     1     8    1
     4     1     2    1
     5     2     3    1
     6     3     4    1
     7     4     5    1
     8     5     6   am
     9     6     7    2
    10     6    17    1
    11    17    18    1
    12    18    19    1
    13    18    22    1
    14    22    23    1
    15    23    24   ar
    16    24    25   ar
    17    25    26    1
    18    25    27   ar
    19    27    28    1
    20    27    29   ar
    21    29    30   ar
    22    30    31    1
    23    10    11   am
    24    11    12    2
    25    11    13    1
    26    13    14    1
    27    13    15    1
    28    13    16    1
    29     5     1    1
    30    30    23   ar
    31    19    20    1
    32    19    21    1
@<TRIPOS>MOLECULE
*****
 31 32 0 0 0
SMALL
GASTEIGER

@<TRIPOS>ATOM
      1 C          -9.8320  -17.9179   23.9076 C.3     1  UNL1        0.0952
      2 C         -10.0777  -18.8394   25.0654 C.3     1  UNL1        0.0233
      3 C         -10.2514  -20.2276   24.5242 C.3     1  UNL1        0.0233
      4 C         -10.1131  -20.1639   23.0319 C.3     1  UNL1        0.0935
      5 N          -9.8538  -18.7365   22.6509 N.am    1  UNL1       -0.2794
      6 C          -9.6519  -18.2185   21.2577 C.2     1  UNL1        0.2270
      7 O          -9.4005  -16.7574   21.0298 O.2     1  UNL1       -0.2748
      8 C          -9.6043  -16.4377   23.9919 C.3     1  UNL1        0.1133
      9 C          -7.4114  -15.2724   23.2280 C.3     1  UNL1        0.1151
     10 N          -8.2379  -15.9056   24.3078 N.am    1  UNL1       -0.2717
     11 C          -7.6979  -16.0069   25.7036 C.2     1  UNL1        0.2870
     12 O          -8.5245  -16.6401   26.7834 O.2     1  UNL1       -0.2690
     13 C          -6.3315  -15.4749   26.0196 C.3     1  UNL1        0.3306
     14 C          -4.9651  -14.9429   26.3356 C.3     1  UNL1        0.0821
     15 F          -6.8965  -14.7146   27.1826 F       1  UNL1       -0.1946
     16 F          -5.7665  -16.2352   24.8565 F       1  UNL1       -0.1946
     17 C          -9.7014  -19.1617   20.0925 C.3     1  UNL1        0.1010
     18 C          -8.4343  -19.5593   19.3950 C.3     1  UNL1        0.0644
     19 N          -8.1779  -19.1048   17.9887 N.3     1  UNL1       -0.3215
     20 H          -8.9629  -18.5393   17.6657 H       1  UNL1        0.1188
     21 H          -8.0727  -19.9183   17.3823 H       1  UNL1        0.1188
     22 C          -7.4236  -20.4113   20.1038 C.3     1  UNL1        0.0447
     23 C          -6.1406  -19.8051   20.5903 C.ar    1  UNL1        0.0090
     24 C          -5.0642  -19.4415   19.6109 C.ar    1  UNL1        0.0300
     25 C          -3.7813  -18.8354   20.0974 C.ar    1  UNL1        0.1672
     26 F          -2.7048  -18.4717   19.1180 F       1  UNL1       -0.2018
     27 C          -3.5748  -18.5928   21.5632 C.ar    1  UNL1        0.1696
     28 F          -2.2918  -17.9867   22.0496 F       1  UNL1       -0.2017
     29 C          -4.6511  -18.9565   22.5425 C.ar    1  UNL1        0.0612
     30 C          -5.9340  -19.5626   22.0561 C.ar    1  UNL1        0.1386
     31 F          -7.0105  -19.9263   23.0354 F       1  UNL1       -0.2044
@<TRIPOS>BOND
     1     9    10    1
     2    10     8    1
     3     1     8    1
     4     1     2    1
     5     2     3    1
     6     3     4    1
     7     4     5    1
     8     5     6   am
     9     6     7    2
    10     6    17    1
    11    17    18    1
    12    18    19    1
    13    18    22    1
    14    22    23    1
    15    23    24   ar
    16    24    25   ar
    17    25    26    1
    18    25    27   ar
    19    27    28    1
    20    27    29   ar
    21    29    30   ar
    22    30    31    1
    23    10    11   am
    24    11    12    2
    25    11    13    1
    26    13    14    1
    27    13    15    1
    28    13    16    1
    29     5     1    1
    30    30    23   ar
    31    19    20    1
    32    19    21    1
@<TRIPOS>MOLECULE
*****
 31 32 0 0 0
SMALL
GASTEIGER

@<TRIPOS>ATOM
      1 C          -8.9336  -17.8616   22.2953 C.3     1  UNL1        0.0952
      2 C          -8.6062  -16.9612   23.4495 C.3     1  UNL1        0.0233
      3 C          -7.1220  -16.7435   23.4611 C.3     1  UNL1        0.0233
      4 C          -6.5323  -17.5093   22.3141 C.3     1  UNL1        0.0935
      5 N          -7.6519  -18.2003   21.5936 N.am    1  UNL1       -0.2794
      6 C          -7.5139  -19.0762   20.3838 C.2     1  UNL1        0.2270
      7 O          -8.7302  -19.7027   19.7688 O.2     1  UNL1       -0.2748
      8 C         -10.3024  -18.3393   21.9105 C.3     1  UNL1        0.1133
      9 C         -11.1147  -20.0524   23.6869 C.3     1  UNL1        0.1151
     10 N         -11.2815  -18.7442   22.9723 N.am    1  UNL1       -0.2717
     11 C         -12.4276  -17.8409   23.3193 C.2     1  UNL1        0.2870
     12 O         -12.5946  -16.5326   22.6046 O.2     1  UNL1       -0.2690
     13 C         -13.4068  -18.2457   24.3810 C.3     1  UNL1        0.3306
     14 C         -14.3860  -18.6506   25.4428 C.3     1  UNL1        0.0821
     15 F         -14.5198  -18.1867   23.3771 F       1  UNL1       -0.1946
     16 F         -12.2939  -18.3048   25.3850 F       1  UNL1       -0.1946
     17 C          -6.1598  -19.3256   19.7889 C.3     1  UNL1        0.1010
     18 C          -5.4530  -20.6226   20.0504 C.3     1  UNL1        0.0644
     19 N          -6.2232  -21.9098   20.0499 N.3     1  UNL1       -0.3215
     20 H          -7.2060  -21.7178   19.8560 H       1  UNL1        0.1188
     21 H          -6.1377  -22.3575   20.9624 H       1  UNL1        0.1188
     22 C          -3.9761  -20.6324   20.3123 C.3     1  UNL1        0.0447
     23 C          -3.2712  -19.3605   20.6804 C.ar    1  UNL1        0.0090
     24 C          -3.2463  -18.9031   22.1087 C.ar    1  UNL1        0.0300
     25 C          -2.5414  -17.6312   22.4767 C.ar    1  UNL1        0.1672
     26 F          -2.5165  -17.1738   23.9051 F       1  UNL1       -0.2018
     27 C          -1.8614  -16.8167   21.4164 C.ar    1  UNL1        0.1696
     28 F          -1.1565  -15.5448   21.7844 F       1  UNL1       -0.2017
     29 C          -1.8863  -17.2741   19.9881 C.ar    1  UNL1        0.0612
     30 C          -2.5912  -18.5460   19.6201 C.ar    1  UNL1        0.1386
     31 F          -2.6161  -19.0035   18.1917 F       1  UNL1       -0.2044
@<TRIPOS>BOND
     1     9    10    1
     2    10     8    1
     3     1     8    1
     4     1     2    1
     5     2     3    1
     6     3     4    1
     7     4     5    1
     8     5     6   am
     9     6     7    2
    10     6    17    1
    11    17    18    1
    12    18    19    1
    13    18    22    1
    14    22    23    1
    15    23    24   ar
    16    24    25   ar
    17    25    26    1
    18    25    27   ar
    19    27    28    1
    20    27    29   ar
    21    29    30   ar
    22    30    31    1
    23    10    11   am
    24    11    12    2
    25    11    13    1
    26    13    14    1
    27    13    15    1
    28    13    16    1
    29     5     1    1
    30    30    23   ar
    31    19    20    1
    32    19    21    1
@<TRIPOS>MOLECULE
*****
 31 32 0 0 0
SMALL
GASTEIGER

@<TRIPOS>ATOM
      1 C         -10.1836  -18.5332   24.5922 C.3     1  UNL1        0.0952
      2 C          -9.9148  -19.9518   24.9990 C.3     1  UNL1        0.0233
      3 C         -10.4451  -20.8513   23.9221 C.3     1  UNL1        0.0233
      4 C         -11.0417  -19.9887   22.8498 C.3     1  UNL1        0.0935
      5 N         -10.8800  -18.5560   23.2639 N.am    1  UNL1       -0.2794
      6 C         -11.3350  -17.3568   22.4863 C.2     1  UNL1        0.2270
      7 O         -11.1032  -15.9782   23.0300 O.2     1  UNL1       -0.2748
      8 C          -9.8198  -17.3072   25.3760 C.3     1  UNL1        0.1133
      9 C          -7.8516  -16.6476   23.8135 C.3     1  UNL1        0.1151
     10 N          -8.4832  -16.6569   25.1739 N.am    1  UNL1       -0.2717
     11 C          -7.7783  -16.0158   26.3324 C.2     1  UNL1        0.2870
     12 O          -8.4099  -16.0250   27.6930 O.2     1  UNL1       -0.2690
     13 C          -6.4418  -15.3655   26.1304 C.3     1  UNL1        0.3306
     14 C          -5.1053  -14.7151   25.9284 C.3     1  UNL1        0.0821
     15 F          -7.0592  -14.3961   25.1665 F       1  UNL1       -0.1946
     16 F          -5.8244  -16.3349   27.0943 F       1  UNL1       -0.1946
     17 C         -12.0217  -17.5361   21.1649 C.3     1  UNL1        0.1010
     18 C         -11.2164  -17.5727   19.8999 C.3     1  UNL1        0.0644
     19 N         -10.8552  -16.2941   19.2036 N.3     1  UNL1       -0.3215
     20 H         -11.2358  -15.5040   19.7245 H       1  UNL1        0.1188
     21 H         -11.2442  -16.2988   18.2607 H       1  UNL1        0.1188
     22 C         -10.7723  -18.8877   19.3312 C.3     1  UNL1        0.0447
     23 C          -9.3778  -19.3806   19.5816 C.ar    1  UNL1        0.0090
     24 C          -8.5784  -18.8223   20.7214 C.ar    1  UNL1        0.0300
     25 C          -7.1840  -19.3152   20.9718 C.ar    1  UNL1        0.1672
     26 F          -6.3845  -18.7570   22.1116 F       1  UNL1       -0.2018
     27 C          -6.5891  -20.3663   20.0823 C.ar    1  UNL1        0.1696
     28 F          -5.1946  -20.8592   20.3327 F       1  UNL1       -0.2017
     29 C          -7.3885  -20.9246   18.9425 C.ar    1  UNL1        0.0612
     30 C          -8.7829  -20.4317   18.6921 C.ar    1  UNL1        0.1386
     31 F          -9.5824  -20.9899   17.5522 F       1  UNL1       -0.2044
@<TRIPOS>BOND
     1     9    10    1
     2    10     8    1
     3     1     8    1
     4     1     2    1
     5     2     3    1
     6     3     4    1
     7     4     5    1
     8     5     6   am
     9     6     7    2
    10     6    17    1
    11    17    18    1
    12    18    19    1
    13    18    22    1
    14    22    23    1
    15    23    24   ar
    16    24    25   ar
    17    25    26    1
    18    25    27   ar
    19    27    28    1
    20    27    29   ar
    21    29    30   ar
    22    30    31    1
    23    10    11   am
    24    11    12    2
    25    11    13    1
    26    13    14    1
    27    13    15    1
    28    13    16    1
    29     5     1    1
    30    30    23   ar
    31    19    20    1
    32    19    21    1
