@<TRIPOS>MOLECULE
*****
 32 35 0 0 0
SMALL
GASTEIGER

@<TRIPOS>ATOM
      1 C          -1.9118    4.2915   23.7711 C.ar    1  UNL1        0.1388
      2 C          -0.9487    3.1571   23.9593 C.ar    1  UNL1        0.0384
      3 C          -0.3052    2.5139   22.7667 C.ar    1  UNL1        0.0221
      4 C          -0.6247    3.0052   21.3860 C.ar    1  UNL1        0.0825
      5 C          -1.5878    4.1397   21.1978 C.ar    1  UNL1        0.0194
      6 C          -2.2313    4.7828   22.3904 C.ar    1  UNL1        0.0382
      7 C          -1.7076    4.4069   19.7266 C.ar    1  UNL1        0.0144
      8 C          -0.8185    3.4376   19.0056 C.ar    1  UNL1        0.0970
      9 N          -0.1493    2.5713   20.0311 N.ar    1  UNL1       -0.2080
     10 S           0.8245    1.4652   19.7510 S.O2    1  UNL1        0.0860
     11 O           1.7966    2.4623   19.1935 O.2     1  UNL1       -0.1476
     12 O          -0.1477    0.4682   20.3085 O.2     1  UNL1       -0.1476
     13 C           1.7982    0.3591   19.4709 C.ar    1  UNL1        0.1277
     14 C           1.9253   -0.7885   20.4282 C.ar    1  UNL1        0.0201
     15 C           2.8991   -1.8947   20.1481 C.ar    1  UNL1       -0.0029
     16 C           3.7457   -1.8530   18.9106 C.ar    1  UNL1       -0.0224
     17 C           3.6186   -0.7053   17.9532 C.ar    1  UNL1       -0.0029
     18 C           2.6448    0.4008   18.2334 C.ar    1  UNL1        0.0201
     19 C           4.7194   -2.9591   18.6304 C.3     1  UNL1        0.0224
     20 C           6.0765   -2.6411   18.0762 C.3     1  UNL1        0.0047
     21 C           4.3360   -4.3831   18.9045 C.3     1  UNL1        0.0047
     22 C          -2.8882    4.1105   26.1719 C.3     1  UNL1        0.2525
     23 O          -2.5553    4.9347   24.9637 O.3     1  UNL1       -0.4714
     24 C          -2.5657    5.4588   19.0885 C.3     1  UNL1        0.1008
     25 N          -4.0474    5.2524   18.9780 N.3     1  UNL1       -0.2677
     26 C          -4.5075    3.8247   18.9800 C.3     1  UNL1        0.0739
     27 C          -5.9069    3.2930   18.8846 C.3     1  UNL1        0.0347
     28 C          -7.1917    4.0578   18.7635 C.3     1  UNL1        0.0736
     29 N          -7.3944    5.5429   18.7081 N.3     1  UNL1       -0.2703
     30 C          -8.8173    6.0013   18.5844 C.3     1  UNL1        0.0897
     31 C          -6.3625    6.6303   18.7599 C.3     1  UNL1        0.0897
     32 C          -4.8729    6.5010   18.8800 C.3     1  UNL1        0.0899
@<TRIPOS>BOND
     1    22    23    1
     2    23     1    1
     3     1     2   ar
     4     2     3   ar
     5     3     4   ar
     6     4     5   ar
     7     5     6   ar
     8     5     7   ar
     9     7    24    1
    10    24    25    1
    11    25    26    1
    12    26    27    1
    13    27    28    1
    14    28    29    1
    15    29    30    1
    16    29    31    1
    17    31    32    1
    18     7     8   ar
    19     8     9   ar
    20     9    10    1
    21    10    11    2
    22    10    12    2
    23    10    13    1
    24    13    14   ar
    25    14    15   ar
    26    15    16   ar
    27    16    19    1
    28    19    20    1
    29    19    21    1
    30    16    17   ar
    31    17    18   ar
    32     6     1   ar
    33    32    25    1
    34    18    13   ar
    35     9     4   ar
@<TRIPOS>MOLECULE
*****
 32 35 0 0 0
SMALL
GASTEIGER

@<TRIPOS>ATOM
      1 C         -10.5980   -5.6576   18.4537 C.ar    1  UNL1        0.1388
      2 C         -10.5517   -4.2414   18.9459 C.ar    1  UNL1        0.0384
      3 C         -11.8002   -3.4100   18.9567 C.ar    1  UNL1        0.0221
      4 C         -13.0949   -3.9948   18.4755 C.ar    1  UNL1        0.0825
      5 C         -13.1412   -5.4109   17.9834 C.ar    1  UNL1        0.0194
      6 C         -11.8927   -6.2423   17.9725 C.ar    1  UNL1        0.0382
      7 C         -14.5520   -5.7132   17.5729 C.ar    1  UNL1        0.0144
      8 C         -15.3776   -4.4838   17.8115 C.ar    1  UNL1        0.0970
      9 N         -14.4770   -3.4218   18.3693 N.ar    1  UNL1       -0.2080
     10 S         -14.8868   -2.0309   18.7534 S.O2    1  UNL1        0.0860
     11 O         -14.4570   -1.5321   17.4057 O.2     1  UNL1       -0.1476
     12 O         -15.3166   -2.5297   20.1011 O.2     1  UNL1       -0.1476
     13 C         -15.2965   -0.6400   19.1376 C.ar    1  UNL1        0.1277
     14 C         -16.4231   -0.4303   20.1054 C.ar    1  UNL1        0.0201
     15 C         -16.8328    0.9606   20.4896 C.ar    1  UNL1       -0.0029
     16 C         -16.1159    2.1418   19.9059 C.ar    1  UNL1       -0.0224
     17 C         -14.9892    1.9321   18.9381 C.ar    1  UNL1       -0.0029
     18 C         -14.5795    0.5412   18.5539 C.ar    1  UNL1        0.0201
     19 C         -16.5255    3.5327   20.2901 C.3     1  UNL1        0.0224
     20 C         -17.7835    4.1261   19.7285 C.3     1  UNL1        0.0047
     21 C         -15.6772    4.3301   21.2358 C.3     1  UNL1        0.0047
     22 C          -9.4256   -7.9600   18.7258 C.3     1  UNL1        0.2525
     23 O          -9.3495   -6.4889   18.4429 O.3     1  UNL1       -0.4714
     24 C         -15.0497   -7.0162   17.0210 C.3     1  UNL1        0.1008
     25 N         -16.1884   -7.7278   17.6895 N.3     1  UNL1       -0.2677
     26 C         -15.9902   -8.0539   19.1402 C.3     1  UNL1        0.0739
     27 C         -16.9294   -8.7519   20.0786 C.3     1  UNL1        0.0347
     28 C         -18.2987   -9.2964   19.7980 C.3     1  UNL1        0.0736
     29 N         -19.0670   -9.2772   18.5099 N.3     1  UNL1       -0.2703
     30 C         -20.4262   -9.9101   18.5533 C.3     1  UNL1        0.0897
     31 C         -18.6557   -8.7089   17.1840 C.3     1  UNL1        0.0897
     32 C         -17.3746   -8.0193   16.8190 C.3     1  UNL1        0.0899
@<TRIPOS>BOND
     1    22    23    1
     2    23     1    1
     3     1     2   ar
     4     2     3   ar
     5     3     4   ar
     6     4     5   ar
     7     5     6   ar
     8     5     7   ar
     9     7    24    1
    10    24    25    1
    11    25    26    1
    12    26    27    1
    13    27    28    1
    14    28    29    1
    15    29    30    1
    16    29    31    1
    17    31    32    1
    18     7     8   ar
    19     8     9   ar
    20     9    10    1
    21    10    11    2
    22    10    12    2
    23    10    13    1
    24    13    14   ar
    25    14    15   ar
    26    15    16   ar
    27    16    19    1
    28    19    20    1
    29    19    21    1
    30    16    17   ar
    31    17    18   ar
    32     6     1   ar
    33    32    25    1
    34    18    13   ar
    35     9     4   ar
@<TRIPOS>MOLECULE
*****
 32 35 0 0 0
SMALL
GASTEIGER

@<TRIPOS>ATOM
      1 C          -1.3701    3.4449   25.0810 C.ar    1  UNL1        0.1388
      2 C          -0.3058    2.3882   25.0557 C.ar    1  UNL1        0.0384
      3 C           0.2136    1.8781   23.7442 C.ar    1  UNL1        0.0221
      4 C          -0.3312    2.4248   22.4580 C.ar    1  UNL1        0.0825
      5 C          -1.3954    3.4815   22.4833 C.ar    1  UNL1        0.0194
      6 C          -1.9149    3.9916   23.7948 C.ar    1  UNL1        0.0382
      7 C          -1.7383    3.8282   21.0647 C.ar    1  UNL1        0.0144
      8 C          -0.8859    2.9857   20.1627 C.ar    1  UNL1        0.0970
      9 N          -0.0163    2.1184   21.0238 N.ar    1  UNL1       -0.2080
     10 S           0.9914    1.1199   20.5363 S.O2    1  UNL1        0.0860
     11 O          -0.0622    0.0522   20.5455 O.2     1  UNL1       -0.1476
     12 O           2.0449    2.1876   20.5271 O.2     1  UNL1       -0.1476
     13 C           1.9991    0.1214   20.0488 C.ar    1  UNL1        0.1277
     14 C           2.4608   -0.9816   20.9544 C.ar    1  UNL1        0.0201
     15 C           3.4685   -1.9801   20.4668 C.ar    1  UNL1       -0.0029
     16 C           4.0145   -1.8754   19.0737 C.ar    1  UNL1       -0.0224
     17 C           3.5528   -0.7724   18.1681 C.ar    1  UNL1       -0.0029
     18 C           2.5451    0.2260   18.6556 C.ar    1  UNL1        0.0201
     19 C           5.0222   -2.8738   18.5861 C.3     1  UNL1        0.0224
     20 C           6.3185   -2.4039   17.9956 C.3     1  UNL1        0.0047
     21 C           4.7335   -4.3422   18.6890 C.3     1  UNL1        0.0047
     22 C          -3.3620    3.9292   26.6771 C.3     1  UNL1        0.2525
     23 O          -1.8895    3.9550   26.3925 O.3     1  UNL1       -0.4714
     24 C          -2.7550    4.8398   20.6254 C.3     1  UNL1        0.1008
     25 N          -3.9514    5.1226   21.4847 N.3     1  UNL1       -0.2677
     26 C          -3.9944    6.4843   22.1126 C.3     1  UNL1        0.0739
     27 C          -5.0433    7.0660   23.0135 C.3     1  UNL1        0.0347
     28 C          -6.3082    6.4298   23.5089 C.3     1  UNL1        0.0736
     29 N          -6.8366    5.0548   23.2258 N.3     1  UNL1       -0.2703
     30 C          -8.1437    4.7131   23.8773 C.3     1  UNL1        0.0897
     31 C          -6.2306    3.9763   22.3775 C.3     1  UNL1        0.0897
     32 C          -4.9466    4.0066   21.6026 C.3     1  UNL1        0.0899
@<TRIPOS>BOND
     1    22    23    1
     2    23     1    1
     3     1     2   ar
     4     2     3   ar
     5     3     4   ar
     6     4     5   ar
     7     5     6   ar
     8     5     7   ar
     9     7    24    1
    10    24    25    1
    11    25    26    1
    12    26    27    1
    13    27    28    1
    14    28    29    1
    15    29    30    1
    16    29    31    1
    17    31    32    1
    18     7     8   ar
    19     8     9   ar
    20     9    10    1
    21    10    11    2
    22    10    12    2
    23    10    13    1
    24    13    14   ar
    25    14    15   ar
    26    15    16   ar
    27    16    19    1
    28    19    20    1
    29    19    21    1
    30    16    17   ar
    31    17    18   ar
    32     6     1   ar
    33    32    25    1
    34    18    13   ar
    35     9     4   ar
@<TRIPOS>MOLECULE
*****
 32 35 0 0 0
SMALL
GASTEIGER

@<TRIPOS>ATOM
      1 C          -2.4905    5.4666   17.4004 C.ar    1  UNL1        0.1388
      2 C          -1.7111    4.3928   16.7008 C.ar    1  UNL1        0.0384
      3 C          -0.8533    3.4514   17.4934 C.ar    1  UNL1        0.0221
      4 C          -0.7750    3.5839   18.9854 C.ar    1  UNL1        0.0825
      5 C          -1.5545    4.6577   19.6850 C.ar    1  UNL1        0.0194
      6 C          -2.4122    5.5990   18.8924 C.ar    1  UNL1        0.0382
      7 C          -1.2814    4.5454   21.1557 C.ar    1  UNL1        0.0144
      8 C          -0.3332    3.4021   21.3650 C.ar    1  UNL1        0.0970
      9 N          -0.0202    2.8079   20.0237 N.ar    1  UNL1       -0.2080
     10 S           0.8881    1.6423   19.7660 S.O2    1  UNL1        0.0860
     11 O          -0.1685    0.7066   20.2741 O.2     1  UNL1       -0.1476
     12 O           1.9446    2.5780   19.2580 O.2     1  UNL1       -0.1476
     13 C           1.7964    0.4767   19.5082 C.ar    1  UNL1        0.1277
     14 C           1.8724   -0.6481   20.4975 C.ar    1  UNL1        0.0201
     15 C           2.7808   -1.8137   20.2398 C.ar    1  UNL1       -0.0029
     16 C           3.6131   -1.8543   18.9926 C.ar    1  UNL1       -0.0224
     17 C           3.5372   -0.7294   18.0033 C.ar    1  UNL1       -0.0029
     18 C           2.6288    0.4361   18.2611 C.ar    1  UNL1        0.0201
     19 C           4.5215   -3.0198   18.7348 C.3     1  UNL1        0.0224
     20 C           4.0374   -4.4175   18.9839 C.3     1  UNL1        0.0047
     21 C           5.9140   -2.7876   18.2279 C.3     1  UNL1        0.0047
     22 C          -4.7762    6.6371   17.0059 C.3     1  UNL1        0.2525
     23 O          -3.3483    6.4080   16.6078 O.3     1  UNL1       -0.4714
     24 C          -1.8557    5.4223   22.2286 C.3     1  UNL1        0.1008
     25 N          -3.1670    5.0679   22.8648 N.3     1  UNL1       -0.2677
     26 C          -3.0849    4.1972   24.0835 C.3     1  UNL1        0.0739
     27 C          -4.2025    3.6746   24.9365 C.3     1  UNL1        0.0347
     28 C          -5.6784    3.8937   24.7817 C.3     1  UNL1        0.0736
     29 N          -6.4010    4.6895   23.7355 N.3     1  UNL1       -0.2703
     30 C          -7.8960    4.7155   23.8549 C.3     1  UNL1        0.0897
     31 C          -5.8264    5.4628   22.5858 C.3     1  UNL1        0.0897
     32 C          -4.3871    5.6312   22.1983 C.3     1  UNL1        0.0899
@<TRIPOS>BOND
     1    22    23    1
     2    23     1    1
     3     1     2   ar
     4     2     3   ar
     5     3     4   ar
     6     4     5   ar
     7     5     6   ar
     8     5     7   ar
     9     7    24    1
    10    24    25    1
    11    25    26    1
    12    26    27    1
    13    27    28    1
    14    28    29    1
    15    29    30    1
    16    29    31    1
    17    31    32    1
    18     7     8   ar
    19     8     9   ar
    20     9    10    1
    21    10    11    2
    22    10    12    2
    23    10    13    1
    24    13    14   ar
    25    14    15   ar
    26    15    16   ar
    27    16    19    1
    28    19    20    1
    29    19    21    1
    30    16    17   ar
    31    17    18   ar
    32     6     1   ar
    33    32    25    1
    34    18    13   ar
    35     9     4   ar
@<TRIPOS>MOLECULE
*****
 32 35 0 0 0
SMALL
GASTEIGER

@<TRIPOS>ATOM
      1 C           7.0369   -4.8423   30.3187 C.ar    1  UNL1        0.1388
      2 C           6.6017   -5.4314   29.0097 C.ar    1  UNL1        0.0384
      3 C           6.2045   -4.5314   27.8773 C.ar    1  UNL1        0.0221
      4 C           6.2424   -3.0423   28.0540 C.ar    1  UNL1        0.0825
      5 C           6.6776   -2.4533   29.3631 C.ar    1  UNL1        0.0194
      6 C           7.0749   -3.3533   30.4954 C.ar    1  UNL1        0.0382
      7 C           6.6147   -0.9593   29.2429 C.ar    1  UNL1        0.0144
      8 C           6.1407   -0.6252   27.8596 C.ar    1  UNL1        0.0970
      9 N           5.9106   -1.9125   27.1248 N.ar    1  UNL1       -0.2080
     10 S           5.4326   -2.0465   25.7094 S.O2    1  UNL1        0.0860
     11 O           6.8146   -2.4411   25.2800 O.2     1  UNL1       -0.1476
     12 O           4.0506   -1.6520   26.1387 O.2     1  UNL1       -0.1476
     13 C           4.9545   -2.1806   24.2939 C.ar    1  UNL1        0.1277
     14 C           5.3676   -3.3651   23.4717 C.ar    1  UNL1        0.0201
     15 C           4.8895   -3.4991   22.0562 C.ar    1  UNL1       -0.0029
     16 C           3.9983   -2.4485   21.4630 C.ar    1  UNL1       -0.0224
     17 C           3.5852   -1.2639   22.2853 C.ar    1  UNL1       -0.0029
     18 C           4.0633   -1.1299   23.7007 C.ar    1  UNL1        0.0201
     19 C           3.5202   -2.5824   20.0476 C.3     1  UNL1        0.0224
     20 C           3.0315   -1.3751   19.3036 C.3     1  UNL1        0.0047
     21 C           3.5308   -3.9237   19.3761 C.3     1  UNL1        0.0047
     22 C           8.7379   -6.4823   31.3990 C.3     1  UNL1        0.2525
     23 O           7.4342   -5.7423   31.4510 O.3     1  UNL1       -0.4714
     24 C           6.9645    0.0271   30.3174 C.3     1  UNL1        0.1008
     25 N           6.3616   -0.1075   31.6842 N.3     1  UNL1       -0.2677
     26 C           4.8929   -0.4107   31.7207 C.3     1  UNL1        0.0739
     27 C           4.0070   -0.6024   32.9159 C.3     1  UNL1        0.0347
     28 C           4.3709   -0.5383   34.3697 C.3     1  UNL1        0.0736
     29 N           5.7106   -0.2667   34.9874 N.3     1  UNL1       -0.2703
     30 C           5.7485   -0.2702   36.4869 C.3     1  UNL1        0.0897
     31 C           7.0172    0.0079   34.3039 C.3     1  UNL1        0.0897
     32 C           7.3069    0.0787   32.8338 C.3     1  UNL1        0.0899
@<TRIPOS>BOND
     1    22    23    1
     2    23     1    1
     3     1     2   ar
     4     2     3   ar
     5     3     4   ar
     6     4     5   ar
     7     5     6   ar
     8     5     7   ar
     9     7    24    1
    10    24    25    1
    11    25    26    1
    12    26    27    1
    13    27    28    1
    14    28    29    1
    15    29    30    1
    16    29    31    1
    17    31    32    1
    18     7     8   ar
    19     8     9   ar
    20     9    10    1
    21    10    11    2
    22    10    12    2
    23    10    13    1
    24    13    14   ar
    25    14    15   ar
    26    15    16   ar
    27    16    19    1
    28    19    20    1
    29    19    21    1
    30    16    17   ar
    31    17    18   ar
    32     6     1   ar
    33    32    25    1
    34    18    13   ar
    35     9     4   ar
@<TRIPOS>MOLECULE
*****
 32 35 0 0 0
SMALL
GASTEIGER

@<TRIPOS>ATOM
      1 C           7.9395   -6.0748   28.6074 C.ar    1  UNL1        0.1388
      2 C           7.2179   -6.1053   27.2927 C.ar    1  UNL1        0.0384
      3 C           6.5204   -4.8757   26.7913 C.ar    1  UNL1        0.0221
      4 C           6.5444   -3.6155   27.6046 C.ar    1  UNL1        0.0825
      5 C           7.2660   -3.5850   28.9192 C.ar    1  UNL1        0.0194
      6 C           7.9636   -4.8147   29.4206 C.ar    1  UNL1        0.0382
      7 C           7.1193   -2.2084   29.4968 C.ar    1  UNL1        0.0144
      8 C           6.3069   -1.3882   28.5390 C.ar    1  UNL1        0.0970
      9 N           5.9517   -2.2578   27.3696 N.ar    1  UNL1       -0.2080
     10 S           5.1452   -1.8426   26.1749 S.O2    1  UNL1        0.0860
     11 O           3.8991   -1.8611   27.0096 O.2     1  UNL1       -0.1476
     12 O           6.3914   -1.8242   25.3402 O.2     1  UNL1       -0.1476
     13 C           4.3388   -1.4275   24.9801 C.ar    1  UNL1        0.1277
     14 C           4.5632   -2.0941   23.6554 C.ar    1  UNL1        0.0201
     15 C           3.7568   -1.6789   22.4606 C.ar    1  UNL1       -0.0029
     16 C           2.7260   -0.5970   22.5908 C.ar    1  UNL1       -0.0224
     17 C           2.5016    0.0696   23.9156 C.ar    1  UNL1       -0.0029
     18 C           3.3080   -0.3456   25.1103 C.ar    1  UNL1        0.0201
     19 C           1.9196   -0.1818   21.3961 C.3     1  UNL1        0.0224
     20 C           1.9223   -1.0289   20.1581 C.3     1  UNL1        0.0047
     21 C           1.1104    1.0805   21.4393 C.3     1  UNL1        0.0047
     22 C           9.0213   -8.3923   28.1502 C.3     1  UNL1        0.2525
     23 O           8.6371   -7.3045   29.1088 O.3     1  UNL1       -0.4714
     24 C           7.6854   -1.7352   30.8027 C.3     1  UNL1        0.1008
     25 N           6.7874   -1.5665   31.9923 N.3     1  UNL1       -0.2677
     26 C           5.5187   -2.3667   31.9687 C.3     1  UNL1        0.0739
     27 C           4.4262   -2.4179   32.9951 C.3     1  UNL1        0.0347
     28 C           4.3324   -1.6817   34.2988 C.3     1  UNL1        0.0736
     29 N           5.3079   -0.7125   34.8978 N.3     1  UNL1       -0.2703
     30 C           4.9221   -0.1401   36.2295 C.3     1  UNL1        0.0897
     31 C           6.6183   -0.2400   34.3413 C.3     1  UNL1        0.0897
     32 C           7.2767   -0.6202   33.0482 C.3     1  UNL1        0.0899
@<TRIPOS>BOND
     1    22    23    1
     2    23     1    1
     3     1     2   ar
     4     2     3   ar
     5     3     4   ar
     6     4     5   ar
     7     5     6   ar
     8     5     7   ar
     9     7    24    1
    10    24    25    1
    11    25    26    1
    12    26    27    1
    13    27    28    1
    14    28    29    1
    15    29    30    1
    16    29    31    1
    17    31    32    1
    18     7     8   ar
    19     8     9   ar
    20     9    10    1
    21    10    11    2
    22    10    12    2
    23    10    13    1
    24    13    14   ar
    25    14    15   ar
    26    15    16   ar
    27    16    19    1
    28    19    20    1
    29    19    21    1
    30    16    17   ar
    31    17    18   ar
    32     6     1   ar
    33    32    25    1
    34    18    13   ar
    35     9     4   ar
@<TRIPOS>MOLECULE
*****
 32 35 0 0 0
SMALL
GASTEIGER

@<TRIPOS>ATOM
      1 C           8.7391   -6.8520   25.7953 C.ar    1  UNL1        0.1388
      2 C           8.0705   -6.8289   24.4528 C.ar    1  UNL1        0.0384
      3 C           7.4642   -5.5568   23.9387 C.ar    1  UNL1        0.0221
      4 C           7.5266   -4.3079   24.7670 C.ar    1  UNL1        0.0825
      5 C           8.1953   -4.3310   26.1095 C.ar    1  UNL1        0.0194
      6 C           8.8015   -5.6030   26.6236 C.ar    1  UNL1        0.0382
      7 C           8.1033   -2.9538   26.6970 C.ar    1  UNL1        0.0144
      8 C           7.3778   -2.0796   25.7175 C.ar    1  UNL1        0.0970
      9 N           7.0214   -2.9165   24.5247 N.ar    1  UNL1       -0.2080
     10 S           6.2884   -2.4447   23.3040 S.O2    1  UNL1        0.0860
     11 O           5.0020   -2.9619   23.8765 O.2     1  UNL1       -0.1476
     12 O           7.5748   -1.9276   22.7314 O.2     1  UNL1       -0.1476
     13 C           5.5555   -1.9730   22.0831 C.ar    1  UNL1        0.1277
     14 C           4.0590   -1.8728   22.0988 C.ar    1  UNL1        0.0201
     15 C           3.3260   -1.4010   20.8779 C.ar    1  UNL1       -0.0029
     16 C           4.0898   -1.0295   19.6415 C.ar    1  UNL1       -0.0224
     17 C           5.5863   -1.1297   19.6260 C.ar    1  UNL1       -0.0029
     18 C           6.3192   -1.6014   20.8468 C.ar    1  UNL1        0.0201
     19 C           3.3569   -0.5577   18.4207 C.3     1  UNL1        0.0224
     20 C           2.1218    0.2811   18.5648 C.3     1  UNL1        0.0047
     21 C           3.8592   -0.9248   17.0559 C.3     1  UNL1        0.0047
     22 C           8.7050   -8.8507   27.4547 C.3     1  UNL1        0.2525
     23 O           9.3454   -8.1240   26.3094 O.3     1  UNL1       -0.4714
     24 C           8.6422   -2.5260   28.0298 C.3     1  UNL1        0.1008
     25 N           7.8591   -2.8021   29.2791 N.3     1  UNL1       -0.2677
     26 C           8.2680   -4.0242   30.0467 C.3     1  UNL1        0.0739
     27 C           7.6894   -4.5656   31.3204 C.3     1  UNL1        0.0347
     28 C           6.5591   -4.0185   32.1409 C.3     1  UNL1        0.0736
     29 N           5.7283   -2.7950   31.8905 N.3     1  UNL1       -0.2703
     30 C           4.6623   -2.5129   32.9074 C.3     1  UNL1        0.0897
     31 C           5.8225   -1.8163   30.7577 C.3     1  UNL1        0.0897
     32 C           6.7708   -1.8195   29.5955 C.3     1  UNL1        0.0899
@<TRIPOS>BOND
     1    22    23    1
     2    23     1    1
     3     1     2   ar
     4     2     3   ar
     5     3     4   ar
     6     4     5   ar
     7     5     6   ar
     8     5     7   ar
     9     7    24    1
    10    24    25    1
    11    25    26    1
    12    26    27    1
    13    27    28    1
    14    28    29    1
    15    29    30    1
    16    29    31    1
    17    31    32    1
    18     7     8   ar
    19     8     9   ar
    20     9    10    1
    21    10    11    2
    22    10    12    2
    23    10    13    1
    24    13    14   ar
    25    14    15   ar
    26    15    16   ar
    27    16    19    1
    28    19    20    1
    29    19    21    1
    30    16    17   ar
    31    17    18   ar
    32     6     1   ar
    33    32    25    1
    34    18    13   ar
    35     9     4   ar
@<TRIPOS>MOLECULE
*****
 32 35 0 0 0
SMALL
GASTEIGER

@<TRIPOS>ATOM
      1 C           8.4229   -0.1087   19.5873 C.ar    1  UNL1        0.1388
      2 C           9.1975   -0.6807   20.7374 C.ar    1  UNL1        0.0384
      3 C           8.6185   -1.8026   21.5475 C.ar    1  UNL1        0.0221
      4 C           7.2650   -2.3524   21.2075 C.ar    1  UNL1        0.0825
      5 C           6.4904   -1.7803   20.0575 C.ar    1  UNL1        0.0194
      6 C           7.0693   -0.6584   19.2474 C.ar    1  UNL1        0.0382
      7 C           5.1898   -2.5214   19.9602 C.ar    1  UNL1        0.0144
      8 C           5.1607   -3.5515   21.0501 C.ar    1  UNL1        0.0970
      9 N           6.4432   -3.4470   21.8210 N.ar    1  UNL1       -0.2080
     10 S           6.8352   -4.2894   22.9986 S.O2    1  UNL1        0.0860
     11 O           5.9902   -3.4317   23.8933 O.2     1  UNL1       -0.1476
     12 O           7.6801   -5.1470   22.1040 O.2     1  UNL1       -0.1476
     13 C           7.2272   -5.1318   24.1763 C.ar    1  UNL1        0.1277
     14 C           6.8173   -4.7234   25.5602 C.ar    1  UNL1        0.0201
     15 C           7.2093   -5.5658   26.7378 C.ar    1  UNL1       -0.0029
     16 C           8.0112   -6.8165   26.5314 C.ar    1  UNL1       -0.0224
     17 C           8.4211   -7.2249   25.1475 C.ar    1  UNL1       -0.0029
     18 C           8.0291   -6.3825   23.9699 C.ar    1  UNL1        0.0201
     19 C           8.4032   -7.6589   27.7090 C.3     1  UNL1        0.0224
     20 C           8.6969   -7.0114   29.0298 C.3     1  UNL1        0.0047
     21 C           8.5016   -9.1488   27.5658 C.3     1  UNL1        0.0047
     22 C           8.7906    2.4349   19.2064 C.3     1  UNL1        0.2525
     23 O           9.0018    1.0132   18.7772 O.3     1  UNL1       -0.4714
     24 C           4.1084   -2.2755   18.9502 C.3     1  UNL1        0.1008
     25 N           3.1841   -1.1051   19.1110 N.3     1  UNL1       -0.2677
     26 C           2.0284   -1.3120   20.0448 C.3     1  UNL1        0.0739
     27 C           0.9409   -0.3474   20.4149 C.3     1  UNL1        0.0347
     28 C           0.7405    1.0622   19.9428 C.3     1  UNL1        0.0736
     29 N           1.5780    1.8553   18.9839 N.3     1  UNL1       -0.2703
     30 C           1.1086    3.2539   18.7128 C.3     1  UNL1        0.0897
     31 C           2.8229    1.4348   18.2603 C.3     1  UNL1        0.0897
     32 C           3.5376    0.1173   18.3169 C.3     1  UNL1        0.0899
@<TRIPOS>BOND
     1    22    23    1
     2    23     1    1
     3     1     2   ar
     4     2     3   ar
     5     3     4   ar
     6     4     5   ar
     7     5     6   ar
     8     5     7   ar
     9     7    24    1
    10    24    25    1
    11    25    26    1
    12    26    27    1
    13    27    28    1
    14    28    29    1
    15    29    30    1
    16    29    31    1
    17    31    32    1
    18     7     8   ar
    19     8     9   ar
    20     9    10    1
    21    10    11    2
    22    10    12    2
    23    10    13    1
    24    13    14   ar
    25    14    15   ar
    26    15    16   ar
    27    16    19    1
    28    19    20    1
    29    19    21    1
    30    16    17   ar
    31    17    18   ar
    32     6     1   ar
    33    32    25    1
    34    18    13   ar
    35     9     4   ar
@<TRIPOS>MOLECULE
*****
 32 35 0 0 0
SMALL
GASTEIGER

@<TRIPOS>ATOM
      1 C          -2.2851    5.4044   17.7936 C.ar    1  UNL1        0.1388
      2 C          -1.3568    4.5042   17.0336 C.ar    1  UNL1        0.0384
      3 C          -0.5704    3.4529   17.7593 C.ar    1  UNL1        0.0221
      4 C          -0.7123    3.3020   19.2449 C.ar    1  UNL1        0.0825
      5 C          -1.6407    4.2023   20.0048 C.ar    1  UNL1        0.0194
      6 C          -2.4271    5.2535   19.2792 C.ar    1  UNL1        0.0382
      7 C          -1.5738    3.8204   21.4539 C.ar    1  UNL1        0.0144
      8 C          -0.6040    2.6841   21.5895 C.ar    1  UNL1        0.0970
      9 N          -0.0716    2.3637   20.2242 N.ar    1  UNL1       -0.2080
     10 S           0.9263    1.2931   19.8959 S.O2    1  UNL1        0.0860
     11 O           1.9410    2.3436   19.5543 O.2     1  UNL1       -0.1476
     12 O          -0.0885    0.2426   20.2375 O.2     1  UNL1       -0.1476
     13 C           1.9242    0.2223   19.5676 C.ar    1  UNL1        0.1277
     14 C           2.6751    0.2692   18.2701 C.ar    1  UNL1        0.0201
     15 C           3.6730   -0.8016   17.9418 C.ar    1  UNL1       -0.0029
     16 C           3.9199   -1.9193   18.9112 C.ar    1  UNL1       -0.0224
     17 C           3.1689   -1.9662   20.2088 C.ar    1  UNL1       -0.0029
     18 C           2.1710   -0.8955   20.5370 C.ar    1  UNL1        0.0201
     19 C           4.9177   -2.9900   18.5829 C.3     1  UNL1        0.0224
     20 C           4.5633   -4.4333   18.7862 C.3     1  UNL1        0.0047
     21 C           6.2700   -2.6175   18.0514 C.3     1  UNL1        0.0047
     22 C          -4.5044    6.2024   16.7036 C.3     1  UNL1        0.2525
     23 O          -3.0715    6.4556   17.0680 O.3     1  UNL1       -0.4714
     24 C          -2.3418    4.4622   22.5712 C.3     1  UNL1        0.1008
     25 N          -1.7642    4.4970   23.9551 N.3     1  UNL1       -0.2677
     26 C          -2.2641    3.4408   24.8957 C.3     1  UNL1        0.0739
     27 C          -1.8863    3.2102   26.3289 C.3     1  UNL1        0.0347
     28 C          -0.9154    3.9787   27.1755 C.3     1  UNL1        0.0736
     29 N          -0.0825    5.1677   26.7980 N.3     1  UNL1       -0.2703
     30 C           0.7993    5.7149   27.8811 C.3     1  UNL1        0.0897
     31 C          -0.0147    5.8818   25.4806 C.3     1  UNL1        0.0897
     32 C          -0.7631    5.5833   24.2154 C.3     1  UNL1        0.0899
@<TRIPOS>BOND
     1    22    23    1
     2    23     1    1
     3     1     2   ar
     4     2     3   ar
     5     3     4   ar
     6     4     5   ar
     7     5     6   ar
     8     5     7   ar
     9     7    24    1
    10    24    25    1
    11    25    26    1
    12    26    27    1
    13    27    28    1
    14    28    29    1
    15    29    30    1
    16    29    31    1
    17    31    32    1
    18     7     8   ar
    19     8     9   ar
    20     9    10    1
    21    10    11    2
    22    10    12    2
    23    10    13    1
    24    13    14   ar
    25    14    15   ar
    26    15    16   ar
    27    16    19    1
    28    19    20    1
    29    19    21    1
    30    16    17   ar
    31    17    18   ar
    32     6     1   ar
    33    32    25    1
    34    18    13   ar
    35     9     4   ar
