@<TRIPOS>MOLECULE
*****
 24 26 0 0 0
SMALL
GASTEIGER

@<TRIPOS>ATOM
      1 C          -4.5027  -19.1409   21.4701 C.3     1  UNL1        0.1025
      2 C          -5.6649  -18.5888   22.2411 C.3     1  UNL1        0.0327
      3 C          -7.0590  -18.7426   21.7090 C.3     1  UNL1        0.0943
      4 N          -7.2907  -19.4484   20.4059 N.am    1  UNL1       -0.2761
      5 C          -8.6847  -19.6022   19.8738 C.2     1  UNL1        0.2490
      6 O          -8.9164  -20.3080   18.5707 O.2     1  UNL1       -0.2699
      7 C          -6.1284  -20.0005   19.6349 C.3     1  UNL1        0.0943
      8 C          -4.7345  -19.8467   20.1670 C.3     1  UNL1        0.0327
      9 C          -9.8470  -19.0501   20.6448 C.ar    1  UNL1        0.0542
     10 C         -10.7199  -17.9950   20.0325 C.ar    1  UNL1        0.0061
     11 C         -11.8821  -17.4429   20.8035 C.ar    1  UNL1        0.0198
     12 C         -12.1714  -17.9460   22.1867 C.ar    1  UNL1        0.0892
     13 N         -13.2383  -17.5930   23.1804 N.ar    1  UNL1       -0.2245
     14 C         -13.0247  -18.4299   24.4067 C.ar    1  UNL1        0.1567
     15 N         -13.8628  -18.4017   25.6505 N.pl3   1  UNL1       -0.3375
     16 S         -11.8259  -19.3002   24.1709 S.2     1  UNL1       -0.0520
     17 C         -11.2985  -19.0011   22.7989 C.ar    1  UNL1        0.0498
     18 C         -10.1363  -19.5531   22.0280 C.ar    1  UNL1        0.0126
     19 H         -14.6340  -17.7927   25.7107 H       1  UNL1        0.1442
     20 H         -13.6416  -18.9921   26.4066 H       1  UNL1        0.1442
     21 C          -3.1088  -18.9872   22.0023 C.2     1  UNL1        0.3167
     22 O          -2.0955  -20.0697   21.7749 O.2     1  UNL1       -0.2501
     23 C          -2.3790  -16.4937   22.0216 C.3     1  UNL1        0.2556
     24 O          -2.7280  -17.7510   22.7617 O.3     1  UNL1       -0.4444
@<TRIPOS>BOND
     1    23    24    1
     2    24    21    1
     3    21    22    2
     4    21     1    1
     5     1     2    1
     6     2     3    1
     7     3     4    1
     8     4     5   am
     9     5     6    2
    10     5     9    1
    11     9    10   ar
    12    10    11   ar
    13    11    12   ar
    14    12    13   ar
    15    13    14   ar
    16    14    15    1
    17    14    16   ar
    18    16    17   ar
    19    17    18   ar
    20     4     7    1
    21     7     8    1
    22     8     1    1
    23    18     9   ar
    24    17    12   ar
    25    15    19    1
    26    15    20    1
@<TRIPOS>MOLECULE
*****
 24 26 0 0 0
SMALL
GASTEIGER

@<TRIPOS>ATOM
      1 C           0.9859    0.9007   28.6017 C.3     1  UNL1        0.1025
      2 C          -0.0882    0.6474   27.5858 C.3     1  UNL1        0.0327
      3 C          -0.8902    1.7920   27.0410 C.3     1  UNL1        0.0943
      4 N          -0.6180    3.1898   27.5120 N.am    1  UNL1       -0.2761
      5 C          -1.4200    4.3344   26.9672 C.2     1  UNL1        0.2490
      6 O          -1.1478    5.7322   27.4383 O.2     1  UNL1       -0.2699
      7 C           0.4561    3.4431   28.5280 C.3     1  UNL1        0.0943
      8 C           1.2581    2.2986   29.0728 C.3     1  UNL1        0.0327
      9 C          -2.4941    4.0811   25.9513 C.ar    1  UNL1        0.0542
     10 C          -3.9218    3.9389   26.3888 C.ar    1  UNL1        0.0061
     11 C          -4.9958    3.6856   25.3729 C.ar    1  UNL1        0.0198
     12 C          -4.6423    3.5746   23.9194 C.ar    1  UNL1        0.0892
     13 N          -5.4791    3.3306   22.6986 N.ar    1  UNL1       -0.2245
     14 C          -4.5686    3.3220   21.5066 C.ar    1  UNL1        0.1567
     15 N          -4.9846    3.1117   20.0808 N.pl3   1  UNL1       -0.3375
     16 S          -3.1691    3.5607   21.9907 S.2     1  UNL1       -0.0520
     17 C          -3.2146    3.7168   23.4818 C.ar    1  UNL1        0.0498
     18 C          -2.1405    3.9701   24.4978 C.ar    1  UNL1        0.0126
     19 H          -5.9326    2.9618   19.8616 H       1  UNL1        0.1442
     20 H          -4.3096    3.1236   19.3643 H       1  UNL1        0.1442
     21 C           1.7879   -0.2438   29.1465 C.2     1  UNL1        0.3167
     22 O           2.5330   -1.1498   28.2115 O.2     1  UNL1       -0.2501
     23 C           3.1695   -0.5264   31.3286 C.3     1  UNL1        0.2556
     24 O           1.8447   -0.4825   30.6263 O.3     1  UNL1       -0.4444
@<TRIPOS>BOND
     1    23    24    1
     2    24    21    1
     3    21    22    2
     4    21     1    1
     5     1     2    1
     6     2     3    1
     7     3     4    1
     8     4     5   am
     9     5     6    2
    10     5     9    1
    11     9    10   ar
    12    10    11   ar
    13    11    12   ar
    14    12    13   ar
    15    13    14   ar
    16    14    15    1
    17    14    16   ar
    18    16    17   ar
    19    17    18   ar
    20     4     7    1
    21     7     8    1
    22     8     1    1
    23    18     9   ar
    24    17    12   ar
    25    15    19    1
    26    15    20    1
@<TRIPOS>MOLECULE
*****
 24 26 0 0 0
SMALL
GASTEIGER

@<TRIPOS>ATOM
      1 C           2.8852    0.5538   18.1771 C.3     1  UNL1        0.1025
      2 C           1.4333    0.3829   18.5127 C.3     1  UNL1        0.0327
      3 C           0.6119    1.5712   18.9167 C.3     1  UNL1        0.0943
      4 N           1.2425    2.9305   18.9852 N.am    1  UNL1       -0.2761
      5 C           0.4212    4.1188   19.3892 C.2     1  UNL1        0.2490
      6 O           1.0518    5.4781   19.4577 O.2     1  UNL1       -0.2699
      7 C           2.6945    3.1014   18.6496 C.3     1  UNL1        0.0943
      8 C           3.5158    1.9131   18.2456 C.3     1  UNL1        0.0327
      9 C          -1.0308    3.9479   19.7248 C.ar    1  UNL1        0.0542
     10 C          -1.4447    3.6516   21.1357 C.ar    1  UNL1        0.0061
     11 C          -2.8966    3.4807   21.4712 C.ar    1  UNL1        0.0198
     12 C          -3.9347    3.6061   20.3958 C.ar    1  UNL1        0.0892
     13 N          -5.4300    3.4896   20.4256 N.ar    1  UNL1       -0.2245
     14 C          -5.9402    3.7139   19.0330 C.ar    1  UNL1        0.1567
     15 N          -7.3778    3.6877   18.6057 N.pl3   1  UNL1       -0.3375
     16 S          -4.7603    3.9691   18.1426 S.2     1  UNL1       -0.0520
     17 C          -3.5209    3.9025   18.9848 C.ar    1  UNL1        0.0498
     18 C          -2.0689    4.0734   18.6493 C.ar    1  UNL1        0.0126
     19 H          -8.0849    3.5106   19.2675 H       1  UNL1        0.1442
     20 H          -7.6144    3.8475   17.6635 H       1  UNL1        0.1442
     21 C           3.7065   -0.6345   17.7731 C.2     1  UNL1        0.3167
     22 O           3.9199   -0.9398   16.3200 O.2     1  UNL1       -0.2501
     23 C           3.5975   -2.7584   19.2655 C.3     1  UNL1        0.2556
     24 O           4.3145   -1.5177   18.8221 O.3     1  UNL1       -0.4444
@<TRIPOS>BOND
     1    23    24    1
     2    24    21    1
     3    21    22    2
     4    21     1    1
     5     1     2    1
     6     2     3    1
     7     3     4    1
     8     4     5   am
     9     5     6    2
    10     5     9    1
    11     9    10   ar
    12    10    11   ar
    13    11    12   ar
    14    12    13   ar
    15    13    14   ar
    16    14    15    1
    17    14    16   ar
    18    16    17   ar
    19    17    18   ar
    20     4     7    1
    21     7     8    1
    22     8     1    1
    23    18     9   ar
    24    17    12   ar
    25    15    19    1
    26    15    20    1
@<TRIPOS>MOLECULE
*****
 24 26 0 0 0
SMALL
GASTEIGER

@<TRIPOS>ATOM
      1 C           0.5959    1.4659   20.5938 C.3     1  UNL1        0.1025
      2 C           1.4648    0.4509   21.2755 C.3     1  UNL1        0.0327
      3 C           2.4362   -0.3642   20.4742 C.3     1  UNL1        0.0943
      4 N           2.5386   -0.1643   18.9911 N.am    1  UNL1       -0.2761
      5 C           3.5099   -0.9794   18.1898 C.2     1  UNL1        0.2490
      6 O           3.6123   -0.7796   16.7067 O.2     1  UNL1       -0.2699
      7 C           1.6696    0.8507   18.3094 C.3     1  UNL1        0.0943
      8 C           0.6983    1.6658   19.1107 C.3     1  UNL1        0.0327
      9 C           4.3788   -1.9944   18.8716 C.ar    1  UNL1        0.0542
     10 C           3.9672   -3.4365   18.8994 C.ar    1  UNL1        0.0061
     11 C           4.8362   -4.4515   19.5811 C.ar    1  UNL1        0.0198
     12 C           6.1167   -4.0243   20.2351 C.ar    1  UNL1        0.0892
     13 N           7.1698   -4.7927   20.9771 N.ar    1  UNL1       -0.2245
     14 C           8.2323   -3.8255   21.4079 C.ar    1  UNL1        0.1567
     15 N           9.4734   -4.1648   22.1790 N.pl3   1  UNL1       -0.3375
     16 S           7.8358   -2.4593   20.9321 S.2     1  UNL1       -0.0520
     17 C           6.5284   -2.5822   20.2073 C.ar    1  UNL1        0.0498
     18 C           5.6594   -1.5672   19.5255 C.ar    1  UNL1        0.0126
     19 H           9.6467   -5.0959   22.4479 H       1  UNL1        0.1442
     20 H          10.1146   -3.4564   22.4163 H       1  UNL1        0.1442
     21 C          -0.3754    2.2810   21.3951 C.2     1  UNL1        0.3167
     22 O          -0.0064    2.7469   22.7724 O.2     1  UNL1       -0.2501
     23 C          -1.9851    4.0255   20.3389 C.3     1  UNL1        0.2556
     24 O          -1.7157    2.6302   20.8192 O.3     1  UNL1       -0.4444
@<TRIPOS>BOND
     1    23    24    1
     2    24    21    1
     3    21    22    2
     4    21     1    1
     5     1     2    1
     6     2     3    1
     7     3     4    1
     8     4     5   am
     9     5     6    2
    10     5     9    1
    11     9    10   ar
    12    10    11   ar
    13    11    12   ar
    14    12    13   ar
    15    13    14   ar
    16    14    15    1
    17    14    16   ar
    18    16    17   ar
    19    17    18   ar
    20     4     7    1
    21     7     8    1
    22     8     1    1
    23    18     9   ar
    24    17    12   ar
    25    15    19    1
    26    15    20    1
@<TRIPOS>MOLECULE
*****
 24 26 0 0 0
SMALL
GASTEIGER

@<TRIPOS>ATOM
      1 C           2.2760   -0.5778   19.9505 C.3     1  UNL1        0.1025
      2 C           1.2401   -0.2946   20.9977 C.3     1  UNL1        0.0327
      3 C           0.3370    0.8948   20.8570 C.3     1  UNL1        0.0943
      4 N           0.4698    1.8009   19.6690 N.am    1  UNL1       -0.2761
      5 C          -0.4333    2.9903   19.5283 C.2     1  UNL1        0.2490
      6 O          -0.3004    3.8965   18.3403 O.2     1  UNL1       -0.2699
      7 C           1.5058    1.5177   18.6218 C.3     1  UNL1        0.0943
      8 C           2.4088    0.3283   18.7626 C.3     1  UNL1        0.0327
      9 C          -1.4692    3.2736   20.5755 C.ar    1  UNL1        0.0542
     10 C          -1.0482    3.6088   21.9756 C.ar    1  UNL1        0.0061
     11 C          -2.0841    3.8921   23.0228 C.ar    1  UNL1        0.0198
     12 C          -3.5411    3.8400   22.6698 C.ar    1  UNL1        0.0892
     13 N          -4.7799    4.0706   23.4838 N.ar    1  UNL1       -0.2245
     14 C          -5.9664    3.8778   22.5866 C.ar    1  UNL1        0.1567
     15 N          -7.4058    4.0113   22.9874 N.pl3   1  UNL1       -0.3375
     16 S          -5.4610    3.5281   21.2183 S.2     1  UNL1       -0.0520
     17 C          -3.9621    3.5048   21.2697 C.ar    1  UNL1        0.0498
     18 C          -2.9262    3.2215   20.2226 C.ar    1  UNL1        0.0126
     19 H          -7.6388    4.2457   23.9148 H       1  UNL1        0.1442
     20 H          -8.1174    3.8646   22.3231 H       1  UNL1        0.1442
     21 C           3.1791   -1.7672   20.0913 C.2     1  UNL1        0.3167
     22 O           3.8161   -2.0728   21.4145 O.2     1  UNL1       -0.2501
     23 C           3.4323   -4.1424   19.0693 C.3     1  UNL1        0.2556
     24 O           3.4451   -2.6510   18.9089 O.3     1  UNL1       -0.4444
@<TRIPOS>BOND
     1    23    24    1
     2    24    21    1
     3    21    22    2
     4    21     1    1
     5     1     2    1
     6     2     3    1
     7     3     4    1
     8     4     5   am
     9     5     6    2
    10     5     9    1
    11     9    10   ar
    12    10    11   ar
    13    11    12   ar
    14    12    13   ar
    15    13    14   ar
    16    14    15    1
    17    14    16   ar
    18    16    17   ar
    19    17    18   ar
    20     4     7    1
    21     7     8    1
    22     8     1    1
    23    18     9   ar
    24    17    12   ar
    25    15    19    1
    26    15    20    1
@<TRIPOS>MOLECULE
*****
 24 26 0 0 0
SMALL
GASTEIGER

@<TRIPOS>ATOM
      1 C           2.7535    0.3936   18.4566 C.3     1  UNL1        0.1025
      2 C           1.3807    0.2276   19.0377 C.3     1  UNL1        0.0327
      3 C           0.5718    1.4354   19.4079 C.3     1  UNL1        0.0943
      4 N           1.1359    2.8092   19.1970 N.am    1  UNL1       -0.2761
      5 C           0.3271    4.0170   19.5671 C.2     1  UNL1        0.2490
      6 O           0.8911    5.3908   19.3562 O.2     1  UNL1       -0.2699
      7 C           2.5088    2.9752   18.6158 C.3     1  UNL1        0.0943
      8 C           3.3176    1.7674   18.2456 C.3     1  UNL1        0.0327
      9 C          -1.0458    3.8510   20.1483 C.ar    1  UNL1        0.0542
     10 C          -2.2294    3.6882   19.2415 C.ar    1  UNL1        0.0061
     11 C          -3.6022    3.5222   19.8227 C.ar    1  UNL1        0.0198
     12 C          -3.7914    3.5191   21.3107 C.ar    1  UNL1        0.0892
     13 N          -5.0149    3.3759   22.1666 N.ar    1  UNL1       -0.2245
     14 C          -4.5874    3.4503   23.6025 C.ar    1  UNL1        0.1567
     15 N          -5.4892    3.3527   24.7972 N.pl3   1  UNL1       -0.3375
     16 S          -3.0997    3.6394   23.6339 S.2     1  UNL1       -0.0520
     17 C          -2.6078    3.6820   22.2175 C.ar    1  UNL1        0.0498
     18 C          -1.2350    3.8479   21.6363 C.ar    1  UNL1        0.0126
     19 H          -6.4580    3.2281   24.6738 H       1  UNL1        0.1442
     20 H          -5.1123    3.4132   25.7047 H       1  UNL1        0.1442
     21 C           3.5623   -0.8142   18.0864 C.2     1  UNL1        0.3167
     22 O           4.1462   -0.9327   16.7098 O.2     1  UNL1       -0.2501
     23 C           4.5528   -3.1345   18.7072 C.3     1  UNL1        0.2556
     24 O           3.7872   -1.9035   19.0928 O.3     1  UNL1       -0.4444
@<TRIPOS>BOND
     1    23    24    1
     2    24    21    1
     3    21    22    2
     4    21     1    1
     5     1     2    1
     6     2     3    1
     7     3     4    1
     8     4     5   am
     9     5     6    2
    10     5     9    1
    11     9    10   ar
    12    10    11   ar
    13    11    12   ar
    14    12    13   ar
    15    13    14   ar
    16    14    15    1
    17    14    16   ar
    18    16    17   ar
    19    17    18   ar
    20     4     7    1
    21     7     8    1
    22     8     1    1
    23    18     9   ar
    24    17    12   ar
    25    15    19    1
    26    15    20    1
@<TRIPOS>MOLECULE
*****
 24 26 0 0 0
SMALL
GASTEIGER

@<TRIPOS>ATOM
      1 C           4.6778   -2.7597   21.5775 C.3     1  UNL1        0.1025
      2 C           4.4396   -2.5552   23.0442 C.3     1  UNL1        0.0327
      3 C           5.4850   -2.9664   24.0383 C.3     1  UNL1        0.0943
      4 N           6.7686   -3.5819   23.5656 N.am    1  UNL1       -0.2761
      5 C           7.8140   -3.9931   24.5596 C.2     1  UNL1        0.2490
      6 O           9.0976   -4.6086   24.0868 O.2     1  UNL1       -0.2699
      7 C           7.0067   -3.7864   22.0987 C.3     1  UNL1        0.0943
      8 C           5.9613   -3.3753   21.1047 C.3     1  UNL1        0.0327
      9 C           7.5759   -3.7886   26.0264 C.ar    1  UNL1        0.0542
     10 C           7.4601   -2.3997   26.5810 C.ar    1  UNL1        0.0061
     11 C           7.2220   -2.1953   28.0478 C.ar    1  UNL1        0.0198
     12 C           7.0996   -3.3798   28.9599 C.ar    1  UNL1        0.0892
     13 N           6.8659   -3.4887   30.4377 N.ar    1  UNL1       -0.2245
     14 C           6.8371   -4.9449   30.7963 C.ar    1  UNL1        0.1567
     15 N           6.6290   -5.5107   32.1699 N.pl3   1  UNL1       -0.3375
     16 S           7.0531   -5.7359   29.5403 S.2     1  UNL1       -0.0520
     17 C           7.2153   -4.7686   28.4054 C.ar    1  UNL1        0.0498
     18 C           7.4534   -4.9730   26.9386 C.ar    1  UNL1        0.0126
     19 H           6.4949   -4.9070   32.9358 H       1  UNL1        0.1442
     20 H           6.6264   -6.4859   32.3053 H       1  UNL1        0.1442
     21 C           3.6324   -2.3486   20.5835 C.2     1  UNL1        0.3167
     22 O           2.6594   -1.2593   20.9255 O.2     1  UNL1       -0.2501
     23 C           3.2214   -4.4857   19.1643 C.3     1  UNL1        0.2556
     24 O           3.5599   -3.0267   19.2475 O.3     1  UNL1       -0.4444
@<TRIPOS>BOND
     1    23    24    1
     2    24    21    1
     3    21    22    2
     4    21     1    1
     5     1     2    1
     6     2     3    1
     7     3     4    1
     8     4     5   am
     9     5     6    2
    10     5     9    1
    11     9    10   ar
    12    10    11   ar
    13    11    12   ar
    14    12    13   ar
    15    13    14   ar
    16    14    15    1
    17    14    16   ar
    18    16    17   ar
    19    17    18   ar
    20     4     7    1
    21     7     8    1
    22     8     1    1
    23    18     9   ar
    24    17    12   ar
    25    15    19    1
    26    15    20    1
@<TRIPOS>MOLECULE
*****
 24 26 0 0 0
SMALL
GASTEIGER

@<TRIPOS>ATOM
      1 C           4.6477   -2.3308   20.6032 C.3     1  UNL1        0.1025
      2 C           4.5428   -3.0368   21.9224 C.3     1  UNL1        0.0327
      3 C           5.7122   -3.8119   22.4534 C.3     1  UNL1        0.0943
      4 N           6.9864   -3.8809   21.6650 N.am    1  UNL1       -0.2761
      5 C           8.1558   -4.6559   22.1959 C.2     1  UNL1        0.2490
      6 O           9.4300   -4.7249   21.4075 O.2     1  UNL1       -0.2699
      7 C           7.0913   -3.1749   20.3457 C.3     1  UNL1        0.0943
      8 C           5.9219   -2.3998   19.8148 C.3     1  UNL1        0.0327
      9 C           8.0510   -5.3620   23.5152 C.ar    1  UNL1        0.0542
     10 C           8.3491   -6.8292   23.6065 C.ar    1  UNL1        0.0061
     11 C           8.2443   -7.5351   24.9258 C.ar    1  UNL1        0.0198
     12 C           7.8413   -6.7739   26.1538 C.ar    1  UNL1        0.0892
     13 N           7.6546   -7.1970   27.5808 N.ar    1  UNL1       -0.2245
     14 C           7.2410   -5.9912   28.3714 C.ar    1  UNL1        0.1567
     15 N           6.9478   -5.9593   29.8422 N.pl3   1  UNL1       -0.3375
     16 S           7.1722   -4.8230   27.4331 S.2     1  UNL1       -0.0520
     17 C           7.5431   -5.3067   26.0626 C.ar    1  UNL1        0.0498
     18 C           7.6480   -4.6007   24.7433 C.ar    1  UNL1        0.0126
     19 H           7.0211   -6.7828   30.3767 H       1  UNL1        0.1442
     20 H           6.6821   -5.1148   30.2730 H       1  UNL1        0.1442
     21 C           3.4783   -1.5558   20.0723 C.2     1  UNL1        0.3167
     22 O           2.4355   -1.0320   21.0148 O.2     1  UNL1       -0.2501
     23 C           2.7080   -0.0425   18.1059 C.3     1  UNL1        0.2556
     24 O           3.3517   -1.3045   18.5989 O.3     1  UNL1       -0.4444
@<TRIPOS>BOND
     1    23    24    1
     2    24    21    1
     3    21    22    2
     4    21     1    1
     5     1     2    1
     6     2     3    1
     7     3     4    1
     8     4     5   am
     9     5     6    2
    10     5     9    1
    11     9    10   ar
    12    10    11   ar
    13    11    12   ar
    14    12    13   ar
    15    13    14   ar
    16    14    15    1
    17    14    16   ar
    18    16    17   ar
    19    17    18   ar
    20     4     7    1
    21     7     8    1
    22     8     1    1
    23    18     9   ar
    24    17    12   ar
    25    15    19    1
    26    15    20    1
@<TRIPOS>MOLECULE
*****
 24 26 0 0 0
SMALL
GASTEIGER

@<TRIPOS>ATOM
      1 C           5.6099   -3.1124   21.1066 C.3     1  UNL1        0.1025
      2 C           5.0609   -1.7457   21.3907 C.3     1  UNL1        0.0327
      3 C           4.4989   -0.9162   20.2743 C.3     1  UNL1        0.0943
      4 N           4.4860   -1.4535   18.8739 N.am    1  UNL1       -0.2761
      5 C           3.9240   -0.6241   17.7576 C.2     1  UNL1        0.2490
      6 O           3.9110   -1.1614   16.3572 O.2     1  UNL1       -0.2699
      7 C           5.0350   -2.8203   18.5899 C.3     1  UNL1        0.0943
      8 C           5.5969   -3.6497   19.7062 C.3     1  UNL1        0.0327
      9 C           3.3750    0.7426   18.0416 C.ar    1  UNL1        0.0542
     10 C           4.2903    1.9309   18.0540 C.ar    1  UNL1        0.0061
     11 C           3.7413    3.2975   18.3380 C.ar    1  UNL1        0.0198
     12 C           2.2770    3.4760   18.6097 C.ar    1  UNL1        0.0892
     13 N           1.4543    4.6917   18.9186 N.ar    1  UNL1       -0.2245
     14 C           0.0305    4.2547   19.0972 C.ar    1  UNL1        0.1567
     15 N          -1.1320    5.1468   19.4180 N.pl3   1  UNL1       -0.3375
     16 S          -0.0268    2.7690   18.8986 S.2     1  UNL1       -0.0520
     17 C           1.3616    2.2877   18.5973 C.ar    1  UNL1        0.0498
     18 C           1.9106    0.9211   18.3133 C.ar    1  UNL1        0.0126
     19 H          -0.9932    6.1150   19.5303 H       1  UNL1        0.1442
     20 H          -2.0337    4.7641   19.5163 H       1  UNL1        0.1442
     21 C           6.1719   -3.9418   22.2230 C.2     1  UNL1        0.3167
     22 O           7.2873   -4.9075   21.9518 O.2     1  UNL1       -0.2501
     23 C           6.5492   -3.7037   24.7825 C.3     1  UNL1        0.2556
     24 O           5.6185   -3.8056   23.6105 O.3     1  UNL1       -0.4444
@<TRIPOS>BOND
     1    23    24    1
     2    24    21    1
     3    21    22    2
     4    21     1    1
     5     1     2    1
     6     2     3    1
     7     3     4    1
     8     4     5   am
     9     5     6    2
    10     5     9    1
    11     9    10   ar
    12    10    11   ar
    13    11    12   ar
    14    12    13   ar
    15    13    14   ar
    16    14    15    1
    17    14    16   ar
    18    16    17   ar
    19    17    18   ar
    20     4     7    1
    21     7     8    1
    22     8     1    1
    23    18     9   ar
    24    17    12   ar
    25    15    19    1
    26    15    20    1
