@<TRIPOS>MOLECULE
*****
 31 32 0 0 0
SMALL
GASTEIGER

@<TRIPOS>ATOM
      1 C         -14.3424   -1.9366   19.1218 C.3     1  UNL1        0.0077
      2 C         -13.7722   -3.0164   19.9930 C.3     1  UNL1        0.0475
      3 C         -14.4549   -4.3493   20.0791 C.3     1  UNL1        0.2054
      4 O         -14.2920   -5.3483   18.9721 O.3     1  UNL1       -0.4755
      5 C         -16.7418   -9.1230   18.9692 C.ar    1  UNL1        0.0815
      6 C         -15.2907   -9.1704   18.5924 C.ar    1  UNL1        0.0105
      7 C         -14.4741   -7.9121   18.5934 C.ar    1  UNL1        0.0371
      8 C         -15.1086   -6.6065   18.9712 C.ar    1  UNL1        0.1386
      9 C         -16.5597   -6.5592   19.3480 C.ar    1  UNL1        0.0371
     10 C         -17.3763   -7.8174   19.3470 C.ar    1  UNL1        0.0105
     11 N         -16.8780  -11.7170   19.0228 N.2     1  UNL1       -0.0994
     12 C         -17.5583  -10.3813   18.9682 C.2     1  UNL1        0.3093
     13 N         -19.0553  -10.3039   18.9127 N.pl3   1  UNL1       -0.2466
     14 H         -17.4139  -12.5428   19.0222 H       1  UNL1        0.3633
     15 H         -19.5912  -11.1297   18.9121 H       1  UNL1        0.2884
     16 H         -19.5018   -9.4272   18.8769 H       1  UNL1        0.2884
     17 C         -13.4563   -0.8399   18.6100 C.3     1  UNL1        0.0475
     18 C         -12.0830   -1.1617   18.0998 C.3     1  UNL1        0.2054
     19 O         -11.9003   -2.2237   17.0563 O.3     1  UNL1       -0.4755
     20 C         -11.3139   -3.5520   17.4327 C.ar    1  UNL1        0.1386
     21 C         -10.3280   -3.6445   18.5593 C.ar    1  UNL1        0.0371
     22 C          -9.7416   -4.9728   18.9356 C.ar    1  UNL1        0.0105
     23 C         -10.1412   -6.2087   18.1854 C.ar    1  UNL1        0.0815
     24 C         -11.1272   -6.1163   17.0587 C.ar    1  UNL1        0.0105
     25 C         -11.7135   -4.7879   16.6824 C.ar    1  UNL1        0.0371
     26 C          -9.5548   -7.5371   18.5618 C.2     1  UNL1        0.3093
     27 N          -9.9163   -8.7651   17.7799 N.2     1  UNL1       -0.0994
     28 N          -8.6070   -7.6374   19.7199 N.pl3   1  UNL1       -0.2466
     29 H         -10.5385   -8.6993   17.0197 H       1  UNL1        0.3633
     30 H          -8.3697   -6.8314   20.2331 H       1  UNL1        0.2884
     31 H          -8.2221   -8.5093   19.9670 H       1  UNL1        0.2884
@<TRIPOS>BOND
     1    11    12    2
     2    12    13    1
     3    12     5    1
     4     5     6   ar
     5     6     7   ar
     6     7     8   ar
     7     8     4    1
     8     4     3    1
     9     3     2    1
    10     2     1    1
    11     1    17    1
    12    17    18    1
    13    18    19    1
    14    19    20    1
    15    20    21   ar
    16    21    22   ar
    17    22    23   ar
    18    23    26    1
    19    26    27    2
    20    26    28    1
    21    23    24   ar
    22    24    25   ar
    23     8     9   ar
    24     9    10   ar
    25    10     5   ar
    26    25    20   ar
    27    11    14    1
    28    13    15    1
    29    13    16    1
    30    27    29    1
    31    28    30    1
    32    28    31    1
@<TRIPOS>MOLECULE
*****
 31 32 0 0 0
SMALL
GASTEIGER

@<TRIPOS>ATOM
      1 C         -13.9378   -0.7088   17.2537 C.3     1  UNL1        0.0077
      2 C         -15.1171   -1.2936   17.9730 C.3     1  UNL1        0.0475
      3 C         -15.1578   -1.2912   19.4724 C.3     1  UNL1        0.2054
      4 O         -14.4366   -2.3563   20.2440 O.3     1  UNL1       -0.4755
      5 C         -15.2503   -6.6980   19.3851 C.ar    1  UNL1        0.0815
      6 C         -13.8434   -6.2287   19.6092 C.ar    1  UNL1        0.0105
      7 C         -13.5722   -4.7815   19.8955 C.ar    1  UNL1        0.0371
      8 C         -14.7078   -3.8036   19.9577 C.ar    1  UNL1        0.1386
      9 C         -16.1148   -4.2729   19.7336 C.ar    1  UNL1        0.0371
     10 C         -16.3860   -5.7201   19.4473 C.ar    1  UNL1        0.0105
     11 N         -16.9347   -8.6412   19.0152 N.2     1  UNL1       -0.0994
     12 C         -15.5216   -8.1452   19.0988 C.2     1  UNL1        0.3093
     13 N         -14.3797   -9.0965   18.8960 N.pl3   1  UNL1       -0.2466
     14 H         -17.1128   -9.5911   18.8273 H       1  UNL1        0.3633
     15 H         -14.5578  -10.0464   18.7081 H       1  UNL1        0.2884
     16 H         -13.4522   -8.7710   18.9509 H       1  UNL1        0.2884
     17 C         -12.7290   -0.2719   18.0269 C.3     1  UNL1        0.0475
     18 C         -11.3874   -0.8693   17.7221 C.3     1  UNL1        0.2054
     19 O         -10.7912   -1.8867   18.6493 O.3     1  UNL1       -0.4755
     20 C         -10.7801   -3.3365   18.2646 C.ar    1  UNL1        0.1386
     21 C         -11.5786   -3.8056   17.0847 C.ar    1  UNL1        0.0371
     22 C         -11.5675   -5.2554   16.7002 C.ar    1  UNL1        0.0105
     23 C         -10.7577   -6.2361   17.4955 C.ar    1  UNL1        0.0815
     24 C          -9.9592   -5.7670   18.6754 C.ar    1  UNL1        0.0105
     25 C          -9.9704   -4.3172   19.0600 C.ar    1  UNL1        0.0371
     26 C         -10.7466   -7.6860   17.1109 C.2     1  UNL1        0.3093
     27 N          -9.8740   -8.6527   17.8552 N.2     1  UNL1       -0.0994
     28 N         -11.6081   -8.1691   15.9820 N.pl3   1  UNL1       -0.2466
     29 H          -9.3086   -8.3356   18.5962 H       1  UNL1        0.3633
     30 H         -12.1808   -7.5346   15.4935 H       1  UNL1        0.2884
     31 H         -11.6008   -9.1206   15.7296 H       1  UNL1        0.2884
@<TRIPOS>BOND
     1    11    12    2
     2    12    13    1
     3    12     5    1
     4     5     6   ar
     5     6     7   ar
     6     7     8   ar
     7     8     4    1
     8     4     3    1
     9     3     2    1
    10     2     1    1
    11     1    17    1
    12    17    18    1
    13    18    19    1
    14    19    20    1
    15    20    21   ar
    16    21    22   ar
    17    22    23   ar
    18    23    26    1
    19    26    27    2
    20    26    28    1
    21    23    24   ar
    22    24    25   ar
    23     8     9   ar
    24     9    10   ar
    25    10     5   ar
    26    25    20   ar
    27    11    14    1
    28    13    15    1
    29    13    16    1
    30    27    29    1
    31    28    30    1
    32    28    31    1
@<TRIPOS>MOLECULE
*****
 31 32 0 0 0
SMALL
GASTEIGER

@<TRIPOS>ATOM
      1 C         -17.0721   -8.5939   19.2563 C.3     1  UNL1        0.0077
      2 C         -15.6374   -9.0310   19.2772 C.3     1  UNL1        0.0475
      3 C         -14.8946   -9.2284   17.9890 C.3     1  UNL1        0.2054
      4 O         -14.6385   -8.0597   17.0843 O.3     1  UNL1       -0.4755
      5 C         -11.0102   -5.4749   17.7199 C.ar    1  UNL1        0.0815
      6 C         -11.6359   -5.5680   16.3598 C.ar    1  UNL1        0.0105
      7 C         -12.8453   -6.4296   16.1480 C.ar    1  UNL1        0.0371
      8 C         -13.4291   -7.1981   17.2962 C.ar    1  UNL1        0.1386
      9 C         -12.8035   -7.1051   18.6563 C.ar    1  UNL1        0.0371
     10 C         -11.5940   -6.2434   18.8681 C.ar    1  UNL1        0.0105
     11 N          -9.5075   -4.0538   19.2922 N.2     1  UNL1       -0.0994
     12 C          -9.8008   -4.6133   17.9318 C.2     1  UNL1        0.3093
     13 N          -8.8847   -4.3111   16.7831 N.pl3   1  UNL1       -0.2466
     14 H          -8.7137   -3.4883   19.4313 H       1  UNL1        0.3633
     15 H          -8.0909   -3.7456   16.9222 H       1  UNL1        0.2884
     16 H          -9.0772   -4.6783   15.8902 H       1  UNL1        0.2884
     17 C         -17.4304   -7.1795   19.6047 C.3     1  UNL1        0.0475
     18 C         -16.5963   -6.0454   19.0870 C.3     1  UNL1        0.2054
     19 O         -15.7282   -5.2627   20.0271 O.3     1  UNL1       -0.4755
     20 C         -14.7685   -4.2432   19.4888 C.ar    1  UNL1        0.1386
     21 C         -13.7466   -3.6232   20.3950 C.ar    1  UNL1        0.0371
     22 C         -12.7870   -2.6038   19.8567 C.ar    1  UNL1        0.0105
     23 C         -12.8492   -2.2044   18.4121 C.ar    1  UNL1        0.0815
     24 C         -13.8710   -2.8245   17.5059 C.ar    1  UNL1        0.0105
     25 C         -14.8307   -3.8439   18.0442 C.ar    1  UNL1        0.0371
     26 C         -11.8894   -1.1850   17.8738 C.2     1  UNL1        0.3093
     27 N         -10.5256   -1.6079   17.4146 N.2     1  UNL1       -0.0994
     28 N         -12.2936    0.2574   17.7948 N.pl3   1  UNL1       -0.2466
     29 H         -10.2603   -2.5546   17.4665 H       1  UNL1        0.3633
     30 H         -13.1888    0.5350   18.0962 H       1  UNL1        0.2884
     31 H         -11.6638    0.9265   17.4415 H       1  UNL1        0.2884
@<TRIPOS>BOND
     1    11    12    2
     2    12    13    1
     3    12     5    1
     4     5     6   ar
     5     6     7   ar
     6     7     8   ar
     7     8     4    1
     8     4     3    1
     9     3     2    1
    10     2     1    1
    11     1    17    1
    12    17    18    1
    13    18    19    1
    14    19    20    1
    15    20    21   ar
    16    21    22   ar
    17    22    23   ar
    18    23    26    1
    19    26    27    2
    20    26    28    1
    21    23    24   ar
    22    24    25   ar
    23     8     9   ar
    24     9    10   ar
    25    10     5   ar
    26    25    20   ar
    27    11    14    1
    28    13    15    1
    29    13    16    1
    30    27    29    1
    31    28    30    1
    32    28    31    1
@<TRIPOS>MOLECULE
*****
 31 32 0 0 0
SMALL
GASTEIGER

@<TRIPOS>ATOM
      1 C         -13.0138    0.5720   18.3283 C.3     1  UNL1        0.0077
      2 C         -12.3160    0.5956   17.0007 C.3     1  UNL1        0.0475
      3 C         -11.6962   -0.6574   16.4568 C.3     1  UNL1        0.2054
      4 O         -10.4254   -1.1856   17.0534 O.3     1  UNL1       -0.4755
      5 C         -10.0614   -5.5547   18.0675 C.ar    1  UNL1        0.0815
      6 C         -10.9415   -4.6639   18.8932 C.ar    1  UNL1        0.0105
      7 C         -11.0628   -3.2075   18.5552 C.ar    1  UNL1        0.0371
      8 C         -10.3040   -2.6420   17.3914 C.ar    1  UNL1        0.1386
      9 C          -9.4240   -3.5328   16.5657 C.ar    1  UNL1        0.0371
     10 C          -9.3027   -4.9891   16.9037 C.ar    1  UNL1        0.0105
     11 N         -10.7287   -8.0281   17.6349 N.2     1  UNL1       -0.0994
     12 C          -9.9401   -7.0111   18.4055 C.2     1  UNL1        0.3093
     13 N          -9.0302   -7.4505   19.5140 N.pl3   1  UNL1       -0.2466
     14 H         -10.6491   -8.9839   17.8568 H       1  UNL1        0.3633
     15 H          -8.9506   -8.4063   19.7359 H       1  UNL1        0.2884
     16 H          -8.5126   -6.7830   20.0198 H       1  UNL1        0.2884
     17 C         -14.4863    0.2942   18.3968 C.3     1  UNL1        0.0475
     18 C         -14.9948   -1.1051   18.2138 C.3     1  UNL1        0.2054
     19 O         -14.8129   -2.1179   19.3051 O.3     1  UNL1       -0.4755
     20 C         -14.6325   -3.5668   18.9611 C.ar    1  UNL1        0.1386
     21 C         -14.5166   -4.5882   20.0535 C.ar    1  UNL1        0.0371
     22 C         -14.3362   -6.0370   19.7095 C.ar    1  UNL1        0.0105
     23 C         -14.2717   -6.4644   18.2732 C.ar    1  UNL1        0.0815
     24 C         -14.3876   -5.4431   17.1808 C.ar    1  UNL1        0.0105
     25 C         -14.5680   -3.9943   17.5248 C.ar    1  UNL1        0.0371
     26 C         -14.0912   -7.9133   17.9292 C.2     1  UNL1        0.3093
     27 N         -14.2413   -8.9608   18.9923 N.2     1  UNL1       -0.0994
     28 N         -13.7607   -8.3146   16.5222 N.pl3   1  UNL1       -0.2466
     29 H         -14.4583   -8.6974   19.9158 H       1  UNL1        0.3633
     30 H         -13.6622   -7.6271   15.8245 H       1  UNL1        0.2884
     31 H         -13.6423   -9.2656   16.2965 H       1  UNL1        0.2884
@<TRIPOS>BOND
     1    11    12    2
     2    12    13    1
     3    12     5    1
     4     5     6   ar
     5     6     7   ar
     6     7     8   ar
     7     8     4    1
     8     4     3    1
     9     3     2    1
    10     2     1    1
    11     1    17    1
    12    17    18    1
    13    18    19    1
    14    19    20    1
    15    20    21   ar
    16    21    22   ar
    17    22    23   ar
    18    23    26    1
    19    26    27    2
    20    26    28    1
    21    23    24   ar
    22    24    25   ar
    23     8     9   ar
    24     9    10   ar
    25    10     5   ar
    26    25    20   ar
    27    11    14    1
    28    13    15    1
    29    13    16    1
    30    27    29    1
    31    28    30    1
    32    28    31    1
@<TRIPOS>MOLECULE
*****
 31 32 0 0 0
SMALL
GASTEIGER

@<TRIPOS>ATOM
      1 C         -10.3509   -5.9204   18.8906 C.3     1  UNL1        0.0077
      2 C          -9.7928   -4.5303   18.9705 C.3     1  UNL1        0.0475
      3 C         -10.3819   -3.4363   18.1302 C.3     1  UNL1        0.2054
      4 O         -10.9395   -2.2065   18.7834 O.3     1  UNL1       -0.4755
      5 C         -15.3185   -1.9859   19.7966 C.ar    1  UNL1        0.0815
      6 C         -14.7005   -0.9459   18.9097 C.ar    1  UNL1        0.0105
      7 C         -13.2409   -1.0195   18.5720 C.ar    1  UNL1        0.0371
      8 C         -12.3992   -2.1330   19.1211 C.ar    1  UNL1        0.1386
      9 C         -13.0171   -3.1730   20.0080 C.ar    1  UNL1        0.0371
     10 C         -14.4768   -3.0994   20.3457 C.ar    1  UNL1        0.0105
     11 N         -17.4034   -0.5923   20.4754 N.2     1  UNL1       -0.0994
     12 C         -16.7781   -1.9123   20.1343 C.2     1  UNL1        0.3093
     13 N         -17.6124   -3.1588   20.1309 N.pl3   1  UNL1       -0.2466
     14 H         -18.3614   -0.5440   20.6971 H       1  UNL1        0.3633
     15 H         -18.5704   -3.1105   20.3525 H       1  UNL1        0.2884
     16 H         -17.2021   -4.0252   19.9070 H       1  UNL1        0.2884
     17 C         -10.6204   -6.5447   17.5536 C.3     1  UNL1        0.0475
     18 C         -12.0233   -6.6136   17.0272 C.3     1  UNL1        0.2054
     19 O         -13.1757   -6.2425   17.9127 O.3     1  UNL1       -0.4755
     20 C         -14.2218   -7.2634   18.2496 C.ar    1  UNL1        0.1386
     21 C         -14.1691   -8.6257   17.6241 C.ar    1  UNL1        0.0371
     22 C         -15.2152   -9.6466   17.9610 C.ar    1  UNL1        0.0105
     23 C         -16.3139   -9.3052   18.9234 C.ar    1  UNL1        0.0815
     24 C         -16.3666   -7.9428   19.5489 C.ar    1  UNL1        0.0105
     25 C         -15.3206   -6.9220   19.2119 C.ar    1  UNL1        0.0371
     26 C         -17.3600  -10.3261   19.2603 C.2     1  UNL1        0.3093
     27 N         -17.0479  -11.7882   19.1380 N.2     1  UNL1       -0.0994
     28 N         -18.7182   -9.8850   19.7194 N.pl3   1  UNL1       -0.2466
     29 H         -16.1565  -12.0777   18.8367 H       1  UNL1        0.3633
     30 H         -18.9230   -8.9254   19.7996 H       1  UNL1        0.2884
     31 H         -19.4047  -10.5551   19.9405 H       1  UNL1        0.2884
@<TRIPOS>BOND
     1    11    12    2
     2    12    13    1
     3    12     5    1
     4     5     6   ar
     5     6     7   ar
     6     7     8   ar
     7     8     4    1
     8     4     3    1
     9     3     2    1
    10     2     1    1
    11     1    17    1
    12    17    18    1
    13    18    19    1
    14    19    20    1
    15    20    21   ar
    16    21    22   ar
    17    22    23   ar
    18    23    26    1
    19    26    27    2
    20    26    28    1
    21    23    24   ar
    22    24    25   ar
    23     8     9   ar
    24     9    10   ar
    25    10     5   ar
    26    25    20   ar
    27    11    14    1
    28    13    15    1
    29    13    16    1
    30    27    29    1
    31    28    30    1
    32    28    31    1
@<TRIPOS>MOLECULE
*****
 31 32 0 0 0
SMALL
GASTEIGER

@<TRIPOS>ATOM
      1 C         -10.4626   -1.2516   16.5513 C.3     1  UNL1        0.0077
      2 C         -10.2264   -2.6908   16.2003 C.3     1  UNL1        0.0475
      3 C          -9.5069   -3.5891   17.1623 C.3     1  UNL1        0.2054
      4 O          -9.4466   -5.0660   16.9075 O.3     1  UNL1       -0.4755
      5 C         -13.0791   -7.6233   17.6252 C.ar    1  UNL1        0.0815
      6 C         -12.6329   -7.3308   16.2233 C.ar    1  UNL1        0.0105
      7 C         -11.4220   -6.4784   15.9841 C.ar    1  UNL1        0.0371
      8 C         -10.6575   -5.9184   17.1467 C.ar    1  UNL1        0.1386
      9 C         -11.1037   -6.2109   18.5486 C.ar    1  UNL1        0.0371
     10 C         -12.3145   -7.0633   18.7878 C.ar    1  UNL1        0.0105
     11 N         -14.4799   -9.1540   19.1887 N.2     1  UNL1       -0.0994
     12 C         -14.2900   -8.4757   17.8644 C.2     1  UNL1        0.3093
     13 N         -15.3109   -8.6499   16.7793 N.pl3   1  UNL1       -0.2466
     14 H         -15.2747   -9.7135   19.3457 H       1  UNL1        0.3633
     15 H         -16.1056   -9.2094   16.9364 H       1  UNL1        0.2884
     16 H         -15.1862   -8.2047   15.9101 H       1  UNL1        0.2884
     17 C         -11.7781   -0.8279   17.1342 C.3     1  UNL1        0.0475
     18 C         -12.0545   -1.0384   18.5934 C.3     1  UNL1        0.2054
     19 O         -12.0594   -2.4259   19.1633 O.3     1  UNL1       -0.4755
     20 C         -13.2604   -3.3064   18.9833 C.ar    1  UNL1        0.1386
     21 C         -13.7567   -3.6253   17.6042 C.ar    1  UNL1        0.0371
     22 C         -14.9576   -4.5057   17.4242 C.ar    1  UNL1        0.0105
     23 C         -15.6623   -5.0674   18.6234 C.ar    1  UNL1        0.0815
     24 C         -15.1661   -4.7485   20.0025 C.ar    1  UNL1        0.0105
     25 C         -13.9651   -3.8681   20.1824 C.ar    1  UNL1        0.0371
     26 C         -16.8633   -5.9479   18.4433 C.2     1  UNL1        0.3093
     27 N         -17.3757   -6.2449   17.0652 N.2     1  UNL1       -0.0994
     28 N         -17.5518   -6.5314   19.6414 N.pl3   1  UNL1       -0.2466
     29 H         -16.9238   -5.8619   16.2789 H       1  UNL1        0.3633
     30 H         -17.2155   -6.3365   20.5459 H       1  UNL1        0.2884
     31 H         -18.3401   -7.1093   19.5232 H       1  UNL1        0.2884
@<TRIPOS>BOND
     1    11    12    2
     2    12    13    1
     3    12     5    1
     4     5     6   ar
     5     6     7   ar
     6     7     8   ar
     7     8     4    1
     8     4     3    1
     9     3     2    1
    10     2     1    1
    11     1    17    1
    12    17    18    1
    13    18    19    1
    14    19    20    1
    15    20    21   ar
    16    21    22   ar
    17    22    23   ar
    18    23    26    1
    19    26    27    2
    20    26    28    1
    21    23    24   ar
    22    24    25   ar
    23     8     9   ar
    24     9    10   ar
    25    10     5   ar
    26    25    20   ar
    27    11    14    1
    28    13    15    1
    29    13    16    1
    30    27    29    1
    31    28    30    1
    32    28    31    1
@<TRIPOS>MOLECULE
*****
 31 32 0 0 0
SMALL
GASTEIGER

@<TRIPOS>ATOM
      1 C         -17.7239   -4.4073   19.1479 C.3     1  UNL1        0.0077
      2 C         -18.2475   -5.7902   19.3998 C.3     1  UNL1        0.0475
      3 C         -17.3611   -6.9798   19.1775 C.3     1  UNL1        0.2054
      4 O         -16.4651   -7.0333   17.9758 O.3     1  UNL1       -0.4755
      5 C         -11.9957   -7.0174   18.4991 C.ar    1  UNL1        0.0815
      6 C         -12.8597   -6.1900   19.4039 C.ar    1  UNL1        0.0105
      7 C         -14.3495   -6.1953   19.2295 C.ar    1  UNL1        0.0371
      8 C         -14.9753   -7.0280   18.1502 C.ar    1  UNL1        0.1386
      9 C         -14.1113   -7.8554   17.2454 C.ar    1  UNL1        0.0371
     10 C         -12.6215   -7.8501   17.4198 C.ar    1  UNL1        0.0105
     11 N          -9.7212   -8.2724   18.4591 N.2     1  UNL1       -0.0994
     12 C         -10.5059   -7.0121   18.6735 C.2     1  UNL1        0.3093
     13 N          -9.8008   -5.7466   19.0624 N.pl3   1  UNL1       -0.2466
     14 H          -8.7433   -8.2689   18.5736 H       1  UNL1        0.3633
     15 H          -8.8229   -5.7432   19.1769 H       1  UNL1        0.2884
     16 H         -10.3158   -4.9195   19.2031 H       1  UNL1        0.2884
     17 C         -18.0371   -3.2999   20.1100 C.3     1  UNL1        0.0475
     18 C         -17.8977   -1.8700   19.6789 C.3     1  UNL1        0.2054
     19 O         -16.7840   -1.0270   20.2257 O.3     1  UNL1       -0.4755
     20 C         -15.3784   -1.2388   19.7466 C.ar    1  UNL1        0.1386
     21 C         -14.7512   -0.2552   18.8036 C.ar    1  UNL1        0.0371
     22 C         -13.3457   -0.4670   18.3247 C.ar    1  UNL1        0.0105
     23 C         -12.5673   -1.6624   18.7887 C.ar    1  UNL1        0.0815
     24 C         -13.1944   -2.6459   19.7317 C.ar    1  UNL1        0.0105
     25 C         -14.6000   -2.4341   20.2106 C.ar    1  UNL1        0.0371
     26 C         -11.1616   -1.8741   18.3096 C.2     1  UNL1        0.3093
     27 N         -10.2142   -2.7150   19.1129 N.2     1  UNL1       -0.0994
     28 N         -10.7035   -1.2450   17.0274 N.pl3   1  UNL1       -0.2466
     29 H         -10.5149   -3.1279   19.9546 H       1  UNL1        0.3633
     30 H         -11.3253   -0.6931   16.5001 H       1  UNL1        0.2884
     31 H          -9.7809   -1.3840   16.7130 H       1  UNL1        0.2884
@<TRIPOS>BOND
     1    11    12    2
     2    12    13    1
     3    12     5    1
     4     5     6   ar
     5     6     7   ar
     6     7     8   ar
     7     8     4    1
     8     4     3    1
     9     3     2    1
    10     2     1    1
    11     1    17    1
    12    17    18    1
    13    18    19    1
    14    19    20    1
    15    20    21   ar
    16    21    22   ar
    17    22    23   ar
    18    23    26    1
    19    26    27    2
    20    26    28    1
    21    23    24   ar
    22    24    25   ar
    23     8     9   ar
    24     9    10   ar
    25    10     5   ar
    26    25    20   ar
    27    11    14    1
    28    13    15    1
    29    13    16    1
    30    27    29    1
    31    28    30    1
    32    28    31    1
@<TRIPOS>MOLECULE
*****
 31 32 0 0 0
SMALL
GASTEIGER

@<TRIPOS>ATOM
      1 C          -9.4587   -2.8422   15.9994 C.3     1  UNL1        0.0077
      2 C          -9.9418   -4.2588   16.0994 C.3     1  UNL1        0.0475
      3 C          -9.8466   -4.9934   17.4038 C.3     1  UNL1        0.2054
      4 O         -10.2021   -6.4490   17.4725 O.3     1  UNL1       -0.4755
      5 C         -14.3793   -7.6948   18.5899 C.ar    1  UNL1        0.0815
      6 C         -13.7091   -6.5727   19.3259 C.ar    1  UNL1        0.0105
      7 C         -12.3167   -6.1574   18.9534 C.ar    1  UNL1        0.0371
      8 C         -11.5945   -6.8643   17.8449 C.ar    1  UNL1        0.1386
      9 C         -12.2646   -7.9864   17.1090 C.ar    1  UNL1        0.0371
     10 C         -13.6570   -8.4017   17.4815 C.ar    1  UNL1        0.0105
     11 N         -16.9423   -7.6000   18.1754 N.2     1  UNL1       -0.0994
     12 C         -15.7717   -8.1101   18.9624 C.2     1  UNL1        0.3093
     13 N         -15.9935   -9.0354   20.1220 N.pl3   1  UNL1       -0.2466
     14 H         -17.8562   -7.8726   18.4199 H       1  UNL1        0.3633
     15 H         -16.9074   -9.3079   20.3664 H       1  UNL1        0.2884
     16 H         -15.2252   -9.3702   20.6385 H       1  UNL1        0.2884
     17 C         -10.4392   -1.7090   16.0666 C.3     1  UNL1        0.0475
     18 C         -10.8489   -1.1495   17.3966 C.3     1  UNL1        0.2054
     19 O         -11.1828   -2.0749   18.5289 O.3     1  UNL1       -0.4755
     20 C         -12.6079   -2.4712   18.7783 C.ar    1  UNL1        0.1386
     21 C         -13.5734   -2.5585   17.6336 C.ar    1  UNL1        0.0371
     22 C         -14.9984   -2.9548   17.8831 C.ar    1  UNL1        0.0105
     23 C         -15.4579   -3.2638   19.2771 C.ar    1  UNL1        0.0815
     24 C         -14.4925   -3.1764   20.4217 C.ar    1  UNL1        0.0105
     25 C         -13.0675   -2.7801   20.1723 C.ar    1  UNL1        0.0371
     26 C         -16.8830   -3.6601   19.5265 C.2     1  UNL1        0.3093
     27 N         -17.7080   -2.9037   20.5251 N.2     1  UNL1       -0.0994
     28 N         -17.4830   -4.8127   18.7772 N.pl3   1  UNL1       -0.2466
     29 H         -17.3142   -2.1472   21.0169 H       1  UNL1        0.3633
     30 H         -16.9416   -5.3091   18.1218 H       1  UNL1        0.2884
     31 H         -18.4184   -5.0728   18.9409 H       1  UNL1        0.2884
@<TRIPOS>BOND
     1    11    12    2
     2    12    13    1
     3    12     5    1
     4     5     6   ar
     5     6     7   ar
     6     7     8   ar
     7     8     4    1
     8     4     3    1
     9     3     2    1
    10     2     1    1
    11     1    17    1
    12    17    18    1
    13    18    19    1
    14    19    20    1
    15    20    21   ar
    16    21    22   ar
    17    22    23   ar
    18    23    26    1
    19    26    27    2
    20    26    28    1
    21    23    24   ar
    22    24    25   ar
    23     8     9   ar
    24     9    10   ar
    25    10     5   ar
    26    25    20   ar
    27    11    14    1
    28    13    15    1
    29    13    16    1
    30    27    29    1
    31    28    30    1
    32    28    31    1
@<TRIPOS>MOLECULE
*****
 31 32 0 0 0
SMALL
GASTEIGER

@<TRIPOS>ATOM
      1 C           8.7565   -1.9906   19.9201 C.3     1  UNL1        0.0077
      2 C           9.1064   -3.4169   20.2260 C.3     1  UNL1        0.0475
      3 C           8.0812   -4.3264   20.8357 C.3     1  UNL1        0.2054
      4 O           8.5150   -5.5621   21.5670 O.3     1  UNL1       -0.4755
      5 C           7.3602   -6.1485   25.8766 C.ar    1  UNL1        0.0815
      6 C           8.1234   -7.2176   25.1525 C.ar    1  UNL1        0.0105
      7 C           8.5084   -7.0222   23.7159 C.ar    1  UNL1        0.0371
      8 C           8.1301   -5.7576   23.0035 C.ar    1  UNL1        0.1386
      9 C           7.3668   -4.6884   23.7276 C.ar    1  UNL1        0.0371
     10 C           6.9819   -4.8839   25.1641 C.ar    1  UNL1        0.0105
     11 N           7.8074   -7.2222   28.1997 N.2     1  UNL1       -0.0994
     12 C           6.9753   -6.3439   27.3131 C.2     1  UNL1        0.3093
     13 N           5.7582   -5.6611   27.8630 N.pl3   1  UNL1       -0.2466
     14 H           7.5548   -7.3505   29.1426 H       1  UNL1        0.3633
     15 H           5.5056   -5.7894   28.8059 H       1  UNL1        0.2884
     16 H           5.2120   -5.0846   27.2811 H       1  UNL1        0.2884
     17 C           7.3937   -1.6489   19.3946 C.3     1  UNL1        0.0475
     18 C           6.9600   -2.1535   18.0502 C.3     1  UNL1        0.2054
     19 O           5.5697   -2.6837   17.8609 O.3     1  UNL1       -0.4755
     20 C           4.3891   -1.8612   18.2851 C.ar    1  UNL1        0.1386
     21 C           3.5953   -2.2566   19.4948 C.ar    1  UNL1        0.0371
     22 C           2.4148   -1.4341   19.9190 C.ar    1  UNL1        0.0105
     23 C           2.0281   -0.2162   19.1334 C.ar    1  UNL1        0.0815
     24 C           2.8219    0.1792   17.9236 C.ar    1  UNL1        0.0105
     25 C           4.0024   -0.6433   17.4995 C.ar    1  UNL1        0.0371
     26 C           0.8475    0.6063   19.5576 C.2     1  UNL1        0.3093
     27 N           0.6736    1.9983   19.0264 N.2     1  UNL1       -0.0994
     28 N          -0.1589    0.0367   20.5128 N.pl3   1  UNL1       -0.2466
     29 H           1.3342    2.3720   18.3995 H       1  UNL1        0.3633
     30 H          -0.0447   -0.8769   20.8614 H       1  UNL1        0.2884
     31 H          -0.9338    0.5766   20.7912 H       1  UNL1        0.2884
@<TRIPOS>BOND
     1    11    12    2
     2    12    13    1
     3    12     5    1
     4     5     6   ar
     5     6     7   ar
     6     7     8   ar
     7     8     4    1
     8     4     3    1
     9     3     2    1
    10     2     1    1
    11     1    17    1
    12    17    18    1
    13    18    19    1
    14    19    20    1
    15    20    21   ar
    16    21    22   ar
    17    22    23   ar
    18    23    26    1
    19    26    27    2
    20    26    28    1
    21    23    24   ar
    22    24    25   ar
    23     8     9   ar
    24     9    10   ar
    25    10     5   ar
    26    25    20   ar
    27    11    14    1
    28    13    15    1
    29    13    16    1
    30    27    29    1
    31    28    30    1
    32    28    31    1
