@<TRIPOS>MOLECULE
*****
 21 23 0 0 0
SMALL
GASTEIGER

@<TRIPOS>ATOM
      1 C          -6.2218  -15.9028   23.8828 C.ar    1  UNL1        0.1283
      2 N          -7.2550  -16.2221   22.8433 N.ar    1  UNL1       -0.2165
      3 C          -8.7110  -16.2072   23.2037 C.ar    1  UNL1        0.1410
      4 N          -9.1338  -15.8729   24.6035 N.ar    1  UNL1       -0.2195
      5 C          -8.1006  -15.5536   25.6430 C.ar    1  UNL1        0.1383
      6 CL         -8.5234  -15.2193   27.0428 Cl      1  UNL1       -0.0615
      7 C          -6.6446  -15.5686   25.2826 C.ar    1  UNL1        0.0380
      8 C          -5.6114  -15.2493   26.3221 C.3     1  UNL1        0.0365
      9 C          -9.7443  -16.5265   22.1642 C.3     1  UNL1        0.0587
     10 C         -10.9119  -16.1068   21.3214 C.3     1  UNL1        0.0080
     11 C         -10.3662  -17.4992   21.2067 C.3     1  UNL1        0.0080
     12 N          -4.7658  -15.9178   23.5225 N.pl3   1  UNL1       -0.3142
     13 H          -4.3240  -15.0901   23.2243 H       1  UNL1        0.1485
     14 C          -3.9830  -17.1939   23.6165 C.3     1  UNL1        0.1231
     15 C          -4.0331  -20.8874   19.8435 C.3     1  UNL1        0.0594
     16 C          -3.6810  -19.6654   20.6391 C.ar    1  UNL1        0.0880
     17 N          -2.6347  -18.6517   20.2815 N.ar    1  UNL1       -0.2473
     18 C          -2.6205  -17.6025   21.3534 C.ar    1  UNL1        0.0631
     19 C          -1.7259  -16.3993   21.3975 C.3     1  UNL1        0.0523
     20 C          -3.6580  -17.9677   22.3734 C.ar    1  UNL1        0.0416
     21 S          -4.3134  -19.2427   21.9319 S.2     1  UNL1       -0.0738
@<TRIPOS>BOND
     1    15    16    1
     2    16    17   ar
     3    17    18   ar
     4    18    19    1
     5    18    20   ar
     6    20    14    1
     7    14    12    1
     8    12     1    1
     9     1     2   ar
    10     2     3   ar
    11     3     9    1
    12     9    10    1
    13    10    11    1
    14     3     4   ar
    15     4     5   ar
    16     5     6    1
    17     5     7   ar
    18     7     8    1
    19    20    21   ar
    20    21    16   ar
    21     7     1   ar
    22    11     9    1
    23    12    13    1
@<TRIPOS>MOLECULE
*****
 21 23 0 0 0
SMALL
GASTEIGER

@<TRIPOS>ATOM
      1 C          -7.4836  -18.4533   20.7987 C.ar    1  UNL1        0.1283
      2 N          -7.4354  -17.6216   22.0460 N.ar    1  UNL1       -0.2165
      3 C          -8.6505  -17.5060   22.9177 C.ar    1  UNL1        0.1410
      4 N          -9.9139  -18.2221   22.5422 N.ar    1  UNL1       -0.2195
      5 C          -9.9621  -19.0538   21.2949 C.ar    1  UNL1        0.1383
      6 CL        -11.2255  -19.7699   20.9193 Cl      1  UNL1       -0.0615
      7 C          -8.7470  -19.1694   20.4231 C.ar    1  UNL1        0.0380
      8 C          -8.7951  -20.0012   19.1757 C.3     1  UNL1        0.0365
      9 C          -8.6023  -16.6742   24.1651 C.3     1  UNL1        0.0587
     10 C          -8.7097  -16.5627   25.6571 C.3     1  UNL1        0.0080
     11 C          -8.4116  -15.3450   24.8336 C.3     1  UNL1        0.0080
     12 N          -6.2684  -18.5690   19.9269 N.pl3   1  UNL1       -0.3142
     13 H          -6.2108  -18.0512   19.0915 H       1  UNL1        0.1485
     14 C          -5.1410  -19.4735   20.3278 C.3     1  UNL1        0.1231
     15 C          -0.1663  -17.8121   19.7177 C.3     1  UNL1        0.0594
     16 C          -1.4970  -18.1370   20.3290 C.ar    1  UNL1        0.0880
     17 N          -1.8926  -17.9013   21.7566 N.ar    1  UNL1       -0.2473
     18 C          -3.3059  -18.3733   21.9299 C.ar    1  UNL1        0.0631
     19 C          -4.1016  -18.3261   23.2006 C.3     1  UNL1        0.0523
     20 C          -3.7837  -18.9007   20.6095 C.ar    1  UNL1        0.0416
     21 S          -2.6657  -18.7547   19.6201 S.2     1  UNL1       -0.0738
@<TRIPOS>BOND
     1    15    16    1
     2    16    17   ar
     3    17    18   ar
     4    18    19    1
     5    18    20   ar
     6    20    14    1
     7    14    12    1
     8    12     1    1
     9     1     2   ar
    10     2     3   ar
    11     3     9    1
    12     9    10    1
    13    10    11    1
    14     3     4   ar
    15     4     5   ar
    16     5     6    1
    17     5     7   ar
    18     7     8    1
    19    20    21   ar
    20    21    16   ar
    21     7     1   ar
    22    11     9    1
    23    12    13    1
@<TRIPOS>MOLECULE
*****
 21 23 0 0 0
SMALL
GASTEIGER

@<TRIPOS>ATOM
      1 C          -8.6551  -19.1378   22.8292 C.ar    1  UNL1        0.1283
      2 N          -7.5562  -19.7140   21.9863 N.ar    1  UNL1       -0.2165
      3 C          -6.2922  -18.9365   21.7681 C.ar    1  UNL1        0.1410
      4 N          -6.1270  -17.5828   22.3927 N.ar    1  UNL1       -0.2195
      5 C          -7.2259  -17.0066   23.2355 C.ar    1  UNL1        0.1383
      6 CL         -7.0608  -15.6528   23.8601 Cl      1  UNL1       -0.0615
      7 C          -8.4899  -17.7841   23.4537 C.ar    1  UNL1        0.0380
      8 C          -9.5889  -17.2079   24.2966 C.3     1  UNL1        0.0365
      9 C          -5.1932  -19.5128   20.9252 C.3     1  UNL1        0.0587
     10 C          -4.6358  -20.6445   20.1138 C.3     1  UNL1        0.0080
     11 C          -3.8473  -19.3790   20.2769 C.3     1  UNL1        0.0080
     12 N          -9.9192  -19.9153   23.0474 N.pl3   1  UNL1       -0.3142
     13 H         -10.0255  -20.4648   23.8574 H       1  UNL1        0.1485
     14 C         -11.0213  -19.8556   22.0317 C.3     1  UNL1        0.1231
     15 C         -11.5844  -15.5610   19.0117 C.3     1  UNL1        0.0594
     16 C         -11.7489  -16.5554   20.1227 C.ar    1  UNL1        0.0880
     17 N         -12.6742  -16.4217   21.2958 N.ar    1  UNL1       -0.2473
     18 C         -12.5142  -17.6417   22.1537 C.ar    1  UNL1        0.0631
     19 C         -13.2492  -17.9244   23.4303 C.3     1  UNL1        0.0523
     20 C         -11.4901  -18.5294   21.5108 C.ar    1  UNL1        0.0416
     21 S         -11.0172  -17.8580   20.2556 S.2     1  UNL1       -0.0738
@<TRIPOS>BOND
     1    15    16    1
     2    16    17   ar
     3    17    18   ar
     4    18    19    1
     5    18    20   ar
     6    20    14    1
     7    14    12    1
     8    12     1    1
     9     1     2   ar
    10     2     3   ar
    11     3     9    1
    12     9    10    1
    13    10    11    1
    14     3     4   ar
    15     4     5   ar
    16     5     6    1
    17     5     7   ar
    18     7     8    1
    19    20    21   ar
    20    21    16   ar
    21     7     1   ar
    22    11     9    1
    23    12    13    1
@<TRIPOS>MOLECULE
*****
 21 23 0 0 0
SMALL
GASTEIGER

@<TRIPOS>ATOM
      1 C          -8.0034  -18.9595   21.1028 C.ar    1  UNL1        0.1283
      2 N          -8.3227  -17.8402   22.0490 N.ar    1  UNL1       -0.2165
      3 C          -7.2428  -17.2546   22.9096 C.ar    1  UNL1        0.1410
      4 N          -5.8435  -17.7881   22.8240 N.ar    1  UNL1       -0.2195
      5 C          -5.5242  -18.9073   21.8779 C.ar    1  UNL1        0.1383
      6 CL         -4.1249  -19.4409   21.7923 Cl      1  UNL1       -0.0615
      7 C          -6.6041  -19.4930   21.0173 C.ar    1  UNL1        0.0380
      8 C          -6.2848  -20.6123   20.0710 C.3     1  UNL1        0.0365
      9 C          -7.5621  -16.1353   23.8559 C.3     1  UNL1        0.0587
     10 C          -7.2019  -14.8204   24.4815 C.3     1  UNL1        0.0080
     11 C          -8.4754  -15.5115   24.8691 C.3     1  UNL1        0.0080
     12 N          -9.0834  -19.5452   20.2422 N.pl3   1  UNL1       -0.3142
     13 H          -9.0851  -20.5092   20.0424 H       1  UNL1        0.1485
     14 C         -10.1607  -18.6621   19.6858 C.3     1  UNL1        0.1231
     15 C         -13.5571  -17.9298   23.6618 C.3     1  UNL1        0.0594
     16 C         -12.7281  -17.6997   22.4331 C.ar    1  UNL1        0.0880
     17 N         -12.7026  -16.4468   21.6086 N.ar    1  UNL1       -0.2473
     18 C         -11.7377  -16.6549   20.4791 C.ar    1  UNL1        0.0631
     19 C         -11.4025  -15.6568   19.4108 C.3     1  UNL1        0.0523
     20 C         -11.1669  -18.0363   20.6055 C.ar    1  UNL1        0.0416
     21 S         -11.7790  -18.6820   21.8132 S.2     1  UNL1       -0.0738
@<TRIPOS>BOND
     1    15    16    1
     2    16    17   ar
     3    17    18   ar
     4    18    19    1
     5    18    20   ar
     6    20    14    1
     7    14    12    1
     8    12     1    1
     9     1     2   ar
    10     2     3   ar
    11     3     9    1
    12     9    10    1
    13    10    11    1
    14     3     4   ar
    15     4     5   ar
    16     5     6    1
    17     5     7   ar
    18     7     8    1
    19    20    21   ar
    20    21    16   ar
    21     7     1   ar
    22    11     9    1
    23    12    13    1
@<TRIPOS>MOLECULE
*****
 21 23 0 0 0
SMALL
GASTEIGER

@<TRIPOS>ATOM
      1 C          -6.3526  -16.9563   23.1700 C.ar    1  UNL1        0.1283
      2 N          -7.1525  -17.7426   22.1742 N.ar    1  UNL1       -0.2165
      3 C          -8.6510  -17.6827   22.2010 C.ar    1  UNL1        0.1410
      4 N          -9.3497  -16.8366   23.2236 N.ar    1  UNL1       -0.2195
      5 C          -8.5498  -16.0502   24.2195 C.ar    1  UNL1        0.1383
      6 CL         -9.2485  -15.2040   25.2422 Cl      1  UNL1       -0.0615
      7 C          -7.0513  -16.1101   24.1927 C.ar    1  UNL1        0.0380
      8 C          -6.2513  -15.3237   25.1886 C.3     1  UNL1        0.0365
      9 C          -9.4510  -18.4691   21.2051 C.3     1  UNL1        0.0587
     10 C         -10.7397  -19.1194   20.7970 C.3     1  UNL1        0.0080
     11 C          -9.5479  -19.1808   19.8882 C.3     1  UNL1        0.0080
     12 N          -4.8540  -17.0161   23.1433 N.pl3   1  UNL1       -0.3142
     13 H          -4.3259  -16.2003   23.3007 H       1  UNL1        0.1485
     14 C          -4.1601  -18.3189   22.8767 C.3     1  UNL1        0.1231
     15 C           0.0248  -17.8820   19.6867 C.3     1  UNL1        0.0594
     16 C          -1.3240  -18.2536   20.2277 C.ar    1  UNL1        0.0880
     17 N          -2.3628  -19.0724   19.5200 N.ar    1  UNL1       -0.2473
     18 C          -3.5516  -19.1965   20.4263 C.ar    1  UNL1        0.0631
     19 C          -4.8215  -19.9333   20.1188 C.3     1  UNL1        0.0523
     20 C          -3.2476  -18.4545   21.6940 C.ar    1  UNL1        0.0416
     21 S          -1.8709  -17.8717   21.5712 S.2     1  UNL1       -0.0738
@<TRIPOS>BOND
     1    15    16    1
     2    16    17   ar
     3    17    18   ar
     4    18    19    1
     5    18    20   ar
     6    20    14    1
     7    14    12    1
     8    12     1    1
     9     1     2   ar
    10     2     3   ar
    11     3     9    1
    12     9    10    1
    13    10    11    1
    14     3     4   ar
    15     4     5   ar
    16     5     6    1
    17     5     7   ar
    18     7     8    1
    19    20    21   ar
    20    21    16   ar
    21     7     1   ar
    22    11     9    1
    23    12    13    1
@<TRIPOS>MOLECULE
*****
 21 23 0 0 0
SMALL
GASTEIGER

@<TRIPOS>ATOM
      1 C          -6.0728  -19.0159   21.6771 C.ar    1  UNL1        0.1283
      2 N          -6.4034  -17.9392   22.6677 N.ar    1  UNL1       -0.2165
      3 C          -5.3073  -17.1082   23.2658 C.ar    1  UNL1        0.1410
      4 N          -3.8805  -17.3539   22.8734 N.ar    1  UNL1       -0.2195
      5 C          -3.5499  -18.4306   21.8828 C.ar    1  UNL1        0.1383
      6 CL         -2.1231  -18.6763   21.4904 Cl      1  UNL1       -0.0615
      7 C          -4.6460  -19.2616   21.2846 C.ar    1  UNL1        0.0380
      8 C          -4.3154  -20.3384   20.2940 C.3     1  UNL1        0.0365
      9 C          -5.6379  -16.0314   24.2565 C.3     1  UNL1        0.0587
     10 C          -6.5855  -14.9918   24.7773 C.3     1  UNL1        0.0080
     11 C          -5.2628  -15.2061   25.4515 C.3     1  UNL1        0.0080
     12 N          -7.1689  -19.8470   21.0788 N.pl3   1  UNL1       -0.3142
     13 H          -7.0866  -20.8278   21.0562 H       1  UNL1        0.1485
     14 C          -8.3905  -19.1837   20.5151 C.3     1  UNL1        0.1231
     15 C         -12.2767  -16.2094   22.4978 C.3     1  UNL1        0.0594
     16 C         -11.2261  -17.2695   22.3482 C.ar    1  UNL1        0.0880
     17 N         -10.8829  -18.3201   23.3624 N.ar    1  UNL1       -0.2473
     18 C          -9.7789  -19.1650   22.7991 C.ar    1  UNL1        0.0631
     19 C          -9.1284  -20.3333   23.4788 C.3     1  UNL1        0.0523
     20 C          -9.4398  -18.6366   21.4369 C.ar    1  UNL1        0.0416
     21 S         -10.3341  -17.4652   21.1582 S.2     1  UNL1       -0.0738
@<TRIPOS>BOND
     1    15    16    1
     2    16    17   ar
     3    17    18   ar
     4    18    19    1
     5    18    20   ar
     6    20    14    1
     7    14    12    1
     8    12     1    1
     9     1     2   ar
    10     2     3   ar
    11     3     9    1
    12     9    10    1
    13    10    11    1
    14     3     4   ar
    15     4     5   ar
    16     5     6    1
    17     5     7   ar
    18     7     8    1
    19    20    21   ar
    20    21    16   ar
    21     7     1   ar
    22    11     9    1
    23    12    13    1
@<TRIPOS>MOLECULE
*****
 21 23 0 0 0
SMALL
GASTEIGER

@<TRIPOS>ATOM
      1 C          -9.1233  -18.8597   22.2193 C.ar    1  UNL1        0.1283
      2 N          -7.6395  -18.8148   22.4342 N.ar    1  UNL1       -0.2165
      3 C          -6.7094  -19.2293   21.3329 C.ar    1  UNL1        0.1410
      4 N          -7.2630  -19.6886   20.0167 N.ar    1  UNL1       -0.2195
      5 C          -8.7468  -19.7335   19.8018 C.ar    1  UNL1        0.1383
      6 CL         -9.3004  -20.1929   18.4855 Cl      1  UNL1       -0.0615
      7 C          -9.6770  -19.3191   20.9031 C.ar    1  UNL1        0.0380
      8 C         -11.1609  -19.3640   20.6882 C.3     1  UNL1        0.0365
      9 C          -5.2255  -19.1844   21.5478 C.3     1  UNL1        0.0587
     10 C          -4.0398  -19.3198   22.4565 C.3     1  UNL1        0.0080
     11 C          -3.8411  -18.9712   21.0112 C.3     1  UNL1        0.0080
     12 N         -10.0536  -18.4453   23.3207 N.pl3   1  UNL1       -0.3142
     13 H         -10.6042  -19.1199   23.7800 H       1  UNL1        0.1485
     14 C         -10.1449  -17.0029   23.7222 C.3     1  UNL1        0.1231
     15 C          -6.6194  -15.2952   27.2627 C.3     1  UNL1        0.0594
     16 C          -7.3414  -15.5358   25.9700 C.ar    1  UNL1        0.0880
     17 N          -6.9412  -15.0062   24.6248 N.ar    1  UNL1       -0.2473
     18 C          -7.9427  -15.4914   23.6191 C.ar    1  UNL1        0.0631
     19 C          -7.9278  -15.1986   22.1480 C.3     1  UNL1        0.0523
     20 C          -8.9619  -16.3208   24.3426 C.ar    1  UNL1        0.0416
     21 S          -8.5902  -16.3482   25.7956 S.2     1  UNL1       -0.0738
@<TRIPOS>BOND
     1    15    16    1
     2    16    17   ar
     3    17    18   ar
     4    18    19    1
     5    18    20   ar
     6    20    14    1
     7    14    12    1
     8    12     1    1
     9     1     2   ar
    10     2     3   ar
    11     3     9    1
    12     9    10    1
    13    10    11    1
    14     3     4   ar
    15     4     5   ar
    16     5     6    1
    17     5     7   ar
    18     7     8    1
    19    20    21   ar
    20    21    16   ar
    21     7     1   ar
    22    11     9    1
    23    12    13    1
@<TRIPOS>MOLECULE
*****
 21 23 0 0 0
SMALL
GASTEIGER

@<TRIPOS>ATOM
      1 C          -9.6261  -19.0396   22.6103 C.ar    1  UNL1        0.1283
      2 N          -9.9198  -18.1064   21.4733 N.ar    1  UNL1       -0.2165
      3 C         -11.2138  -17.3484   21.4403 C.ar    1  UNL1        0.1410
      4 N         -12.2141  -17.5237   22.5442 N.ar    1  UNL1       -0.2195
      5 C         -11.9204  -18.4570   23.6812 C.ar    1  UNL1        0.1383
      6 CL        -12.9207  -18.6323   24.7851 Cl      1  UNL1       -0.0615
      7 C         -10.6264  -19.2149   23.7142 C.ar    1  UNL1        0.0380
      8 C         -10.3327  -20.1482   24.8513 C.3     1  UNL1        0.0365
      9 C         -11.5075  -16.4151   20.3032 C.3     1  UNL1        0.0587
     10 C         -11.0299  -15.4577   19.2519 C.3     1  UNL1        0.0080
     11 C         -12.4938  -15.7561   19.3852 C.3     1  UNL1        0.0080
     12 N          -8.3321  -19.7976   22.6434 N.pl3   1  UNL1       -0.3142
     13 H          -8.2143  -20.5430   23.2756 H       1  UNL1        0.1485
     14 C          -7.2176  -19.4198   21.7132 C.3     1  UNL1        0.1231
     15 C          -2.2682  -18.0194   22.9061 C.3     1  UNL1        0.0594
     16 C          -3.7627  -18.0073   22.7780 C.ar    1  UNL1        0.0880
     17 N          -4.6812  -16.9287   23.2710 N.ar    1  UNL1       -0.2473
     18 C          -6.0872  -17.3266   22.9321 C.ar    1  UNL1        0.0631
     19 C          -7.3254  -16.5383   23.2414 C.3     1  UNL1        0.0523
     20 C          -6.0377  -18.6510   22.2297 C.ar    1  UNL1        0.0416
     21 S          -4.6011  -19.0717   22.1345 S.2     1  UNL1       -0.0738
@<TRIPOS>BOND
     1    15    16    1
     2    16    17   ar
     3    17    18   ar
     4    18    19    1
     5    18    20   ar
     6    20    14    1
     7    14    12    1
     8    12     1    1
     9     1     2   ar
    10     2     3   ar
    11     3     9    1
    12     9    10    1
    13    10    11    1
    14     3     4   ar
    15     4     5   ar
    16     5     6    1
    17     5     7   ar
    18     7     8    1
    19    20    21   ar
    20    21    16   ar
    21     7     1   ar
    22    11     9    1
    23    12    13    1
@<TRIPOS>MOLECULE
*****
 21 23 0 0 0
SMALL
GASTEIGER

@<TRIPOS>ATOM
      1 C          -9.0542  -18.8321   22.6002 C.ar    1  UNL1        0.1283
      2 N          -7.6267  -19.1043   22.2290 N.ar    1  UNL1       -0.2165
      3 C          -7.2673  -19.4100   20.8051 C.ar    1  UNL1        0.1410
      4 N          -8.3355  -19.4435   19.7526 N.ar    1  UNL1       -0.2195
      5 C          -9.7630  -19.1714   20.1239 C.ar    1  UNL1        0.1383
      6 CL        -10.8312  -19.2049   19.0713 Cl      1  UNL1       -0.0615
      7 C         -10.1224  -18.8657   21.5477 C.ar    1  UNL1        0.0380
      8 C         -11.5501  -18.5935   21.9190 C.3     1  UNL1        0.0365
      9 C          -5.8396  -19.6821   20.4338 C.3     1  UNL1        0.0587
     10 C          -4.7303  -20.6551   20.1641 C.3     1  UNL1        0.0080
     11 C          -4.4763  -19.1805   20.0603 C.3     1  UNL1        0.0080
     12 N          -9.4137  -18.5264   24.0241 N.pl3   1  UNL1       -0.3142
     13 H          -9.6659  -19.2556   24.6356 H       1  UNL1        0.1485
     14 C          -9.3888  -17.1097   24.5163 C.3     1  UNL1        0.1231
     15 C          -4.6734  -14.9638   23.4966 C.3     1  UNL1        0.0594
     16 C          -5.9124  -15.4103   24.2147 C.ar    1  UNL1        0.0880
     17 N          -6.2185  -15.1883   25.6663 N.ar    1  UNL1       -0.2473
     18 C          -7.5580  -15.7979   25.9559 C.ar    1  UNL1        0.0631
     19 C          -8.2537  -15.8072   27.2848 C.3     1  UNL1        0.0523
     20 C          -8.0798  -16.3966   24.6834 C.ar    1  UNL1        0.0416
     21 S          -7.0627  -16.1570   23.6072 S.2     1  UNL1       -0.0738
@<TRIPOS>BOND
     1    15    16    1
     2    16    17   ar
     3    17    18   ar
     4    18    19    1
     5    18    20   ar
     6    20    14    1
     7    14    12    1
     8    12     1    1
     9     1     2   ar
    10     2     3   ar
    11     3     9    1
    12     9    10    1
    13    10    11    1
    14     3     4   ar
    15     4     5   ar
    16     5     6    1
    17     5     7   ar
    18     7     8    1
    19    20    21   ar
    20    21    16   ar
    21     7     1   ar
    22    11     9    1
    23    12    13    1
