@<TRIPOS>MOLECULE
*****
 30 33 0 0 0
SMALL
GASTEIGER

@<TRIPOS>ATOM
      1 C          -8.7967  -19.8527   18.8887 C.3     1  UNL1        0.0646
      2 C          -8.0024  -20.7110   19.8280 C.3     1  UNL1        0.0759
      3 C          -4.2400  -19.1075   21.7049 C.3     1  UNL1        0.0087
      4 C          -5.5792  -18.6315   22.1845 C.3     1  UNL1        0.0178
      5 C          -6.8333  -19.1660   21.5589 C.3     1  UNL1        0.0721
      6 N          -6.7482  -20.1765   20.4536 N.3     1  UNL1       -0.2726
      7 C          -5.4091  -20.6525   19.9740 C.3     1  UNL1        0.0721
      8 C          -4.1550  -20.1180   20.5996 C.3     1  UNL1        0.0178
      9 C          -2.9858  -18.5729   22.3305 C.3     1  UNL1        0.0475
     10 C          -0.0038  -17.8354   19.9581 C.ar    1  UNL1        0.1747
     11 N          -0.9026  -18.8015   20.6714 N.ar    1  UNL1       -0.2285
     12 C          -1.8979  -18.0087   21.4657 C.ar    1  UNL1        0.0776
     13 C          -1.6142  -16.5526   21.2433 C.ar    1  UNL1        0.0885
     14 N          -0.4436  -16.4455   20.3116 N.ar    1  UNL1       -0.3340
     15 H          -0.0356  -15.6097   19.9887 H       1  UNL1        0.1675
     16 C         -10.2752  -19.6937   19.0864 C.3     1  UNL1        0.2068
     17 O         -10.8645  -19.8076   20.4610 O.3     1  UNL1       -0.4754
     18 C         -10.5161  -18.7962   21.5125 C.ar    1  UNL1        0.1385
     19 C         -10.2552  -19.2389   22.9218 C.ar    1  UNL1        0.0366
     20 C          -9.9068  -18.2275   23.9733 C.ar    1  UNL1        0.0002
     21 C          -9.8193  -16.7734   23.6155 C.ar    1  UNL1       -0.0059
     22 C         -10.0802  -16.3307   22.2063 C.ar    1  UNL1        0.0002
     23 C         -10.4286  -17.3421   21.1548 C.ar    1  UNL1        0.0366
     24 C          -9.4709  -15.7620   24.6670 C.3     1  UNL1        0.0991
     25 N          -8.0519  -15.6230   25.1331 N.3     1  UNL1       -0.2690
     26 C          -7.7450  -15.5842   26.6009 C.3     1  UNL1        0.0724
     27 C          -6.3261  -15.4453   27.0670 C.3     1  UNL1        0.0174
     28 C          -5.2140  -15.3451   26.0653 C.3     1  UNL1        0.0029
     29 C          -5.5209  -15.3839   24.5976 C.3     1  UNL1        0.0174
     30 C          -6.9399  -15.5228   24.1315 C.3     1  UNL1        0.0724
@<TRIPOS>BOND
     1    10    11   ar
     2    11    12   ar
     3    12     9    1
     4     9     3    1
     5     3     4    1
     6     4     5    1
     7     5     6    1
     8     6     2    1
     9     2     1    1
    10     1    16    1
    11    16    17    1
    12    17    18    1
    13    18    19   ar
    14    19    20   ar
    15    20    21   ar
    16    21    24    1
    17    24    25    1
    18    25    26    1
    19    26    27    1
    20    27    28    1
    21    28    29    1
    22    29    30    1
    23    21    22   ar
    24    22    23   ar
    25     6     7    1
    26     7     8    1
    27    12    13   ar
    28    13    14   ar
    29    14    10   ar
    30     8     3    1
    31    23    18   ar
    32    30    25    1
    33    14    15    1
@<TRIPOS>MOLECULE
*****
 30 33 0 0 0
SMALL
GASTEIGER

@<TRIPOS>ATOM
      1 C         -11.7574  -18.5495   20.5332 C.3     1  UNL1        0.0646
      2 C         -12.2711  -18.1816   21.8936 C.3     1  UNL1        0.0759
      3 C          -9.3942  -16.9572   25.1299 C.3     1  UNL1        0.0087
      4 C          -9.7675  -15.9844   24.0509 C.3     1  UNL1        0.0178
      5 C         -10.7265  -16.3925   22.9722 C.3     1  UNL1        0.0721
      6 N         -11.3121  -17.7735   22.9724 N.3     1  UNL1       -0.2726
      7 C         -10.9388  -18.7463   24.0514 C.3     1  UNL1        0.0721
      8 C          -9.9798  -18.3381   25.1302 C.3     1  UNL1        0.0178
      9 C          -8.4351  -16.5491   26.2087 C.3     1  UNL1        0.0475
     10 C          -5.1584  -15.2614   24.5748 C.ar    1  UNL1        0.1747
     11 N          -6.4849  -15.9551   24.4800 N.ar    1  UNL1       -0.2285
     12 C          -7.1052  -15.9580   25.8457 C.ar    1  UNL1        0.0776
     13 C          -6.1619  -15.2661   26.7847 C.ar    1  UNL1        0.0885
     14 N          -4.9587  -14.8356   25.9992 N.ar    1  UNL1       -0.3340
     15 H          -4.1755  -14.3575   26.3560 H       1  UNL1        0.1675
     16 C         -10.8145  -19.7053   20.3749 C.3     1  UNL1        0.2068
     17 O          -9.5549  -19.5418   19.5771 O.3     1  UNL1       -0.4754
     18 C          -8.2297  -19.4636   20.2754 C.ar    1  UNL1        0.1385
     19 C          -7.0652  -20.2601   19.7657 C.ar    1  UNL1        0.0366
     20 C          -5.7400  -20.1819   20.4640 C.ar    1  UNL1        0.0002
     21 C          -5.5792  -19.3073   21.6720 C.ar    1  UNL1       -0.0059
     22 C          -6.7436  -18.5109   22.1817 C.ar    1  UNL1        0.0002
     23 C          -8.0689  -18.5890   21.4834 C.ar    1  UNL1        0.0366
     24 C          -4.2540  -19.2291   22.3703 C.3     1  UNL1        0.0991
     25 N          -3.1179  -18.4783   21.7413 N.3     1  UNL1       -0.2690
     26 C          -2.8383  -17.0619   22.1484 C.3     1  UNL1        0.0724
     27 C          -1.7023  -16.3111   21.5194 C.3     1  UNL1        0.0174
     28 C          -0.8457  -16.9767   20.4834 C.3     1  UNL1        0.0029
     29 C          -1.1252  -18.3931   20.0763 C.3     1  UNL1        0.0174
     30 C          -2.2614  -19.1439   20.7053 C.3     1  UNL1        0.0724
@<TRIPOS>BOND
     1    10    11   ar
     2    11    12   ar
     3    12     9    1
     4     9     3    1
     5     3     4    1
     6     4     5    1
     7     5     6    1
     8     6     2    1
     9     2     1    1
    10     1    16    1
    11    16    17    1
    12    17    18    1
    13    18    19   ar
    14    19    20   ar
    15    20    21   ar
    16    21    24    1
    17    24    25    1
    18    25    26    1
    19    26    27    1
    20    27    28    1
    21    28    29    1
    22    29    30    1
    23    21    22   ar
    24    22    23   ar
    25     6     7    1
    26     7     8    1
    27    12    13   ar
    28    13    14   ar
    29    14    10   ar
    30     8     3    1
    31    23    18   ar
    32    30    25    1
    33    14    15    1
@<TRIPOS>MOLECULE
*****
 30 33 0 0 0
SMALL
GASTEIGER

@<TRIPOS>ATOM
      1 C          -5.7582  -15.3442   26.2821 C.3     1  UNL1        0.0646
      2 C          -6.0732  -15.3958   24.8165 C.3     1  UNL1        0.0759
      3 C          -3.9105  -18.3060   22.1513 C.3     1  UNL1        0.0087
      4 C          -3.1557  -17.1914   22.8130 C.3     1  UNL1        0.0178
      5 C          -3.8766  -16.2213   23.7014 C.3     1  UNL1        0.0721
      6 N          -5.3523  -16.3659   23.9281 N.3     1  UNL1       -0.2726
      7 C          -6.1071  -17.4806   23.2664 C.3     1  UNL1        0.0721
      8 C          -5.3862  -18.4506   22.3780 C.3     1  UNL1        0.0178
      9 C          -3.1895  -19.2761   21.2629 C.3     1  UNL1        0.0475
     10 C           0.0665  -18.1177   19.4962 C.ar    1  UNL1        0.1747
     11 N          -0.6575  -18.6230   20.7088 N.ar    1  UNL1       -0.2285
     12 C          -2.1038  -18.7915   20.3484 C.ar    1  UNL1        0.0776
     13 C          -2.2737  -18.3902   18.9131 C.ar    1  UNL1        0.0885
     14 N          -0.9324  -17.9738   18.3863 N.ar    1  UNL1       -0.3340
     15 H          -0.7412  -17.6609   17.4727 H       1  UNL1        0.1675
     16 C          -6.8677  -15.4000   27.2902 C.3     1  UNL1        0.2068
     17 O          -8.2897  -15.2126   26.8515 O.3     1  UNL1       -0.4754
     18 C          -8.9078  -16.1740   25.8801 C.ar    1  UNL1        0.1385
     19 C          -9.2940  -15.7089   24.5073 C.ar    1  UNL1        0.0366
     20 C          -9.9121  -16.6703   23.5359 C.ar    1  UNL1        0.0002
     21 C         -10.1441  -18.0968   23.9373 C.ar    1  UNL1       -0.0059
     22 C          -9.7580  -18.5620   25.3100 C.ar    1  UNL1        0.0002
     23 C          -9.1398  -17.6005   26.2815 C.ar    1  UNL1        0.0366
     24 C         -10.7622  -19.0582   22.9659 C.3     1  UNL1        0.0991
     25 N         -10.1248  -19.2856   21.6272 N.3     1  UNL1       -0.2690
     26 C         -10.9760  -19.3626   20.3946 C.3     1  UNL1        0.0724
     27 C         -10.3387  -19.5900   19.0559 C.3     1  UNL1        0.0174
     28 C          -8.8500  -19.7405   18.9498 C.3     1  UNL1        0.0029
     29 C          -7.9987  -19.6635   20.1825 C.3     1  UNL1        0.0174
     30 C          -8.6361  -19.4361   21.5212 C.3     1  UNL1        0.0724
@<TRIPOS>BOND
     1    10    11   ar
     2    11    12   ar
     3    12     9    1
     4     9     3    1
     5     3     4    1
     6     4     5    1
     7     5     6    1
     8     6     2    1
     9     2     1    1
    10     1    16    1
    11    16    17    1
    12    17    18    1
    13    18    19   ar
    14    19    20   ar
    15    20    21   ar
    16    21    24    1
    17    24    25    1
    18    25    26    1
    19    26    27    1
    20    27    28    1
    21    28    29    1
    22    29    30    1
    23    21    22   ar
    24    22    23   ar
    25     6     7    1
    26     7     8    1
    27    12    13   ar
    28    13    14   ar
    29    14    10   ar
    30     8     3    1
    31    23    18   ar
    32    30    25    1
    33    14    15    1
@<TRIPOS>MOLECULE
*****
 30 33 0 0 0
SMALL
GASTEIGER

@<TRIPOS>ATOM
      1 C          -1.8571  -18.6861   19.5836 C.3     1  UNL1        0.0646
      2 C          -1.5702  -18.5638   21.0508 C.3     1  UNL1        0.0759
      3 C          -4.3585  -16.2298   23.7018 C.3     1  UNL1        0.0087
      4 C          -4.2656  -17.7206   23.8390 C.3     1  UNL1        0.0178
      5 C          -3.3362  -18.4986   22.9554 C.3     1  UNL1        0.0721
      6 N          -2.4997  -17.7857   21.9345 N.3     1  UNL1       -0.2726
      7 C          -2.5926  -16.2950   21.7973 C.3     1  UNL1        0.0721
      8 C          -3.5219  -15.5170   22.6810 C.3     1  UNL1        0.0178
      9 C          -5.2879  -15.4517   24.5856 C.3     1  UNL1        0.0475
     10 C          -9.1385  -15.8763   24.8246 C.ar    1  UNL1        0.1747
     11 N          -7.7794  -15.8692   25.4590 N.ar    1  UNL1       -0.2285
     12 C          -6.7715  -15.5587   24.3924 C.ar    1  UNL1        0.0776
     13 C          -7.5078  -15.3738   23.0987 C.ar    1  UNL1        0.0885
     14 N          -8.9707  -15.5702   23.3657 N.ar    1  UNL1       -0.3340
     15 H          -9.6938  -15.5088   22.7004 H       1  UNL1        0.1675
     16 C          -3.2689  -18.8598   19.1073 C.3     1  UNL1        0.2068
     17 O          -4.0804  -20.0303   19.5777 O.3     1  UNL1       -0.4754
     18 C          -5.2676  -19.8106   20.4677 C.ar    1  UNL1        0.1385
     19 C          -5.9958  -18.4995   20.4368 C.ar    1  UNL1        0.0366
     20 C          -7.1830  -18.2798   21.3269 C.ar    1  UNL1        0.0002
     21 C          -7.6421  -19.3712   22.2478 C.ar    1  UNL1       -0.0059
     22 C          -6.9141  -20.6822   22.2787 C.ar    1  UNL1        0.0002
     23 C          -5.7268  -20.9020   21.3887 C.ar    1  UNL1        0.0366
     24 C          -8.8294  -19.1515   23.1379 C.3     1  UNL1        0.0991
     25 N         -10.1260  -18.6735   22.5544 N.3     1  UNL1       -0.2690
     26 C         -10.2431  -18.4409   21.0772 C.3     1  UNL1        0.0724
     27 C         -11.5396  -17.9629   20.4936 C.3     1  UNL1        0.0174
     28 C         -12.7191  -17.7176   21.3874 C.3     1  UNL1        0.0029
     29 C         -12.6020  -17.9502   22.8646 C.3     1  UNL1        0.0174
     30 C         -11.3054  -18.4282   23.4481 C.3     1  UNL1        0.0724
@<TRIPOS>BOND
     1    10    11   ar
     2    11    12   ar
     3    12     9    1
     4     9     3    1
     5     3     4    1
     6     4     5    1
     7     5     6    1
     8     6     2    1
     9     2     1    1
    10     1    16    1
    11    16    17    1
    12    17    18    1
    13    18    19   ar
    14    19    20   ar
    15    20    21   ar
    16    21    24    1
    17    24    25    1
    18    25    26    1
    19    26    27    1
    20    27    28    1
    21    28    29    1
    22    29    30    1
    23    21    22   ar
    24    22    23   ar
    25     6     7    1
    26     7     8    1
    27    12    13   ar
    28    13    14   ar
    29    14    10   ar
    30     8     3    1
    31    23    18   ar
    32    30    25    1
    33    14    15    1
@<TRIPOS>MOLECULE
*****
 30 33 0 0 0
SMALL
GASTEIGER

@<TRIPOS>ATOM
      1 C         -11.7880  -17.8577   21.1345 C.3     1  UNL1        0.0646
      2 C         -11.6788  -16.9433   22.3184 C.3     1  UNL1        0.0759
      3 C          -7.6283  -15.7339   23.8614 C.3     1  UNL1        0.0087
      4 C          -8.5827  -16.4686   24.7555 C.3     1  UNL1        0.0178
      5 C          -9.9328  -16.8717   24.2411 C.3     1  UNL1        0.0721
      6 N         -10.3285  -16.5401   22.8328 N.3     1  UNL1       -0.2726
      7 C          -9.3741  -15.8054   21.9387 C.3     1  UNL1        0.0721
      8 C          -8.0240  -15.4023   22.4531 C.3     1  UNL1        0.0178
      9 C          -6.2781  -15.3307   24.3758 C.3     1  UNL1        0.0475
     10 C          -3.0315  -15.9189   22.3316 C.ar    1  UNL1        0.1747
     11 N          -4.1521  -15.0302   22.7836 N.ar    1  UNL1       -0.2285
     12 C          -5.0372  -15.8276   23.6951 C.ar    1  UNL1        0.0776
     13 C          -4.4635  -17.2091   23.8064 C.ar    1  UNL1        0.0885
     14 N          -3.2239  -17.2656   22.9637 N.ar    1  UNL1       -0.3340
     15 H          -2.6393  -18.0489   22.8461 H       1  UNL1        0.1675
     16 C         -11.1130  -19.1972   21.1566 C.3     1  UNL1        0.2068
     17 O         -10.1399  -19.5646   20.0759 O.3     1  UNL1       -0.4754
     18 C          -8.6798  -19.6946   20.3939 C.ar    1  UNL1        0.1385
     19 C          -7.7587  -20.3744   19.4246 C.ar    1  UNL1        0.0366
     20 C          -6.2986  -20.5044   19.7427 C.ar    1  UNL1        0.0002
     21 C          -5.7596  -19.9546   21.0300 C.ar    1  UNL1       -0.0059
     22 C          -6.6806  -19.2749   21.9993 C.ar    1  UNL1        0.0002
     23 C          -8.1408  -19.1449   21.6813 C.ar    1  UNL1        0.0366
     24 C          -4.2995  -20.0846   21.3480 C.3     1  UNL1        0.0991
     25 N          -3.2914  -19.2735   20.5891 N.3     1  UNL1       -0.2690
     26 C          -1.8342  -19.3799   20.9286 C.3     1  UNL1        0.0724
     27 C          -0.8262  -18.5688   20.1697 C.3     1  UNL1        0.0174
     28 C          -1.2753  -17.6512   19.0713 C.3     1  UNL1        0.0029
     29 C          -2.7325  -17.5449   18.7318 C.3     1  UNL1        0.0174
     30 C          -3.7406  -18.3560   19.4907 C.3     1  UNL1        0.0724
@<TRIPOS>BOND
     1    10    11   ar
     2    11    12   ar
     3    12     9    1
     4     9     3    1
     5     3     4    1
     6     4     5    1
     7     5     6    1
     8     6     2    1
     9     2     1    1
    10     1    16    1
    11    16    17    1
    12    17    18    1
    13    18    19   ar
    14    19    20   ar
    15    20    21   ar
    16    21    24    1
    17    24    25    1
    18    25    26    1
    19    26    27    1
    20    27    28    1
    21    28    29    1
    22    29    30    1
    23    21    22   ar
    24    22    23   ar
    25     6     7    1
    26     7     8    1
    27    12    13   ar
    28    13    14   ar
    29    14    10   ar
    30     8     3    1
    31    23    18   ar
    32    30    25    1
    33    14    15    1
@<TRIPOS>MOLECULE
*****
 30 33 0 0 0
SMALL
GASTEIGER

@<TRIPOS>ATOM
      1 C         -18.2325   -7.5394   19.9090 C.3     1  UNL1        0.0646
      2 C         -18.1927   -6.1198   19.4263 C.3     1  UNL1        0.0759
      3 C         -14.4360   -3.6876   19.8973 C.3     1  UNL1        0.0087
      4 C         -14.3551   -5.1827   19.8070 C.3     1  UNL1        0.0178
      5 C         -15.6073   -5.9934   19.6500 C.3     1  UNL1        0.0721
      6 N         -16.9405   -5.3090   19.5833 N.3     1  UNL1       -0.2726
      7 C         -17.0213   -3.8139   19.6736 C.3     1  UNL1        0.0721
      8 C         -15.7691   -3.0033   19.8306 C.3     1  UNL1        0.0178
      9 C         -13.1838   -2.8769   20.0543 C.3     1  UNL1        0.0475
     10 C         -11.1828   -0.7529   17.4951 C.ar    1  UNL1        0.1747
     11 N         -11.4255   -1.2300   18.8963 N.ar    1  UNL1       -0.2285
     12 C         -12.5967   -2.1667   18.8707 C.ar    1  UNL1        0.0776
     13 C         -13.0779   -2.2686   17.4536 C.ar    1  UNL1        0.0885
     14 N         -12.2040   -1.3949   16.6034 N.ar    1  UNL1       -0.3340
     15 H         -12.2862   -1.2654   15.6309 H       1  UNL1        0.1675
     16 C         -18.9087   -8.5936   19.0834 C.3     1  UNL1        0.2068
     17 O         -18.1141   -9.3999   18.0993 O.3     1  UNL1       -0.4754
     18 C         -16.7899   -8.8929   17.6101 C.ar    1  UNL1        0.1385
     19 C         -15.5197   -9.3856   18.2377 C.ar    1  UNL1        0.0366
     20 C         -14.1956   -8.8786   17.7485 C.ar    1  UNL1        0.0002
     21 C         -14.1415   -7.8788   16.6315 C.ar    1  UNL1       -0.0059
     22 C         -15.4116   -7.3861   16.0038 C.ar    1  UNL1        0.0002
     23 C         -16.7359   -7.8931   16.4931 C.ar    1  UNL1        0.0366
     24 C         -12.8173   -7.3718   16.1422 C.3     1  UNL1        0.0991
     25 N         -11.7362   -7.0292   17.1240 N.3     1  UNL1       -0.2690
     26 C         -10.6818   -8.0411   17.4620 C.3     1  UNL1        0.0724
     27 C          -9.6007   -7.6985   18.4437 C.3     1  UNL1        0.0174
     28 C          -9.5739   -6.3439   19.0874 C.3     1  UNL1        0.0029
     29 C         -10.6282   -5.3319   18.7494 C.3     1  UNL1        0.0174
     30 C         -11.7094   -5.6746   17.7676 C.3     1  UNL1        0.0724
@<TRIPOS>BOND
     1    10    11   ar
     2    11    12   ar
     3    12     9    1
     4     9     3    1
     5     3     4    1
     6     4     5    1
     7     5     6    1
     8     6     2    1
     9     2     1    1
    10     1    16    1
    11    16    17    1
    12    17    18    1
    13    18    19   ar
    14    19    20   ar
    15    20    21   ar
    16    21    24    1
    17    24    25    1
    18    25    26    1
    19    26    27    1
    20    27    28    1
    21    28    29    1
    22    29    30    1
    23    21    22   ar
    24    22    23   ar
    25     6     7    1
    26     7     8    1
    27    12    13   ar
    28    13    14   ar
    29    14    10   ar
    30     8     3    1
    31    23    18   ar
    32    30    25    1
    33    14    15    1
@<TRIPOS>MOLECULE
*****
 30 33 0 0 0
SMALL
GASTEIGER

@<TRIPOS>ATOM
      1 C         -18.4567   -9.8476   19.2787 C.3     1  UNL1        0.0646
      2 C         -17.0718  -10.2035   18.8256 C.3     1  UNL1        0.0759
      3 C         -13.9974   -6.9710   18.2347 C.3     1  UNL1        0.0087
      4 C         -14.0638   -8.1263   17.2804 C.3     1  UNL1        0.0178
      5 C         -15.0886   -9.2038   17.4774 C.3     1  UNL1        0.0721
      6 N         -16.0470   -9.1259   18.6287 N.3     1  UNL1       -0.2726
      7 C         -15.9806   -7.9706   19.5830 C.3     1  UNL1        0.0721
      8 C         -14.9558   -6.8931   19.3860 C.3     1  UNL1        0.0178
      9 C         -12.9726   -5.8934   18.0378 C.3     1  UNL1        0.0475
     10 C          -9.4477   -7.2124   18.9867 C.ar    1  UNL1        0.1747
     11 N         -10.8497   -7.4480   18.5083 N.ar    1  UNL1       -0.2285
     12 C         -11.5519   -6.1234   18.4603 C.ar    1  UNL1        0.0776
     13 C         -10.5838   -5.0690   18.9089 C.ar    1  UNL1        0.0885
     14 N          -9.2833   -5.7420   19.2342 N.ar    1  UNL1       -0.3340
     15 H          -8.4655   -5.2969   19.5541 H       1  UNL1        0.1675
     16 C         -19.5420   -9.6228   18.2679 C.3     1  UNL1        0.2068
     17 O         -19.3271   -8.6596   17.1384 O.3     1  UNL1       -0.4754
     18 C         -18.7630   -7.2969   17.4118 C.ar    1  UNL1        0.1385
     19 C         -19.2676   -6.4959   18.5754 C.ar    1  UNL1        0.0366
     20 C         -18.7035   -5.1333   18.8489 C.ar    1  UNL1        0.0002
     21 C         -17.6348   -4.5715   17.9588 C.ar    1  UNL1       -0.0059
     22 C         -17.1301   -5.3724   16.7953 C.ar    1  UNL1        0.0002
     23 C         -17.6943   -6.7352   16.5218 C.ar    1  UNL1        0.0366
     24 C         -17.0706   -3.2088   18.2323 C.3     1  UNL1        0.0991
     25 N         -15.7155   -3.0703   18.8605 N.3     1  UNL1       -0.2690
     26 C         -14.6119   -2.3770   18.1180 C.3     1  UNL1        0.0724
     27 C         -13.2569   -2.2385   18.7461 C.3     1  UNL1        0.0174
     28 C         -13.0054   -2.7932   20.1170 C.3     1  UNL1        0.0029
     29 C         -14.1090   -3.4864   20.8596 C.3     1  UNL1        0.0174
     30 C         -15.4641   -3.6250   20.2313 C.3     1  UNL1        0.0724
@<TRIPOS>BOND
     1    10    11   ar
     2    11    12   ar
     3    12     9    1
     4     9     3    1
     5     3     4    1
     6     4     5    1
     7     5     6    1
     8     6     2    1
     9     2     1    1
    10     1    16    1
    11    16    17    1
    12    17    18    1
    13    18    19   ar
    14    19    20   ar
    15    20    21   ar
    16    21    24    1
    17    24    25    1
    18    25    26    1
    19    26    27    1
    20    27    28    1
    21    28    29    1
    22    29    30    1
    23    21    22   ar
    24    22    23   ar
    25     6     7    1
    26     7     8    1
    27    12    13   ar
    28    13    14   ar
    29    14    10   ar
    30     8     3    1
    31    23    18   ar
    32    30    25    1
    33    14    15    1
@<TRIPOS>MOLECULE
*****
 30 33 0 0 0
SMALL
GASTEIGER

@<TRIPOS>ATOM
      1 C         -18.8915   -8.3195   19.9613 C.3     1  UNL1        0.0646
      2 C         -18.3532   -9.1051   18.8024 C.3     1  UNL1        0.0759
      3 C         -14.3456   -8.0598   17.0429 C.3     1  UNL1        0.0087
      4 C         -15.6018   -7.7476   16.2850 C.3     1  UNL1        0.0178
      5 C         -16.9376   -8.0960   16.8716 C.3     1  UNL1        0.0721
      6 N         -17.0173   -8.7567   18.2159 N.3     1  UNL1       -0.2726
      7 C         -15.7610   -9.0688   18.9737 C.3     1  UNL1        0.0721
      8 C         -14.4252   -8.7204   18.3872 C.3     1  UNL1        0.0178
      9 C         -13.0096   -7.7113   16.4564 C.3     1  UNL1        0.0475
     10 C          -9.7240   -7.4112   18.5009 C.ar    1  UNL1        0.1747
     11 N         -10.5799   -8.1195   17.4929 N.ar    1  UNL1       -0.2285
     12 C         -11.8643   -7.3567   17.3577 C.ar    1  UNL1        0.0776
     13 C         -11.8023   -6.1769   18.2821 C.ar    1  UNL1        0.0885
     14 N         -10.4796   -6.2106   18.9886 N.ar    1  UNL1       -0.3340
     15 H         -10.1629   -5.5592   19.6553 H       1  UNL1        0.1675
     16 C         -19.7449   -7.1105   19.7161 C.3     1  UNL1        0.2068
     17 O         -19.1794   -5.7376   19.9292 O.3     1  UNL1       -0.4754
     18 C         -17.9802   -5.2908   19.1468 C.ar    1  UNL1        0.1385
     19 C         -16.6044   -5.4636   19.7191 C.ar    1  UNL1        0.0366
     20 C         -15.4051   -5.0167   18.9368 C.ar    1  UNL1        0.0002
     21 C         -15.5816   -4.3971   17.5822 C.ar    1  UNL1       -0.0059
     22 C         -16.9573   -4.2243   17.0099 C.ar    1  UNL1        0.0002
     23 C         -18.1566   -4.6712   17.7922 C.ar    1  UNL1        0.0366
     24 C         -14.3823   -3.9502   16.7999 C.3     1  UNL1        0.0991
     25 N         -13.6010   -2.7496   17.2452 N.3     1  UNL1       -0.2690
     26 C         -14.3006   -1.6086   17.9225 C.3     1  UNL1        0.0724
     27 C         -13.5194   -0.4081   18.3679 C.3     1  UNL1        0.0174
     28 C         -12.0386   -0.3485   18.1359 C.3     1  UNL1        0.0029
     29 C         -11.3390   -1.4895   17.4586 C.3     1  UNL1        0.0174
     30 C         -12.1203   -2.6901   17.0133 C.3     1  UNL1        0.0724
@<TRIPOS>BOND
     1    10    11   ar
     2    11    12   ar
     3    12     9    1
     4     9     3    1
     5     3     4    1
     6     4     5    1
     7     5     6    1
     8     6     2    1
     9     2     1    1
    10     1    16    1
    11    16    17    1
    12    17    18    1
    13    18    19   ar
    14    19    20   ar
    15    20    21   ar
    16    21    24    1
    17    24    25    1
    18    25    26    1
    19    26    27    1
    20    27    28    1
    21    28    29    1
    22    29    30    1
    23    21    22   ar
    24    22    23   ar
    25     6     7    1
    26     7     8    1
    27    12    13   ar
    28    13    14   ar
    29    14    10   ar
    30     8     3    1
    31    23    18   ar
    32    30    25    1
    33    14    15    1
@<TRIPOS>MOLECULE
*****
 30 33 0 0 0
SMALL
GASTEIGER

@<TRIPOS>ATOM
      1 C          -5.5170  -15.0643   25.7200 C.3     1  UNL1        0.0646
      2 C          -4.5779  -15.8429   24.8472 C.3     1  UNL1        0.0759
      3 C          -6.2039  -18.7806   21.8512 C.3     1  UNL1        0.0087
      4 C          -4.7865  -18.9015   22.3270 C.3     1  UNL1        0.0178
      5 C          -4.2445  -17.9223   23.3256 C.3     1  UNL1        0.0721
      6 N          -5.1199  -16.8222   23.8485 N.3     1  UNL1       -0.2726
      7 C          -6.5373  -16.7013   23.3728 C.3     1  UNL1        0.0721
      8 C          -7.0793  -17.6805   22.3741 C.3     1  UNL1        0.0178
      9 C          -6.7459  -19.7599   20.8526 C.3     1  UNL1        0.0475
     10 C         -10.1597  -19.3181   19.0593 C.ar    1  UNL1        0.1747
     11 N          -8.6605  -19.2709   19.0525 N.ar    1  UNL1       -0.2285
     12 C          -8.1780  -19.6703   20.4155 C.ar    1  UNL1        0.0776
     13 C          -9.3791  -19.9644   21.2646 C.ar    1  UNL1        0.0885
     14 N         -10.6039  -19.7467   20.4265 N.ar    1  UNL1       -0.3340
     15 H         -11.5356  -19.8645   20.7218 H       1  UNL1        0.1675
     16 C          -5.9447  -15.6213   27.0455 C.3     1  UNL1        0.2068
     17 O          -7.4035  -15.7351   27.3757 O.3     1  UNL1       -0.4754
     18 C          -8.3698  -16.2328   26.3421 C.ar    1  UNL1        0.1385
     19 C          -8.8646  -17.6478   26.3977 C.ar    1  UNL1        0.0366
     20 C          -9.8309  -18.1456   25.3640 C.ar    1  UNL1        0.0002
     21 C         -10.3024  -17.2284   24.2748 C.ar    1  UNL1       -0.0059
     22 C          -9.8076  -15.8135   24.2191 C.ar    1  UNL1        0.0002
     23 C          -8.8412  -15.3157   25.2528 C.ar    1  UNL1        0.0366
     24 C         -11.2687  -17.7262   23.2411 C.3     1  UNL1        0.0991
     25 N         -11.4036  -17.0061   21.9321 N.3     1  UNL1       -0.2690
     26 C         -12.7261  -16.9773   21.2249 C.3     1  UNL1        0.0724
     27 C         -12.8611  -16.2573   19.9159 C.3     1  UNL1        0.0174
     28 C         -11.6736  -15.5660   19.3142 C.3     1  UNL1        0.0029
     29 C         -10.3511  -15.5948   20.0215 C.3     1  UNL1        0.0174
     30 C         -10.2161  -16.3149   21.3304 C.3     1  UNL1        0.0724
@<TRIPOS>BOND
     1    10    11   ar
     2    11    12   ar
     3    12     9    1
     4     9     3    1
     5     3     4    1
     6     4     5    1
     7     5     6    1
     8     6     2    1
     9     2     1    1
    10     1    16    1
    11    16    17    1
    12    17    18    1
    13    18    19   ar
    14    19    20   ar
    15    20    21   ar
    16    21    24    1
    17    24    25    1
    18    25    26    1
    19    26    27    1
    20    27    28    1
    21    28    29    1
    22    29    30    1
    23    21    22   ar
    24    22    23   ar
    25     6     7    1
    26     7     8    1
    27    12    13   ar
    28    13    14   ar
    29    14    10   ar
    30     8     3    1
    31    23    18   ar
    32    30    25    1
    33    14    15    1
