@<TRIPOS>MOLECULE
*****
 34 39 0 0 0
SMALL
GASTEIGER

@<TRIPOS>ATOM
      1 C          -9.4002  -17.5293   24.0713 C.ar    1  UNL1        0.0212
      2 C         -10.8938  -17.5449   23.9346 C.ar    1  UNL1        0.0328
      3 C         -11.5309  -18.1870   22.7379 C.ar    1  UNL1        0.1610
      4 F         -13.0246  -18.2025   22.6013 F       1  UNL1       -0.2025
      5 C         -10.6742  -18.8135   21.6779 C.ar    1  UNL1        0.1494
      6 N         -11.0152  -19.5148   20.3966 N.ar    1  UNL1       -0.1262
      7 N          -9.7322  -19.9327   19.7414 N.ar    1  UNL1       -0.0595
      8 N          -8.5983  -19.4896   20.6177 N.ar    1  UNL1       -0.2103
      9 C          -9.1805  -18.7979   21.8146 C.ar    1  UNL1        0.1060
     10 C          -8.5435  -18.1558   23.0113 C.ar    1  UNL1        0.0224
     11 C          -7.1386  -19.7011   20.3451 C.ar    1  UNL1        0.0858
     12 C          -6.5184  -21.0461   20.5827 C.ar    1  UNL1        0.0206
     13 C          -5.0586  -21.2577   20.3100 C.ar    1  UNL1        0.0195
     14 C          -4.2190  -20.1243   19.7998 C.ar    1  UNL1        0.0904
     15 N          -2.7648  -20.0337   19.4433 N.am    1  UNL1       -0.1594
     16 C          -2.4862  -18.6328   18.9853 C.2     1  UNL1        0.3478
     17 O          -1.1586  -18.1006   18.5333 O.2     1  UNL1       -0.2484
     18 N          -3.7683  -17.8575   19.0588 N.am    1  UNL1       -0.1593
     19 C          -4.8392  -18.7793   19.5621 C.ar    1  UNL1        0.0918
     20 C          -6.2989  -18.5677   19.8348 C.ar    1  UNL1        0.0372
     21 N          -7.6290  -15.9060   25.2429 N.ar    1  UNL1       -0.2464
     22 N          -7.3134  -15.5261   26.6593 N.ar    1  UNL1       -0.1674
     23 C          -8.2525  -16.2726   27.5597 C.ar    1  UNL1        0.1217
     24 C          -9.1485  -17.1139   26.6998 C.ar    1  UNL1        0.0412
     25 C          -8.7632  -16.8873   25.2680 C.ar    1  UNL1        0.0799
     26 C          -6.9327  -15.3944   24.0167 C.3     1  UNL1        0.1538
     27 C          -3.1123  -17.3249   22.6283 C.ar    1  UNL1        0.0684
     28 C          -4.2652  -18.1764   23.0710 C.ar    1  UNL1        0.0100
     29 C          -5.5387  -17.5329   23.5338 C.ar    1  UNL1       -0.0016
     30 C          -5.6592  -16.0379   23.5539 C.ar    1  UNL1        0.0021
     31 C          -4.5064  -15.1864   23.1113 C.ar    1  UNL1       -0.0016
     32 C          -3.2329  -15.8299   22.6485 C.ar    1  UNL1        0.0100
     33 N          -0.5655  -18.6121   21.7026 N.1     1  UNL1       -0.1908
     34 C          -1.8389  -17.9684   22.1655 C.1     1  UNL1        0.1004
@<TRIPOS>BOND
     1    33    34    3
     2    34    27    1
     3    27    28   ar
     4    28    29   ar
     5    29    30   ar
     6    30    26    1
     7    26    21    1
     8    21    22   ar
     9    22    23   ar
    10    23    24   ar
    11    24    25   ar
    12    25     1    1
    13     1     2   ar
    14     2     3   ar
    15     3     4    1
    16     3     5   ar
    17     5     6   ar
    18     6     7   ar
    19     7     8   ar
    20     8    11    1
    21    11    12   ar
    22    12    13   ar
    23    13    14   ar
    24    14    15    2
    25    15    16    1
    26    16    17    2
    27    16    18    1
    28    18    19    2
    29    19    20   ar
    30     8     9   ar
    31     9    10   ar
    32    30    31   ar
    33    31    32   ar
    34    32    27   ar
    35    25    21   ar
    36    10     1   ar
    37     9     5   ar
    38    20    11   ar
    39    19    14   ar
@<TRIPOS>MOLECULE
*****
 34 39 0 0 0
SMALL
GASTEIGER

@<TRIPOS>ATOM
      1 C           0.6252    1.9576   23.2205 C.ar    1  UNL1        0.0212
      2 C          -0.1045    2.2739   24.4922 C.ar    1  UNL1        0.0328
      3 C           0.3967    1.7340   25.7988 C.ar    1  UNL1        0.1610
      4 F          -0.3331    2.0504   27.0706 F       1  UNL1       -0.2025
      5 C           1.6277    0.8776   25.8336 C.ar    1  UNL1        0.1494
      6 N           2.3534    0.2086   26.9632 N.ar    1  UNL1       -0.1262
      7 N           3.5316   -0.5213   26.3895 N.ar    1  UNL1       -0.0595
      8 N           3.5341   -0.3034   24.9054 N.ar    1  UNL1       -0.2103
      9 C           2.3574    0.5612   24.5618 C.ar    1  UNL1        0.1060
     10 C           1.8562    1.1012   23.2553 C.ar    1  UNL1        0.0224
     11 C           4.5372   -0.8535   23.9352 C.ar    1  UNL1        0.0858
     12 C           5.3293    0.0781   23.0665 C.ar    1  UNL1        0.0206
     13 C           6.3324   -0.4719   22.0962 C.ar    1  UNL1        0.0195
     14 C           6.5434   -1.9535   21.9948 C.ar    1  UNL1        0.0904
     15 N           7.4548   -2.7813   21.1380 N.am    1  UNL1       -0.1594
     16 C           7.2260   -4.2243   21.4772 C.2     1  UNL1        0.3478
     17 O           7.9270   -5.3973   20.8585 O.2     1  UNL1       -0.2484
     18 N           6.1731   -4.2885   22.5437 N.am    1  UNL1       -0.1593
     19 C           5.7512   -2.8851   22.8637 C.ar    1  UNL1        0.0918
     20 C           4.7482   -2.3351   23.8338 C.ar    1  UNL1        0.0372
     21 N          -0.0891    1.7073   20.6568 N.ar    1  UNL1       -0.2464
     22 N          -0.5970    2.6441   19.6010 N.ar    1  UNL1       -0.1674
     23 C          -0.6978    4.0131   20.2055 C.ar    1  UNL1        0.1217
     24 C          -0.2523    3.9226   21.6349 C.ar    1  UNL1        0.0412
     25 C           0.1239    2.4976   21.9138 C.ar    1  UNL1        0.0799
     26 C           0.1618    0.2384   20.4856 C.3     1  UNL1        0.1538
     27 C           4.0307   -1.1886   18.6844 C.ar    1  UNL1        0.0684
     28 C           3.2197   -0.1387   17.9843 C.ar    1  UNL1        0.0100
     29 C           1.9300    0.3370   18.5847 C.ar    1  UNL1       -0.0016
     30 C           1.4514   -0.2373   19.8852 C.ar    1  UNL1        0.0021
     31 C           2.2624   -1.2871   20.5852 C.ar    1  UNL1       -0.0016
     32 C           3.5521   -1.7628   19.9849 C.ar    1  UNL1        0.0100
     33 N           6.6101   -2.1397   17.4835 N.1     1  UNL1       -0.1908
     34 C           5.3204   -1.6642   18.0840 C.1     1  UNL1        0.1004
@<TRIPOS>BOND
     1    33    34    3
     2    34    27    1
     3    27    28   ar
     4    28    29   ar
     5    29    30   ar
     6    30    26    1
     7    26    21    1
     8    21    22   ar
     9    22    23   ar
    10    23    24   ar
    11    24    25   ar
    12    25     1    1
    13     1     2   ar
    14     2     3   ar
    15     3     4    1
    16     3     5   ar
    17     5     6   ar
    18     6     7   ar
    19     7     8   ar
    20     8    11    1
    21    11    12   ar
    22    12    13   ar
    23    13    14   ar
    24    14    15    2
    25    15    16    1
    26    16    17    2
    27    16    18    1
    28    18    19    2
    29    19    20   ar
    30     8     9   ar
    31     9    10   ar
    32    30    31   ar
    33    31    32   ar
    34    32    27   ar
    35    25    21   ar
    36    10     1   ar
    37     9     5   ar
    38    20    11   ar
    39    19    14   ar
@<TRIPOS>MOLECULE
*****
 34 39 0 0 0
SMALL
GASTEIGER

@<TRIPOS>ATOM
      1 C         -13.3269   -6.7151   17.5684 C.ar    1  UNL1        0.0212
      2 C         -12.1907   -7.6808   17.7296 C.ar    1  UNL1        0.0328
      3 C         -10.7745   -7.1921   17.6550 C.ar    1  UNL1        0.1610
      4 F          -9.6382   -8.1580   17.8162 F       1  UNL1       -0.2025
      5 C         -10.4947   -5.7374   17.4191 C.ar    1  UNL1        0.1494
      6 N          -9.2123   -4.9687   17.2985 N.ar    1  UNL1       -0.1262
      7 N          -9.5560   -3.5278   17.0627 N.ar    1  UNL1       -0.0595
      8 N         -11.0509   -3.4059   17.0376 N.ar    1  UNL1       -0.2103
      9 C         -11.6310   -4.7716   17.2579 C.ar    1  UNL1        0.1060
     10 C         -13.0471   -5.2604   17.3326 C.ar    1  UNL1        0.0224
     11 C         -11.8289   -2.1406   16.8289 C.ar    1  UNL1        0.0858
     12 C         -13.1960   -2.1936   16.2139 C.ar    1  UNL1        0.0206
     13 C         -13.9741   -0.9283   16.0052 C.ar    1  UNL1        0.0195
     14 C         -13.3851    0.3900   16.4114 C.ar    1  UNL1        0.0904
     15 N         -13.9114    1.7923   16.3299 N.am    1  UNL1       -0.1594
     16 C         -12.8696    2.7120   16.8945 C.2     1  UNL1        0.3478
     17 O         -12.9788    4.2036   17.0085 O.2     1  UNL1       -0.2484
     18 N         -11.6994    1.8780   17.3250 N.am    1  UNL1       -0.1593
     19 C         -12.0180    0.4430   17.0265 C.ar    1  UNL1        0.0918
     20 C         -11.2399   -0.8223   17.2352 C.ar    1  UNL1        0.0372
     21 N         -15.7268   -6.8935   18.7321 N.ar    1  UNL1       -0.2464
     22 N         -17.0159   -7.5867   18.4038 N.ar    1  UNL1       -0.1674
     23 C         -16.8289   -8.3254   17.1118 C.ar    1  UNL1        0.1217
     24 C         -15.4243   -8.0888   16.6416 C.ar    1  UNL1        0.0412
     25 C         -14.7432   -7.2039   17.6430 C.ar    1  UNL1        0.0799
     26 C         -15.4670   -6.0399   19.9379 C.3     1  UNL1        0.1538
     27 C         -15.5105   -1.5551   19.5712 C.ar    1  UNL1        0.0684
     28 C         -16.7084   -2.3537   19.1498 C.ar    1  UNL1        0.0100
     29 C         -16.6938   -3.8487   19.2720 C.ar    1  UNL1       -0.0016
     30 C         -15.4815   -4.5449   19.8156 C.ar    1  UNL1        0.0021
     31 C         -14.2837   -3.7463   20.2370 C.ar    1  UNL1       -0.0016
     32 C         -14.2983   -2.2513   20.1148 C.ar    1  UNL1        0.0100
     33 N         -15.5397    1.4348   19.3268 N.1     1  UNL1       -0.1908
     34 C         -15.5252   -0.0601   19.4490 C.1     1  UNL1        0.1004
@<TRIPOS>BOND
     1    33    34    3
     2    34    27    1
     3    27    28   ar
     4    28    29   ar
     5    29    30   ar
     6    30    26    1
     7    26    21    1
     8    21    22   ar
     9    22    23   ar
    10    23    24   ar
    11    24    25   ar
    12    25     1    1
    13     1     2   ar
    14     2     3   ar
    15     3     4    1
    16     3     5   ar
    17     5     6   ar
    18     6     7   ar
    19     7     8   ar
    20     8    11    1
    21    11    12   ar
    22    12    13   ar
    23    13    14   ar
    24    14    15    2
    25    15    16    1
    26    16    17    2
    27    16    18    1
    28    18    19    2
    29    19    20   ar
    30     8     9   ar
    31     9    10   ar
    32    30    31   ar
    33    31    32   ar
    34    32    27   ar
    35    25    21   ar
    36    10     1   ar
    37     9     5   ar
    38    20    11   ar
    39    19    14   ar
@<TRIPOS>MOLECULE
*****
 34 39 0 0 0
SMALL
GASTEIGER

@<TRIPOS>ATOM
      1 C         -18.4675   -6.2956   19.3355 C.ar    1  UNL1        0.0212
      2 C         -19.5035   -7.3554   19.5664 C.ar    1  UNL1        0.0328
      3 C         -19.1521   -8.8015   19.3779 C.ar    1  UNL1        0.1610
      4 F         -20.1882   -9.8614   19.6088 F       1  UNL1       -0.2025
      5 C         -17.7647   -9.1876   18.9584 C.ar    1  UNL1        0.1494
      6 N         -17.1301  -10.5211   18.6958 N.ar    1  UNL1       -0.1262
      7 N         -15.7019  -10.2854   18.3027 N.ar    1  UNL1       -0.0595
      8 N         -15.4538   -8.8061   18.3222 N.ar    1  UNL1       -0.2103
      9 C         -16.7287   -8.1277   18.7274 C.ar    1  UNL1        0.1060
     10 C         -17.0801   -6.6817   18.9160 C.ar    1  UNL1        0.0224
     11 C         -14.1582   -8.1250   17.9941 C.ar    1  UNL1        0.0858
     12 C         -13.4471   -8.4435   16.7123 C.ar    1  UNL1        0.0206
     13 C         -12.1515   -7.7624   16.3842 C.ar    1  UNL1        0.0195
     14 C         -11.5672   -6.7629   17.3377 C.ar    1  UNL1        0.0904
     15 N         -10.3151   -5.9384   17.2851 N.am    1  UNL1       -0.1594
     16 C         -10.2525   -5.1104   18.5342 C.2     1  UNL1        0.3478
     17 O          -9.1671   -4.1401   18.8953 O.2     1  UNL1       -0.2484
     18 N         -11.4658   -5.4231   19.3590 N.am    1  UNL1       -0.1593
     19 C         -12.2784   -6.4444   18.6195 C.ar    1  UNL1        0.0918
     20 C         -13.5738   -7.1254   18.9477 C.ar    1  UNL1        0.0372
     21 N         -17.9140   -3.7866   20.0730 N.ar    1  UNL1       -0.2464
     22 N         -18.6728   -2.4927   20.0850 N.ar    1  UNL1       -0.1674
     23 C         -20.0466   -2.7559   19.5434 C.ar    1  UNL1        0.1217
     24 C         -20.1369   -4.2125   19.1968 C.ar    1  UNL1        0.0412
     25 C         -18.8189   -4.8495   19.5241 C.ar    1  UNL1        0.0799
     26 C         -16.4988   -3.9830   20.5298 C.3     1  UNL1        0.1538
     27 C         -13.0887   -2.5341   17.9761 C.ar    1  UNL1        0.0684
     28 C         -13.0546   -2.3261   19.4613 C.ar    1  UNL1        0.0100
     29 C         -14.1913   -2.8091   20.3126 C.ar    1  UNL1       -0.0016
     30 C         -15.3621   -3.5000   19.6785 C.ar    1  UNL1        0.0021
     31 C         -15.3961   -3.7080   18.1934 C.ar    1  UNL1       -0.0016
     32 C         -14.2594   -3.2250   17.3422 C.ar    1  UNL1        0.0100
     33 N         -10.8150   -1.5680   16.2740 N.1     1  UNL1       -0.1908
     34 C         -11.9519   -2.0510   17.1250 C.1     1  UNL1        0.1004
@<TRIPOS>BOND
     1    33    34    3
     2    34    27    1
     3    27    28   ar
     4    28    29   ar
     5    29    30   ar
     6    30    26    1
     7    26    21    1
     8    21    22   ar
     9    22    23   ar
    10    23    24   ar
    11    24    25   ar
    12    25     1    1
    13     1     2   ar
    14     2     3   ar
    15     3     4    1
    16     3     5   ar
    17     5     6   ar
    18     6     7   ar
    19     7     8   ar
    20     8    11    1
    21    11    12   ar
    22    12    13   ar
    23    13    14   ar
    24    14    15    2
    25    15    16    1
    26    16    17    2
    27    16    18    1
    28    18    19    2
    29    19    20   ar
    30     8     9   ar
    31     9    10   ar
    32    30    31   ar
    33    31    32   ar
    34    32    27   ar
    35    25    21   ar
    36    10     1   ar
    37     9     5   ar
    38    20    11   ar
    39    19    14   ar
@<TRIPOS>MOLECULE
*****
 34 39 0 0 0
SMALL
GASTEIGER

@<TRIPOS>ATOM
      1 C           4.2006    2.6336   18.9678 C.ar    1  UNL1        0.0212
      2 C           2.9898    3.1817   18.2727 C.ar    1  UNL1        0.0328
      3 C           1.6319    2.6223   18.5784 C.ar    1  UNL1        0.1610
      4 F           0.4210    3.1704   17.8831 F       1  UNL1       -0.2025
      5 C           1.4851    1.5148   19.5793 C.ar    1  UNL1        0.1494
      6 N           0.2847    0.7689   20.0820 N.ar    1  UNL1       -0.1262
      7 N           0.7537   -0.2402   21.0878 N.ar    1  UNL1       -0.0595
      8 N           2.2440   -0.1179   21.2068 N.ar    1  UNL1       -0.2103
      9 C           2.6960    0.9667   20.2745 C.ar    1  UNL1        0.1060
     10 C           4.0538    1.5262   19.9688 C.ar    1  UNL1        0.0224
     11 C           3.1272   -0.9366   22.1011 C.ar    1  UNL1        0.0858
     12 C           3.1356   -0.6861   23.5800 C.ar    1  UNL1        0.0206
     13 C           4.0188   -1.5047   24.4744 C.ar    1  UNL1        0.0195
     14 C           4.8935   -2.5738   23.8899 C.ar    1  UNL1        0.0904
     15 N           5.8614   -3.5330   24.5170 N.am    1  UNL1       -0.1594
     16 C           6.4512   -4.3763   23.4256 C.2     1  UNL1        0.3478
     17 O           7.4661   -5.4662   23.6045 O.2     1  UNL1       -0.2484
     18 N           5.8477   -3.9383   22.1240 N.am    1  UNL1       -0.1593
     19 C           4.8851   -2.8243   22.4109 C.ar    1  UNL1        0.0918
     20 C           4.0020   -2.0057   21.5166 C.ar    1  UNL1        0.0372
     21 N           6.4804    2.7255   17.5752 N.ar    1  UNL1       -0.2464
     22 N           7.7245    3.5618   17.6310 N.ar    1  UNL1       -0.1674
     23 C           7.5713    4.5461   18.7525 C.ar    1  UNL1        0.1217
     24 C           6.2327    4.3183   19.3897 C.ar    1  UNL1        0.0412
     25 C           5.5585    3.1931   18.6621 C.ar    1  UNL1        0.0799
     26 C           6.2064    1.6165   16.6031 C.3     1  UNL1        0.1538
     27 C           5.2607   -2.5160   18.1124 C.ar    1  UNL1        0.0684
     28 C           4.1930   -1.6971   17.4494 C.ar    1  UNL1        0.0100
     29 C           4.5082   -0.3196   16.9463 C.ar    1  UNL1       -0.0016
     30 C           5.8912    0.2390   17.1062 C.ar    1  UNL1        0.0021
     31 C           6.9588   -0.5799   17.7692 C.ar    1  UNL1       -0.0016
     32 C           6.6435   -1.9574   18.2723 C.ar    1  UNL1        0.0100
     33 N           4.6300   -5.2709   19.1187 N.1     1  UNL1       -0.1908
     34 C           4.9453   -3.8935   18.6155 C.1     1  UNL1        0.1004
@<TRIPOS>BOND
     1    33    34    3
     2    34    27    1
     3    27    28   ar
     4    28    29   ar
     5    29    30   ar
     6    30    26    1
     7    26    21    1
     8    21    22   ar
     9    22    23   ar
    10    23    24   ar
    11    24    25   ar
    12    25     1    1
    13     1     2   ar
    14     2     3   ar
    15     3     4    1
    16     3     5   ar
    17     5     6   ar
    18     6     7   ar
    19     7     8   ar
    20     8    11    1
    21    11    12   ar
    22    12    13   ar
    23    13    14   ar
    24    14    15    2
    25    15    16    1
    26    16    17    2
    27    16    18    1
    28    18    19    2
    29    19    20   ar
    30     8     9   ar
    31     9    10   ar
    32    30    31   ar
    33    31    32   ar
    34    32    27   ar
    35    25    21   ar
    36    10     1   ar
    37     9     5   ar
    38    20    11   ar
    39    19    14   ar
@<TRIPOS>MOLECULE
*****
 34 39 0 0 0
SMALL
GASTEIGER

@<TRIPOS>ATOM
      1 C           3.7232   -1.7212   21.0950 C.ar    1  UNL1        0.0212
      2 C           3.9800   -2.2033   19.6981 C.ar    1  UNL1        0.0328
      3 C           5.0934   -3.1726   19.4319 C.ar    1  UNL1        0.1610
      4 F           5.3502   -3.6548   18.0349 F       1  UNL1       -0.2025
      5 C           5.9500   -3.6598   20.5629 C.ar    1  UNL1        0.1494
      6 N           7.1110   -4.6085   20.6060 N.ar    1  UNL1       -0.1262
      7 N           7.5717   -4.7126   22.0297 N.ar    1  UNL1       -0.0595
      8 N           6.6955   -3.8283   22.8664 N.ar    1  UNL1       -0.2103
      9 C           5.6931   -3.1776   21.9598 C.ar    1  UNL1        0.1060
     10 C           4.5797   -2.2083   22.2259 C.ar    1  UNL1        0.0224
     11 C           6.8027   -3.6296   24.3493 C.ar    1  UNL1        0.0858
     12 C           7.0995   -2.2679   24.9040 C.ar    1  UNL1        0.0206
     13 C           7.2068   -2.0692   26.3870 C.ar    1  UNL1        0.0195
     14 C           7.0172   -3.2321   27.3151 C.ar    1  UNL1        0.0904
     15 N           7.0637   -3.3408   28.8105 N.am    1  UNL1       -0.1594
     16 C           6.7956   -4.7696   29.1800 C.2     1  UNL1        0.3478
     17 O           6.7480   -5.3263   30.5720 O.2     1  UNL1       -0.2484
     18 N           6.5834   -5.5441   27.9129 N.am    1  UNL1       -0.1593
     19 C           6.7203   -4.5938   26.7604 C.ar    1  UNL1        0.0918
     20 C           6.6131   -4.7926   25.2775 C.ar    1  UNL1        0.0372
     21 N           2.5683    0.2615   22.4662 N.ar    1  UNL1       -0.2464
     22 N           1.2752    1.0139   22.3569 N.ar    1  UNL1       -0.1674
     23 C           0.5176    0.4656   21.1841 C.ar    1  UNL1        0.1217
     24 C           1.3424   -0.6257   20.5687 C.ar    1  UNL1        0.0412
     25 C           2.6098   -0.7518   21.3611 C.ar    1  UNL1        0.0799
     26 C           3.6329    0.4835   23.4994 C.3     1  UNL1        0.1538
     27 C           2.7494   -0.2919   27.8431 C.ar    1  UNL1        0.0684
     28 C           3.5350   -1.2918   27.0474 C.ar    1  UNL1        0.0100
     29 C           3.8295   -1.0333   25.5995 C.ar    1  UNL1       -0.0016
     30 C           3.3384    0.2250   24.9473 C.ar    1  UNL1        0.0021
     31 C           2.5528    1.2249   25.7430 C.ar    1  UNL1       -0.0016
     32 C           2.2583    0.9664   27.1909 C.ar    1  UNL1        0.0100
     33 N           2.1606   -0.8089   30.7390 N.1     1  UNL1       -0.1908
     34 C           2.4549   -0.5504   29.2910 C.1     1  UNL1        0.1004
@<TRIPOS>BOND
     1    33    34    3
     2    34    27    1
     3    27    28   ar
     4    28    29   ar
     5    29    30   ar
     6    30    26    1
     7    26    21    1
     8    21    22   ar
     9    22    23   ar
    10    23    24   ar
    11    24    25   ar
    12    25     1    1
    13     1     2   ar
    14     2     3   ar
    15     3     4    1
    16     3     5   ar
    17     5     6   ar
    18     6     7   ar
    19     7     8   ar
    20     8    11    1
    21    11    12   ar
    22    12    13   ar
    23    13    14   ar
    24    14    15    2
    25    15    16    1
    26    16    17    2
    27    16    18    1
    28    18    19    2
    29    19    20   ar
    30     8     9   ar
    31     9    10   ar
    32    30    31   ar
    33    31    32   ar
    34    32    27   ar
    35    25    21   ar
    36    10     1   ar
    37     9     5   ar
    38    20    11   ar
    39    19    14   ar
@<TRIPOS>MOLECULE
*****
 34 39 0 0 0
SMALL
GASTEIGER

@<TRIPOS>ATOM
      1 C           6.9409   -2.4866   25.6604 C.ar    1  UNL1        0.0212
      2 C           7.2856   -3.6090   26.5937 C.ar    1  UNL1        0.0328
      3 C           7.7243   -4.9339   26.0438 C.ar    1  UNL1        0.1610
      4 F           8.0689   -6.0564   26.9772 F       1  UNL1       -0.2025
      5 C           7.8183   -5.1361   24.5605 C.ar    1  UNL1        0.1494
      6 N           8.2173   -6.3215   23.7325 N.ar    1  UNL1       -0.1262
      7 N           8.1193   -5.9316   22.2874 N.ar    1  UNL1       -0.0595
      8 N           7.6596   -4.5053   22.2222 N.ar    1  UNL1       -0.2103
      9 C           7.4736   -4.0136   23.6271 C.ar    1  UNL1        0.1060
     10 C           7.0349   -2.6888   24.1771 C.ar    1  UNL1        0.0224
     11 C           7.4269   -3.7102   20.9718 C.ar    1  UNL1        0.0858
     12 C           8.5909   -3.1304   20.2242 C.ar    1  UNL1        0.0206
     13 C           8.3582   -2.3352   18.9736 C.ar    1  UNL1        0.0195
     14 C           6.9616   -2.1200   18.4708 C.ar    1  UNL1        0.0904
     15 N           6.4265   -1.3860   17.2770 N.am    1  UNL1       -0.1594
     16 C           4.9319   -1.5123   17.2868 C.2     1  UNL1        0.3478
     17 O           3.9912   -0.9290   16.2745 O.2     1  UNL1       -0.2484
     18 N           4.5431   -2.3243   18.4867 N.am    1  UNL1       -0.1593
     19 C           5.7975   -2.6999   19.2185 C.ar    1  UNL1        0.0918
     20 C           6.0302   -3.4949   20.4689 C.ar    1  UNL1        0.0372
     21 N           5.1012   -0.6258   26.2066 N.ar    1  UNL1       -0.2464
     22 N           5.1207    0.7270   26.8545 N.ar    1  UNL1       -0.1674
     23 C           6.5337    1.0271   27.2585 C.ar    1  UNL1        0.1217
     24 C           7.3875   -0.1401   26.8604 C.ar    1  UNL1        0.0412
     25 C           6.5022   -1.1617   26.2103 C.ar    1  UNL1        0.0799
     26 C           3.8929   -1.3207   25.6524 C.3     1  UNL1        0.1538
     27 C           2.3507   -0.2370   21.5663 C.ar    1  UNL1        0.0684
     28 C           1.9179    0.5538   22.7653 C.ar    1  UNL1        0.0100
     29 C           2.4320    0.1926   24.1274 C.ar    1  UNL1       -0.0016
     30 C           3.3788   -0.9594   24.2903 C.ar    1  UNL1        0.0021
     31 C           3.8115   -1.7501   23.0914 C.ar    1  UNL1       -0.0016
     32 C           3.2974   -1.3889   21.7293 C.ar    1  UNL1        0.0100
     33 N           1.3224    0.4858   18.8422 N.1     1  UNL1       -0.1908
     34 C           1.8365    0.1244   20.2042 C.1     1  UNL1        0.1004
@<TRIPOS>BOND
     1    33    34    3
     2    34    27    1
     3    27    28   ar
     4    28    29   ar
     5    29    30   ar
     6    30    26    1
     7    26    21    1
     8    21    22   ar
     9    22    23   ar
    10    23    24   ar
    11    24    25   ar
    12    25     1    1
    13     1     2   ar
    14     2     3   ar
    15     3     4    1
    16     3     5   ar
    17     5     6   ar
    18     6     7   ar
    19     7     8   ar
    20     8    11    1
    21    11    12   ar
    22    12    13   ar
    23    13    14   ar
    24    14    15    2
    25    15    16    1
    26    16    17    2
    27    16    18    1
    28    18    19    2
    29    19    20   ar
    30     8     9   ar
    31     9    10   ar
    32    30    31   ar
    33    31    32   ar
    34    32    27   ar
    35    25    21   ar
    36    10     1   ar
    37     9     5   ar
    38    20    11   ar
    39    19    14   ar
@<TRIPOS>MOLECULE
*****
 34 39 0 0 0
SMALL
GASTEIGER

@<TRIPOS>ATOM
      1 C           4.3463   -2.4692   22.2507 C.ar    1  UNL1        0.0212
      2 C           5.2504   -3.1212   23.2543 C.ar    1  UNL1        0.0328
      3 C           5.2403   -2.6624   24.6824 C.ar    1  UNL1        0.1610
      4 F           6.1445   -3.3144   25.6861 F       1  UNL1       -0.2025
      5 C           4.3259   -1.5516   25.1068 C.ar    1  UNL1        0.1494
      6 N           4.0977   -0.8912   26.4341 N.ar    1  UNL1       -0.1262
      7 N           3.0525    0.1689   26.2507 N.ar    1  UNL1       -0.0595
      8 N           2.6347    0.1637   24.8101 N.ar    1  UNL1       -0.2103
      9 C           3.4218   -0.8996   24.1031 C.ar    1  UNL1        0.1060
     10 C           3.4320   -1.3584   22.6750 C.ar    1  UNL1        0.0224
     11 C           1.6099    1.0639   24.1861 C.ar    1  UNL1        0.0858
     12 C           1.7519    1.4813   22.7524 C.ar    1  UNL1        0.0206
     13 C           0.7270    2.3815   22.1282 C.ar    1  UNL1        0.0195
     14 C          -0.4398    2.8642   22.9379 C.ar    1  UNL1        0.0904
     15 N          -1.5994    3.7525   22.5968 N.am    1  UNL1       -0.1594
     16 C          -2.4579    3.8840   23.8197 C.2     1  UNL1        0.3478
     17 O          -3.7233    4.6824   23.9268 O.2     1  UNL1       -0.2484
     18 N          -1.8290    3.0770   24.9166 N.am    1  UNL1       -0.1593
     19 C          -0.5817    2.4467   24.3717 C.ar    1  UNL1        0.0918
     20 C           0.4431    1.5466   24.9958 C.ar    1  UNL1        0.0372
     21 N           4.5112   -2.0507   19.6157 N.ar    1  UNL1       -0.2464
     22 N           4.4640   -2.9252   18.3978 N.ar    1  UNL1       -0.1674
     23 C           4.2801   -4.3429   18.8520 C.ar    1  UNL1        0.1217
     24 C           4.2137   -4.3446   20.3505 C.ar    1  UNL1        0.0412
     25 C           4.3565   -2.9280   20.8225 C.ar    1  UNL1        0.0799
     26 C           4.6829   -0.5606   19.6251 C.3     1  UNL1        0.1538
     27 C           1.2407    2.1081   18.4942 C.ar    1  UNL1        0.0684
     28 C           2.6364    2.6569   18.5253 C.ar    1  UNL1        0.0100
     29 C           3.7838    1.7673   18.9023 C.ar    1  UNL1       -0.0016
     30 C           3.5355    0.3290   19.2481 C.ar    1  UNL1        0.0021
     31 C           2.1398   -0.2197   19.2169 C.ar    1  UNL1       -0.0016
     32 C           0.9924    0.6699   18.8400 C.ar    1  UNL1        0.0100
     33 N          -1.0541    3.8874   17.7402 N.1     1  UNL1       -0.1908
     34 C           0.0933    2.9978   18.1172 C.1     1  UNL1        0.1004
@<TRIPOS>BOND
     1    33    34    3
     2    34    27    1
     3    27    28   ar
     4    28    29   ar
     5    29    30   ar
     6    30    26    1
     7    26    21    1
     8    21    22   ar
     9    22    23   ar
    10    23    24   ar
    11    24    25   ar
    12    25     1    1
    13     1     2   ar
    14     2     3   ar
    15     3     4    1
    16     3     5   ar
    17     5     6   ar
    18     6     7   ar
    19     7     8   ar
    20     8    11    1
    21    11    12   ar
    22    12    13   ar
    23    13    14   ar
    24    14    15    2
    25    15    16    1
    26    16    17    2
    27    16    18    1
    28    18    19    2
    29    19    20   ar
    30     8     9   ar
    31     9    10   ar
    32    30    31   ar
    33    31    32   ar
    34    32    27   ar
    35    25    21   ar
    36    10     1   ar
    37     9     5   ar
    38    20    11   ar
    39    19    14   ar
@<TRIPOS>MOLECULE
*****
 34 39 0 0 0
SMALL
GASTEIGER

@<TRIPOS>ATOM
      1 C           0.0147    2.0722   24.6128 C.ar    1  UNL1        0.0212
      2 C          -1.0762    3.1012   24.6379 C.ar    1  UNL1        0.0328
      3 C          -1.6132    3.6566   23.3520 C.ar    1  UNL1        0.1610
      4 F          -2.7042    4.6857   23.3771 F       1  UNL1       -0.2025
      5 C          -1.0590    3.1828   22.0411 C.ar    1  UNL1        0.1494
      6 N          -1.3867    3.5457   20.6230 N.ar    1  UNL1       -0.1262
      7 N          -0.4982    2.7408   19.7216 N.ar    1  UNL1       -0.0595
      8 N           0.3787    1.8805   20.5825 N.ar    1  UNL1       -0.2103
      9 C           0.0320    2.1537   22.0161 C.ar    1  UNL1        0.1060
     10 C           0.5689    1.5984   23.3019 C.ar    1  UNL1        0.0224
     11 C           1.4194    0.9164   20.0953 C.ar    1  UNL1        0.0858
     12 C           1.3067   -0.5414   20.4304 C.ar    1  UNL1        0.0206
     13 C           2.3474   -1.5056   19.9433 C.ar    1  UNL1        0.0195
     14 C           3.5007   -1.0121   19.1211 C.ar    1  UNL1        0.0904
     15 N           4.6707   -1.7210   18.5056 N.am    1  UNL1       -0.1594
     16 C           5.5064   -0.7014   17.7902 C.2     1  UNL1        0.3478
     17 O           6.7731   -0.9731   17.0342 O.2     1  UNL1       -0.2484
     18 N           4.8530    0.6378   17.9634 N.am    1  UNL1       -0.1593
     19 C           3.6134    0.4457   18.7860 C.ar    1  UNL1        0.0918
     20 C           2.5728    1.4099   19.2731 C.ar    1  UNL1        0.0372
     21 N           1.9972    1.2784   26.2206 N.ar    1  UNL1       -0.2464
     22 N           2.0761    0.7166   27.6093 N.ar    1  UNL1       -0.1674
     23 C           0.6795    0.6079   28.1454 C.ar    1  UNL1        0.1217
     24 C          -0.2627    1.1024   27.0882 C.ar    1  UNL1        0.0412
     25 C           0.5517    1.5168   25.8987 C.ar    1  UNL1        0.0799
     26 C           3.1596    1.5534   25.3134 C.3     1  UNL1        0.1538
     27 C           4.8435   -1.7412   22.7522 C.ar    1  UNL1        0.0684
     28 C           4.9320   -0.3155   22.2942 C.ar    1  UNL1        0.0100
     29 C           4.3707    0.7827   23.1479 C.ar    1  UNL1       -0.0016
     30 C           3.7209    0.4552   24.4596 C.ar    1  UNL1        0.0021
     31 C           3.6324   -0.9704   24.9176 C.ar    1  UNL1       -0.0016
     32 C           4.1937   -2.0687   24.0638 C.ar    1  UNL1        0.0100
     33 N           5.9662   -3.9374   21.0445 N.1     1  UNL1       -0.1908
     34 C           5.4048   -2.8393   21.8984 C.1     1  UNL1        0.1004
@<TRIPOS>BOND
     1    33    34    3
     2    34    27    1
     3    27    28   ar
     4    28    29   ar
     5    29    30   ar
     6    30    26    1
     7    26    21    1
     8    21    22   ar
     9    22    23   ar
    10    23    24   ar
    11    24    25   ar
    12    25     1    1
    13     1     2   ar
    14     2     3   ar
    15     3     4    1
    16     3     5   ar
    17     5     6   ar
    18     6     7   ar
    19     7     8   ar
    20     8    11    1
    21    11    12   ar
    22    12    13   ar
    23    13    14   ar
    24    14    15    2
    25    15    16    1
    26    16    17    2
    27    16    18    1
    28    18    19    2
    29    19    20   ar
    30     8     9   ar
    31     9    10   ar
    32    30    31   ar
    33    31    32   ar
    34    32    27   ar
    35    25    21   ar
    36    10     1   ar
    37     9     5   ar
    38    20    11   ar
    39    19    14   ar
