@<TRIPOS>MOLECULE
*****
 29 32 0 0 0
SMALL
GASTEIGER

@<TRIPOS>ATOM
      1 C          -8.1047  -18.6803   21.2563 C.ar    1  UNL1        0.0281
      2 C          -7.0268  -19.7112   21.4153 C.ar    1  UNL1        0.0027
      3 C          -5.7884  -19.3870   22.1970 C.ar    1  UNL1        0.0339
      4 C          -5.6278  -18.0318   22.8197 C.ar    1  UNL1        0.1311
      5 N          -6.7057  -17.0009   22.6607 N.ar    1  UNL1       -0.2035
      6 C          -7.9441  -17.3251   21.8790 C.ar    1  UNL1        0.2196
      7 F          -9.0221  -16.2942   21.7199 F       1  UNL1       -0.1835
      8 N          -4.3894  -17.7076   23.6015 N.pl3   1  UNL1       -0.3144
      9 H          -4.4477  -17.1375   24.4019 H       1  UNL1        0.1485
     10 C          -3.0620  -18.2521   23.1636 C.3     1  UNL1        0.1154
     11 C          -2.6311  -18.1177   21.7332 C.ar    1  UNL1       -0.0025
     12 C          -2.9273  -19.2151   20.7544 C.ar    1  UNL1       -0.0018
     13 C          -2.4965  -19.0807   19.3240 C.ar    1  UNL1        0.0111
     14 C          -1.7695  -17.8490   18.8722 C.ar    1  UNL1        0.0577
     15 CL         -1.3386  -17.7145   17.4418 Cl      1  UNL1       -0.0822
     16 C          -1.4733  -16.7515   19.8509 C.ar    1  UNL1        0.0111
     17 C          -1.9041  -16.8859   21.2814 C.ar    1  UNL1       -0.0018
     18 C          -9.3432  -19.0045   20.4745 C.3     1  UNL1        0.0571
     19 C         -11.0395  -19.2003   23.3993 C.2     1  UNL1        0.1355
     20 C         -11.9694  -19.1247   24.5738 C.2     1  UNL1        0.0837
     21 C         -13.2248  -18.3085   24.4851 C.2     1  UNL1        0.2385
     22 N         -13.5502  -17.5679   23.2219 N.2     1  UNL1       -0.0338
     23 C         -12.6203  -17.6436   22.0475 C.2     1  UNL1        0.3621
     24 N         -12.6762  -17.0263   20.6815 N.2     1  UNL1       -0.0346
     25 C         -11.4555  -17.4609   19.9260 C.2     1  UNL1        0.2284
     26 C         -10.6450  -18.3469   20.8250 C.2     1  UNL1        0.0256
     27 C         -11.3649  -18.4598   22.1362 C.3     1  UNL1        0.1907
     28 C          -9.5932  -20.9778   24.6235 C.3     1  UNL1        0.2520
     29 O          -9.7841  -20.0165   23.4880 O.2     1  UNL1       -0.4746
@<TRIPOS>BOND
     1    28    29    1
     2    29    19    1
     3    19    20    2
     4    20    21    1
     5    21    22    2
     6    22    23    1
     7    23    24    2
     8    24    25    1
     9    25    26    2
    10    26    18    1
    11    18     1    1
    12     1     2   ar
    13     2     3   ar
    14     3     4   ar
    15     4     8    1
    16     8    10    1
    17    10    11    1
    18    11    12   ar
    19    12    13   ar
    20    13    14   ar
    21    14    15    1
    22    14    16   ar
    23    16    17   ar
    24     4     5   ar
    25     5     6   ar
    26     6     7    1
    27    26    27    1
    28    27    19    1
    29    27    23    1
    30     6     1   ar
    31    17    11   ar
    32     8     9    1
@<TRIPOS>MOLECULE
*****
 29 32 0 0 0
SMALL
GASTEIGER

@<TRIPOS>ATOM
      1 C          -8.0667  -17.7231   21.6263 C.ar    1  UNL1        0.0281
      2 C          -8.4739  -18.6393   20.5106 C.ar    1  UNL1        0.0027
      3 C          -7.6133  -19.8147   20.1535 C.ar    1  UNL1        0.0339
      4 C          -6.3455  -20.0740   20.9121 C.ar    1  UNL1        0.1311
      5 N          -5.9383  -19.1579   22.0278 N.ar    1  UNL1       -0.2035
      6 C          -6.7989  -17.9824   22.3849 C.ar    1  UNL1        0.2196
      7 F          -6.3918  -17.0661   23.5006 F       1  UNL1       -0.1835
      8 N          -5.4849  -21.2495   20.5549 N.pl3   1  UNL1       -0.3144
      9 H          -5.7790  -22.1615   20.7807 H       1  UNL1        0.1485
     10 C          -4.1762  -21.0355   19.8538 C.3     1  UNL1        0.1154
     11 C          -3.3616  -19.8098   20.1437 C.ar    1  UNL1       -0.0025
     12 C          -2.5978  -19.7040   21.4303 C.ar    1  UNL1       -0.0018
     13 C          -1.7832  -18.4783   21.7203 C.ar    1  UNL1        0.0111
     14 C          -1.7325  -17.3584   20.7237 C.ar    1  UNL1        0.0577
     15 CL         -0.9180  -16.1327   21.0136 Cl      1  UNL1       -0.0822
     16 C          -2.4964  -17.4642   19.4371 C.ar    1  UNL1        0.0111
     17 C          -3.3110  -18.6899   19.1471 C.ar    1  UNL1       -0.0018
     18 C          -8.9274  -16.5475   21.9835 C.3     1  UNL1        0.0571
     19 C         -11.0255  -18.0901   24.1489 C.2     1  UNL1        0.1355
     20 C         -12.1493  -18.6922   24.9391 C.2     1  UNL1        0.0837
     21 C         -13.5630  -18.5549   24.4569 C.2     1  UNL1        0.2385
     22 N         -13.8529  -17.8154   23.1845 N.2     1  UNL1       -0.0338
     23 C         -12.7291  -17.2132   22.3943 C.2     1  UNL1        0.3621
     24 N         -12.7081  -16.4341   21.1127 N.2     1  UNL1       -0.0346
     25 C         -11.2814  -16.0898   20.8028 C.2     1  UNL1        0.2284
     26 C         -10.4207  -16.6563   21.8929 C.2     1  UNL1        0.0256
     27 C         -11.3154  -17.3506   22.8765 C.3     1  UNL1        0.1907
     28 C          -9.0300  -17.1963   25.5521 C.3     1  UNL1        0.2520
     29 O          -9.6118  -18.2274   24.6311 O.2     1  UNL1       -0.4746
@<TRIPOS>BOND
     1    28    29    1
     2    29    19    1
     3    19    20    2
     4    20    21    1
     5    21    22    2
     6    22    23    1
     7    23    24    2
     8    24    25    1
     9    25    26    2
    10    26    18    1
    11    18     1    1
    12     1     2   ar
    13     2     3   ar
    14     3     4   ar
    15     4     8    1
    16     8    10    1
    17    10    11    1
    18    11    12   ar
    19    12    13   ar
    20    13    14   ar
    21    14    15    1
    22    14    16   ar
    23    16    17   ar
    24     4     5   ar
    25     5     6   ar
    26     6     7    1
    27    26    27    1
    28    27    19    1
    29    27    23    1
    30     6     1   ar
    31    17    11   ar
    32     8     9    1
@<TRIPOS>MOLECULE
*****
 29 32 0 0 0
SMALL
GASTEIGER

@<TRIPOS>ATOM
      1 C          -6.4755  -19.9241   21.5707 C.ar    1  UNL1        0.0281
      2 C          -7.4126  -20.3225   22.6721 C.ar    1  UNL1        0.0027
      3 C          -8.8024  -19.7599   22.7143 C.ar    1  UNL1        0.0339
      4 C          -9.2552  -18.7990   21.6552 C.ar    1  UNL1        0.1311
      5 N          -8.3180  -18.4006   20.5539 N.ar    1  UNL1       -0.2035
      6 C          -6.9282  -18.9632   20.5117 C.ar    1  UNL1        0.2196
      7 F          -5.9910  -18.5648   19.4103 F       1  UNL1       -0.1835
      8 N         -10.6451  -18.2365   21.6975 N.pl3   1  UNL1       -0.3144
      9 H         -11.2070  -18.2516   20.8893 H       1  UNL1        0.1485
     10 C         -11.1789  -17.6511   22.9713 C.3     1  UNL1        0.1154
     11 C         -10.2321  -17.1897   24.0392 C.ar    1  UNL1       -0.0025
     12 C         -10.0129  -18.0309   25.2617 C.ar    1  UNL1       -0.0018
     13 C          -9.0661  -17.5696   26.3297 C.ar    1  UNL1        0.0111
     14 C          -8.3385  -16.2670   26.1753 C.ar    1  UNL1        0.0577
     15 CL         -7.3917  -15.8056   27.2433 Cl      1  UNL1       -0.0822
     16 C          -8.5577  -15.4258   24.9529 C.ar    1  UNL1        0.0111
     17 C          -9.5045  -15.8871   23.8849 C.ar    1  UNL1       -0.0018
     18 C          -5.0855  -20.4866   21.5285 C.3     1  UNL1        0.0571
     19 C          -3.3380  -17.6839   22.2775 C.2     1  UNL1        0.1355
     20 C          -2.4446  -16.4826   22.3704 C.2     1  UNL1        0.0837
     21 C          -1.4909  -16.1692   21.2559 C.2     1  UNL1        0.2385
     22 N          -1.4305  -17.0571   20.0485 N.2     1  UNL1       -0.0338
     23 C          -2.3239  -18.2584   19.9556 C.2     1  UNL1        0.3621
     24 N          -2.4866  -19.3088   18.8972 N.2     1  UNL1       -0.0346
     25 C          -3.5409  -20.2714   19.3575 C.2     1  UNL1        0.2284
     26 C          -4.0298  -19.8158   20.7005 C.2     1  UNL1        0.0256
     27 C          -3.2776  -18.5718   21.0701 C.3     1  UNL1        0.1907
     28 C          -5.3235  -16.9887   23.8021 C.3     1  UNL1        0.2520
     29 O          -4.2917  -17.9972   23.3920 O.2     1  UNL1       -0.4746
@<TRIPOS>BOND
     1    28    29    1
     2    29    19    1
     3    19    20    2
     4    20    21    1
     5    21    22    2
     6    22    23    1
     7    23    24    2
     8    24    25    1
     9    25    26    2
    10    26    18    1
    11    18     1    1
    12     1     2   ar
    13     2     3   ar
    14     3     4   ar
    15     4     8    1
    16     8    10    1
    17    10    11    1
    18    11    12   ar
    19    12    13   ar
    20    13    14   ar
    21    14    15    1
    22    14    16   ar
    23    16    17   ar
    24     4     5   ar
    25     5     6   ar
    26     6     7    1
    27    26    27    1
    28    27    19    1
    29    27    23    1
    30     6     1   ar
    31    17    11   ar
    32     8     9    1
@<TRIPOS>MOLECULE
*****
 29 32 0 0 0
SMALL
GASTEIGER

@<TRIPOS>ATOM
      1 C          -6.6084  -19.1128   21.7251 C.ar    1  UNL1        0.0281
      2 C          -7.1770  -17.9838   22.5326 C.ar    1  UNL1        0.0027
      3 C          -8.4928  -17.3749   22.1478 C.ar    1  UNL1        0.0339
      4 C          -9.2399  -17.8951   20.9556 C.ar    1  UNL1        0.1311
      5 N          -8.6712  -19.0241   20.1482 N.ar    1  UNL1       -0.2035
      6 C          -7.3555  -19.6329   20.5329 C.ar    1  UNL1        0.2196
      7 F          -6.7868  -20.7619   19.7255 F       1  UNL1       -0.1835
      8 N         -10.5556  -17.2862   20.5709 N.pl3   1  UNL1       -0.3144
      9 H         -10.5845  -16.3834   20.1792 H       1  UNL1        0.1485
     10 C         -11.8275  -18.0527   20.7830 C.3     1  UNL1        0.1154
     11 C         -12.4001  -18.1886   22.1627 C.ar    1  UNL1       -0.0025
     12 C         -13.7980  -17.7228   22.4438 C.ar    1  UNL1       -0.0018
     13 C         -14.3706  -17.8587   23.8234 C.ar    1  UNL1        0.0111
     14 C         -13.5454  -18.4603   24.9221 C.ar    1  UNL1        0.0577
     15 CL        -14.1180  -18.5962   26.3018 Cl      1  UNL1       -0.0822
     16 C         -12.1475  -18.9260   24.6411 C.ar    1  UNL1        0.0111
     17 C         -11.5748  -18.7902   23.2614 C.ar    1  UNL1       -0.0018
     18 C          -5.2925  -19.7217   22.1098 C.3     1  UNL1        0.0571
     19 C          -3.0581  -17.1766   22.1140 C.2     1  UNL1        0.1355
     20 C          -1.9508  -16.1847   21.9139 C.2     1  UNL1        0.0837
     21 C          -0.9156  -16.4199   20.8541 C.2     1  UNL1        0.2385
     22 N          -0.9876  -17.6470   19.9945 N.2     1  UNL1       -0.0338
     23 C          -2.0949  -18.6389   20.1946 C.2     1  UNL1        0.3621
     24 N          -2.4226  -19.9301   19.5050 N.2     1  UNL1       -0.0346
     25 C          -3.6603  -20.4928   20.1385 C.2     1  UNL1        0.2284
     26 C          -4.0976  -19.5495   21.2196 C.2     1  UNL1        0.0256
     27 C          -3.1301  -18.4037   21.2543 C.3     1  UNL1        0.1907
     28 C          -4.5820  -15.5503   23.4491 C.3     1  UNL1        0.2520
     29 O          -4.0933  -16.9414   23.1737 O.2     1  UNL1       -0.4746
@<TRIPOS>BOND
     1    28    29    1
     2    29    19    1
     3    19    20    2
     4    20    21    1
     5    21    22    2
     6    22    23    1
     7    23    24    2
     8    24    25    1
     9    25    26    2
    10    26    18    1
    11    18     1    1
    12     1     2   ar
    13     2     3   ar
    14     3     4   ar
    15     4     8    1
    16     8    10    1
    17    10    11    1
    18    11    12   ar
    19    12    13   ar
    20    13    14   ar
    21    14    15    1
    22    14    16   ar
    23    16    17   ar
    24     4     5   ar
    25     5     6   ar
    26     6     7    1
    27    26    27    1
    28    27    19    1
    29    27    23    1
    30     6     1   ar
    31    17    11   ar
    32     8     9    1
@<TRIPOS>MOLECULE
*****
 29 32 0 0 0
SMALL
GASTEIGER

@<TRIPOS>ATOM
      1 C          -6.5239  -18.8909   21.8914 C.ar    1  UNL1        0.0281
      2 C          -7.0632  -17.6615   22.5607 C.ar    1  UNL1        0.0027
      3 C          -8.3900  -17.1008   22.1422 C.ar    1  UNL1        0.0339
      4 C          -9.1774  -17.7693   21.0545 C.ar    1  UNL1        0.1311
      5 N          -8.6381  -18.9986   20.3853 N.ar    1  UNL1       -0.2035
      6 C          -7.3113  -19.5594   20.8038 C.ar    1  UNL1        0.2196
      7 F          -6.7718  -20.7887   20.1345 F       1  UNL1       -0.1835
      8 N         -10.5042  -17.2085   20.6361 N.pl3   1  UNL1       -0.3144
      9 H         -10.5554  -16.3087   20.2399 H       1  UNL1        0.1485
     10 C         -11.7531  -18.0186   20.8214 C.3     1  UNL1        0.1154
     11 C         -12.3552  -18.1668   22.1872 C.ar    1  UNL1       -0.0025
     12 C         -13.7895  -17.7941   22.4189 C.ar    1  UNL1       -0.0018
     13 C         -14.3917  -17.9423   23.7847 C.ar    1  UNL1        0.0111
     14 C         -13.5595  -18.4631   24.9188 C.ar    1  UNL1        0.0577
     15 CL        -14.1616  -18.6113   26.2846 Cl      1  UNL1       -0.0822
     16 C         -12.1251  -18.8357   24.6871 C.ar    1  UNL1        0.0111
     17 C         -11.5230  -18.6876   23.3213 C.ar    1  UNL1       -0.0018
     18 C          -5.1970  -19.4517   22.3099 C.3     1  UNL1        0.0571
     19 C          -3.0071  -18.7584   19.8211 C.2     1  UNL1        0.1355
     20 C          -1.9142  -18.2970   18.9032 C.2     1  UNL1        0.0837
     21 C          -0.8591  -17.3570   19.4063 C.2     1  UNL1        0.2385
     22 N          -0.8969  -16.8783   20.8273 N.2     1  UNL1       -0.0338
     23 C          -1.9898  -17.3397   21.7452 C.2     1  UNL1        0.3621
     24 N          -2.2847  -17.0397   23.1851 N.2     1  UNL1       -0.0346
     25 C          -3.5220  -17.7944   23.5719 C.2     1  UNL1        0.2284
     26 C          -3.9918  -18.5607   22.3711 C.2     1  UNL1        0.0256
     27 C          -3.0449  -18.2797   21.2422 C.3     1  UNL1        0.1907
     28 C          -3.9251  -21.1738   19.5511 C.3     1  UNL1        0.2520
     29 O          -4.0622  -19.6984   19.3180 O.2     1  UNL1       -0.4746
@<TRIPOS>BOND
     1    28    29    1
     2    29    19    1
     3    19    20    2
     4    20    21    1
     5    21    22    2
     6    22    23    1
     7    23    24    2
     8    24    25    1
     9    25    26    2
    10    26    18    1
    11    18     1    1
    12     1     2   ar
    13     2     3   ar
    14     3     4   ar
    15     4     8    1
    16     8    10    1
    17    10    11    1
    18    11    12   ar
    19    12    13   ar
    20    13    14   ar
    21    14    15    1
    22    14    16   ar
    23    16    17   ar
    24     4     5   ar
    25     5     6   ar
    26     6     7    1
    27    26    27    1
    28    27    19    1
    29    27    23    1
    30     6     1   ar
    31    17    11   ar
    32     8     9    1
@<TRIPOS>MOLECULE
*****
 29 32 0 0 0
SMALL
GASTEIGER

@<TRIPOS>ATOM
      1 C          -7.1874  -18.8131   22.2517 C.ar    1  UNL1        0.0281
      2 C          -6.1050  -19.8465   22.1487 C.ar    1  UNL1        0.0027
      3 C          -4.6910  -19.4890   22.4990 C.ar    1  UNL1        0.0339
      4 C          -4.3593  -18.0981   22.9521 C.ar    1  UNL1        0.1311
      5 N          -5.4416  -17.0647   23.0551 N.ar    1  UNL1       -0.2035
      6 C          -6.8556  -17.4222   22.7049 C.ar    1  UNL1        0.2196
      7 F          -7.9380  -16.3888   22.8078 F       1  UNL1       -0.1835
      8 N          -2.9452  -17.7407   23.3023 N.pl3   1  UNL1       -0.3144
      9 H          -2.7650  -17.0905   24.0192 H       1  UNL1        0.1485
     10 C          -1.8057  -18.3740   22.5603 C.3     1  UNL1        0.1154
     11 C          -1.7002  -18.2172   21.0723 C.ar    1  UNL1       -0.0025
     12 C          -0.4929  -17.5608   20.4711 C.ar    1  UNL1       -0.0018
     13 C          -0.3873  -17.4040   18.9831 C.ar    1  UNL1        0.0111
     14 C          -1.4891  -17.9035   18.0963 C.ar    1  UNL1        0.0577
     15 CL         -1.3837  -17.7467   16.6083 Cl      1  UNL1       -0.0822
     16 C          -2.6965  -18.5598   18.6975 C.ar    1  UNL1        0.0111
     17 C          -2.8021  -18.7167   20.1855 C.ar    1  UNL1       -0.0018
     18 C          -8.6015  -19.1705   21.9014 C.3     1  UNL1        0.0571
     19 C         -11.6240  -17.6747   22.2131 C.2     1  UNL1        0.1355
     20 C         -12.9854  -17.1600   22.5760 C.2     1  UNL1        0.0837
     21 C         -13.6693  -17.6568   23.8151 C.2     1  UNL1        0.2385
     22 N         -12.9918  -18.6683   24.6914 N.2     1  UNL1       -0.0338
     23 C         -11.6304  -19.1829   24.3285 C.2     1  UNL1        0.3621
     24 N         -10.7222  -20.1745   24.9933 N.2     1  UNL1       -0.0346
     25 C          -9.4770  -20.2905   24.1651 C.2     1  UNL1        0.2284
     26 C          -9.6157  -19.3707   22.9884 C.2     1  UNL1        0.0256
     27 C         -10.9465  -18.6862   23.0894 C.3     1  UNL1        0.1907
     28 C         -11.6612  -16.2529   20.0389 C.3     1  UNL1        0.2520
     29 O         -10.9401  -17.1780   20.9739 O.2     1  UNL1       -0.4746
@<TRIPOS>BOND
     1    28    29    1
     2    29    19    1
     3    19    20    2
     4    20    21    1
     5    21    22    2
     6    22    23    1
     7    23    24    2
     8    24    25    1
     9    25    26    2
    10    26    18    1
    11    18     1    1
    12     1     2   ar
    13     2     3   ar
    14     3     4   ar
    15     4     8    1
    16     8    10    1
    17    10    11    1
    18    11    12   ar
    19    12    13   ar
    20    13    14   ar
    21    14    15    1
    22    14    16   ar
    23    16    17   ar
    24     4     5   ar
    25     5     6   ar
    26     6     7    1
    27    26    27    1
    28    27    19    1
    29    27    23    1
    30     6     1   ar
    31    17    11   ar
    32     8     9    1
@<TRIPOS>MOLECULE
*****
 29 32 0 0 0
SMALL
GASTEIGER

@<TRIPOS>ATOM
      1 C          -8.2773  -18.1644   23.3133 C.ar    1  UNL1        0.0281
      2 C          -8.5118  -19.5809   22.8789 C.ar    1  UNL1        0.0027
      3 C          -7.4088  -20.3559   22.2211 C.ar    1  UNL1        0.0339
      4 C          -6.0714  -19.7146   21.9977 C.ar    1  UNL1        0.1311
      5 N          -5.8368  -18.2981   22.4322 N.ar    1  UNL1       -0.2035
      6 C          -6.9398  -17.5231   23.0900 C.ar    1  UNL1        0.2196
      7 F          -6.7054  -16.1067   23.5245 F       1  UNL1       -0.1835
      8 N          -4.9684  -20.4897   21.3399 N.pl3   1  UNL1       -0.3144
      9 H          -4.6298  -21.3145   21.7572 H       1  UNL1        0.1485
     10 C          -4.3814  -20.0080   20.0463 C.3     1  UNL1        0.1154
     11 C          -3.0770  -19.2674   20.0443 C.ar    1  UNL1       -0.0025
     12 C          -2.2215  -19.2520   21.2763 C.ar    1  UNL1       -0.0018
     13 C          -0.9171  -18.5114   21.2744 C.ar    1  UNL1        0.0111
     14 C          -0.4683  -17.7861   20.0405 C.ar    1  UNL1        0.0577
     15 CL          0.8361  -17.0454   20.0385 Cl      1  UNL1       -0.0822
     16 C          -1.3238  -17.8015   18.8085 C.ar    1  UNL1        0.0111
     17 C          -2.6282  -18.5421   18.8104 C.ar    1  UNL1       -0.0018
     18 C          -9.3803  -17.3893   23.9712 C.3     1  UNL1        0.0571
     19 C         -10.4291  -16.0615   21.0374 C.2     1  UNL1        0.1355
     20 C         -11.1354  -15.5710   19.8084 C.2     1  UNL1        0.0837
     21 C         -12.6011  -15.8355   19.6298 C.2     1  UNL1        0.2385
     22 N         -13.3604  -16.5905   20.6801 N.2     1  UNL1       -0.0338
     23 C         -12.6541  -17.0810   21.9092 C.2     1  UNL1        0.3621
     24 N         -13.1362  -17.8466   23.1056 N.2     1  UNL1       -0.0346
     25 C         -11.9685  -18.0553   24.0237 C.2     1  UNL1        0.2284
     26 C         -10.7648  -17.4187   23.3946 C.2     1  UNL1        0.0256
     27 C         -11.1885  -16.8165   22.0878 C.3     1  UNL1        0.1907
     28 C          -8.4041  -14.4386   20.9131 C.3     1  UNL1        0.2520
     29 O          -8.9635  -15.7970   21.2161 O.2     1  UNL1       -0.4746
@<TRIPOS>BOND
     1    28    29    1
     2    29    19    1
     3    19    20    2
     4    20    21    1
     5    21    22    2
     6    22    23    1
     7    23    24    2
     8    24    25    1
     9    25    26    2
    10    26    18    1
    11    18     1    1
    12     1     2   ar
    13     2     3   ar
    14     3     4   ar
    15     4     8    1
    16     8    10    1
    17    10    11    1
    18    11    12   ar
    19    12    13   ar
    20    13    14   ar
    21    14    15    1
    22    14    16   ar
    23    16    17   ar
    24     4     5   ar
    25     5     6   ar
    26     6     7    1
    27    26    27    1
    28    27    19    1
    29    27    23    1
    30     6     1   ar
    31    17    11   ar
    32     8     9    1
@<TRIPOS>MOLECULE
*****
 29 32 0 0 0
SMALL
GASTEIGER

@<TRIPOS>ATOM
      1 C          -7.0036  -16.6052   23.1355 C.ar    1  UNL1        0.0281
      2 C          -7.1163  -17.9030   22.3918 C.ar    1  UNL1        0.0027
      3 C          -5.9466  -18.8404   22.3380 C.ar    1  UNL1        0.0339
      4 C          -4.6643  -18.4801   23.0278 C.ar    1  UNL1        0.1311
      5 N          -4.5516  -17.1823   23.7714 N.ar    1  UNL1       -0.2035
      6 C          -5.7213  -16.2449   23.8252 C.ar    1  UNL1        0.2196
      7 F          -5.6087  -14.9470   24.5689 F       1  UNL1       -0.1835
      8 N          -3.4946  -19.4177   22.9739 N.pl3   1  UNL1       -0.3144
      9 H          -3.5961  -20.3492   23.2759 H       1  UNL1        0.1485
     10 C          -2.1703  -18.9360   22.4598 C.3     1  UNL1        0.1154
     11 C          -2.0065  -18.6015   21.0068 C.ar    1  UNL1       -0.0025
     12 C          -3.0405  -19.0438   20.0142 C.ar    1  UNL1       -0.0018
     13 C          -2.8768  -18.7093   18.5612 C.ar    1  UNL1        0.0111
     14 C          -1.6790  -17.9325   18.1008 C.ar    1  UNL1        0.0577
     15 CL         -1.5152  -17.5979   16.6478 Cl      1  UNL1       -0.0822
     16 C          -0.6450  -17.4902   19.0933 C.ar    1  UNL1        0.0111
     17 C          -0.8087  -17.8247   20.5464 C.ar    1  UNL1       -0.0018
     18 C          -8.1734  -15.6676   23.1893 C.3     1  UNL1        0.0571
     19 C         -11.0240  -17.4962   23.2087 C.2     1  UNL1        0.1355
     20 C         -12.3310  -18.1942   22.9756 C.2     1  UNL1        0.0837
     21 C         -13.0971  -17.9487   21.7095 C.2     1  UNL1        0.2385
     22 N         -12.5561  -17.0051   20.6766 N.2     1  UNL1       -0.0338
     23 C         -11.2491  -16.3070   20.9098 C.2     1  UNL1        0.3621
     24 N         -10.4711  -15.3297   20.0794 N.2     1  UNL1       -0.0346
     25 C          -9.2242  -14.9712   20.8323 C.2     1  UNL1        0.2284
     26 C          -9.2316  -15.7270   22.1279 C.2     1  UNL1        0.0256
     27 C         -10.4831  -16.5526   22.1758 C.3     1  UNL1        0.1907
     28 C          -9.9766  -19.1459   24.9207 C.3     1  UNL1        0.2520
     29 O         -10.2580  -17.7417   24.4748 O.2     1  UNL1       -0.4746
@<TRIPOS>BOND
     1    28    29    1
     2    29    19    1
     3    19    20    2
     4    20    21    1
     5    21    22    2
     6    22    23    1
     7    23    24    2
     8    24    25    1
     9    25    26    2
    10    26    18    1
    11    18     1    1
    12     1     2   ar
    13     2     3   ar
    14     3     4   ar
    15     4     8    1
    16     8    10    1
    17    10    11    1
    18    11    12   ar
    19    12    13   ar
    20    13    14   ar
    21    14    15    1
    22    14    16   ar
    23    16    17   ar
    24     4     5   ar
    25     5     6   ar
    26     6     7    1
    27    26    27    1
    28    27    19    1
    29    27    23    1
    30     6     1   ar
    31    17    11   ar
    32     8     9    1
@<TRIPOS>MOLECULE
*****
 29 32 0 0 0
SMALL
GASTEIGER

@<TRIPOS>ATOM
      1 C          -7.0059  -16.4730   23.1755 C.ar    1  UNL1        0.0281
      2 C          -6.0181  -15.5819   23.8683 C.ar    1  UNL1        0.0027
      3 C          -4.5796  -15.9944   23.9715 C.ar    1  UNL1        0.0339
      4 C          -4.1290  -17.2979   23.3819 C.ar    1  UNL1        0.1311
      5 N          -5.1169  -18.1891   22.6891 N.ar    1  UNL1       -0.2035
      6 C          -6.5553  -17.7766   22.5859 C.ar    1  UNL1        0.2196
      7 F          -7.5432  -18.6677   21.8930 F       1  UNL1       -0.1835
      8 N          -2.6905  -17.7104   23.4852 N.pl3   1  UNL1       -0.3144
      9 H          -2.1045  -17.2890   24.1547 H       1  UNL1        0.1485
     10 C          -2.1449  -18.7648   22.5684 C.3     1  UNL1        0.1154
     11 C          -1.9972  -18.4812   21.1030 C.ar    1  UNL1       -0.0025
     12 C          -3.0934  -18.8601   20.1517 C.ar    1  UNL1       -0.0018
     13 C          -2.9458  -18.5765   18.6861 C.ar    1  UNL1        0.0111
     14 C          -1.7021  -17.9141   18.1719 C.ar    1  UNL1        0.0577
     15 CL         -1.5545  -17.6305   16.7064 Cl      1  UNL1       -0.0822
     16 C          -0.6060  -17.5353   19.1232 C.ar    1  UNL1        0.0111
     17 C          -0.7535  -17.8188   20.5887 C.ar    1  UNL1       -0.0018
     18 C          -8.4445  -16.0605   23.0722 C.3     1  UNL1        0.0571
     19 C         -11.5145  -16.6717   21.7793 C.2     1  UNL1        0.1355
     20 C         -12.9074  -17.0997   21.4236 C.2     1  UNL1        0.0837
     21 C         -13.6553  -18.0402   22.3214 C.2     1  UNL1        0.2385
     22 N         -13.0104  -18.5527   23.5749 N.2     1  UNL1       -0.0338
     23 C         -11.6174  -18.1247   23.9306 C.2     1  UNL1        0.3621
     24 N         -10.7295  -18.4617   25.0916 N.2     1  UNL1       -0.0346
     25 C          -9.4328  -17.7295   24.9114 C.2     1  UNL1        0.2284
     26 C          -9.5194  -16.9400   23.6390 C.2     1  UNL1        0.0256
     27 C         -10.8695  -17.1842   23.0328 C.3     1  UNL1        0.1907
     28 C         -11.1736  -15.5821   19.4455 C.3     1  UNL1        0.2520
     29 O         -10.7666  -15.7312   20.8815 O.2     1  UNL1       -0.4746
@<TRIPOS>BOND
     1    28    29    1
     2    29    19    1
     3    19    20    2
     4    20    21    1
     5    21    22    2
     6    22    23    1
     7    23    24    2
     8    24    25    1
     9    25    26    2
    10    26    18    1
    11    18     1    1
    12     1     2   ar
    13     2     3   ar
    14     3     4   ar
    15     4     8    1
    16     8    10    1
    17    10    11    1
    18    11    12   ar
    19    12    13   ar
    20    13    14   ar
    21    14    15    1
    22    14    16   ar
    23    16    17   ar
    24     4     5   ar
    25     5     6   ar
    26     6     7    1
    27    26    27    1
    28    27    19    1
    29    27    23    1
    30     6     1   ar
    31    17    11   ar
    32     8     9    1
