@<TRIPOS>MOLECULE
*****
 38 42 0 0 0
SMALL
GASTEIGER

@<TRIPOS>ATOM
      1 C          -0.0323    5.5566   20.6169 C.3     1  UNL1        0.0972
      2 C           1.1923    5.3287   21.4526 C.3     1  UNL1        0.0431
      3 C           0.7749    4.6065   22.6992 C.3     1  UNL1        0.0968
      4 N          -0.7078    4.3880   22.6341 N.am    1  UNL1       -0.2623
      5 C          -1.5445    3.7027   23.6734 C.2     1  UNL1        0.3073
      6 O          -3.0235    3.5575   23.4692 O.2     1  UNL1       -0.2523
      7 N          -0.9024    3.1627   24.9168 N.am    1  UNL1       -0.2626
      8 C           0.5568    3.2332   25.2574 C.3     1  UNL1        0.0964
      9 C           0.7543    2.5715   26.5890 C.3     1  UNL1        0.0390
     10 C          -0.5827    2.0919   27.0712 C.3     1  UNL1        0.0758
     11 C          -1.6065    2.4573   26.0377 C.3     1  UNL1        0.1106
     12 C          -1.2066    4.9752   21.3471 C.3     1  UNL1        0.1147
     13 C           0.4830    5.5641   18.0704 C.2     1  UNL1        0.2491
     14 O           0.4401    6.2526   16.7384 O.2     1  UNL1       -0.2699
     15 N          -0.0752    6.2450   19.2848 N.am    1  UNL1       -0.2742
     16 C          -0.6763    7.6143   19.1672 C.3     1  UNL1        0.1152
     17 C           2.2862    1.4564   18.4231 C.ar    1  UNL1        0.0000
     18 C           0.7973    1.6172   18.3397 C.ar    1  UNL1        0.0001
     19 C           0.1962    2.9864   18.2222 C.ar    1  UNL1        0.0045
     20 C           1.0841    4.1949   18.1880 C.ar    1  UNL1        0.0536
     21 C           2.5731    4.0341   18.2714 C.ar    1  UNL1        0.0045
     22 C           3.1741    2.6648   18.3890 C.ar    1  UNL1        0.0001
     23 C           4.0895   -2.6514   18.7759 C.ar    1  UNL1       -0.0222
     24 C           4.4610   -1.7656   17.6238 C.ar    1  UNL1       -0.0043
     25 C           3.8599   -0.3964   17.5062 C.ar    1  UNL1       -0.0003
     26 C           2.8873    0.0871   18.5407 C.ar    1  UNL1       -0.0000
     27 C           2.5158   -0.7987   19.6928 C.ar    1  UNL1       -0.0003
     28 C           3.1169   -2.1679   19.8104 C.ar    1  UNL1       -0.0043
     29 C           3.8319   -5.1853   19.2885 C.3     1  UNL1        0.0050
     30 C           4.6906   -4.0207   18.8934 C.3     1  UNL1        0.0264
     31 N          -0.8490    1.3732   28.3605 N.3     1  UNL1       -0.2980
     32 H          -1.2900    0.4861   28.1175 H       1  UNL1        0.1232
     33 C           0.2849    1.0530   29.2888 C.3     1  UNL1        0.0590
     34 C           0.6071    1.9767   30.4258 C.3     1  UNL1        0.0478
     35 C           1.7411    1.6566   31.3541 C.3     1  UNL1        0.1435
     36 O           2.5528    0.4126   31.1454 O.3     1  UNL1       -0.3537
     37 C           2.2307   -0.5112   30.0083 C.3     1  UNL1        0.1435
     38 C           1.0967   -0.1910   29.0800 C.3     1  UNL1        0.0478
@<TRIPOS>BOND
     1    29    30    1
     2    30    23    1
     3    23    24   ar
     4    24    25   ar
     5    25    26   ar
     6    26    17    1
     7    17    18   ar
     8    18    19   ar
     9    19    20   ar
    10    20    13    1
    11    13    14    2
    12    13    15   am
    13    15    16    1
    14     1    15    1
    15     1     2    1
    16     2     3    1
    17     3     4    1
    18     4     5   am
    19     5     6    2
    20     5     7   am
    21     7     8    1
    22     8     9    1
    23     9    10    1
    24    10    31    1
    25    31    33    1
    26    33    34    1
    27    34    35    1
    28    35    36    1
    29    36    37    1
    30    37    38    1
    31    10    11    1
    32     4    12    1
    33    20    21   ar
    34    21    22   ar
    35    26    27   ar
    36    27    28   ar
    37    28    23   ar
    38    22    17   ar
    39    12     1    1
    40    11     7    1
    41    38    33    1
    42    31    32    1
@<TRIPOS>MOLECULE
*****
 38 42 0 0 0
SMALL
GASTEIGER

@<TRIPOS>ATOM
      1 C          -0.8509    4.1886   23.9051 C.3     1  UNL1        0.0972
      2 C          -1.7826    3.1636   24.4806 C.3     1  UNL1        0.0431
      3 C          -1.0646    2.4565   25.5917 C.3     1  UNL1        0.0968
      4 N           0.3109    3.0444   25.7028 N.am    1  UNL1       -0.2623
      5 C           1.3686    2.6340   26.6841 C.2     1  UNL1        0.3073
      6 O           2.7044    3.3164   26.6762 O.2     1  UNL1       -0.2523
      7 N           1.0906    1.5411   27.6731 N.am    1  UNL1       -0.2626
      8 C          -0.1909    0.7716   27.7998 C.3     1  UNL1        0.0964
      9 C          -0.0283   -0.2192   28.9141 C.3     1  UNL1        0.0390
     10 C           1.3535   -0.0622   29.4761 C.3     1  UNL1        0.0758
     11 C           2.0450    1.0257   28.7091 C.3     1  UNL1        0.1106
     12 C           0.4430    4.1149   24.6604 C.3     1  UNL1        0.1147
     13 C          -0.6588    4.8187   21.3919 C.2     1  UNL1        0.2491
     14 O          -0.9668    5.7533   20.2598 O.2     1  UNL1       -0.2699
     15 N          -1.1589    5.1232   22.7729 N.am    1  UNL1       -0.2742
     16 C          -1.9670    6.3621   23.0218 C.3     1  UNL1        0.1152
     17 C           1.7654    1.1019   20.6451 C.ar    1  UNL1        0.0000
     18 C           2.4550    2.3971   20.9563 C.ar    1  UNL1        0.0001
     19 C           1.6469    3.6361   21.2052 C.ar    1  UNL1        0.0045
     20 C           0.1493    3.5798   21.1430 C.ar    1  UNL1        0.0536
     21 C          -0.5403    2.2846   20.8318 C.ar    1  UNL1        0.0045
     22 C           0.2678    1.0456   20.5829 C.ar    1  UNL1        0.0001
     23 C           4.1897   -2.6150   19.8984 C.ar    1  UNL1       -0.0222
     24 C           3.7536   -1.7599   18.7458 C.ar    1  UNL1       -0.0043
     25 C           2.9455   -0.5209   18.9947 C.ar    1  UNL1       -0.0003
     26 C           2.5735   -0.1371   20.3962 C.ar    1  UNL1       -0.0000
     27 C           3.0097   -0.9922   21.5488 C.ar    1  UNL1       -0.0003
     28 C           3.8177   -2.2312   21.2999 C.ar    1  UNL1       -0.0043
     29 C           4.4055   -4.9923   18.8727 C.3     1  UNL1        0.0050
     30 C           4.9978   -3.8540   19.6494 C.3     1  UNL1        0.0264
     31 N           1.9408   -0.8541   30.6066 N.3     1  UNL1       -0.2980
     32 H           2.1724   -1.7743   30.2324 H       1  UNL1        0.1232
     33 C           3.1645   -0.3546   31.3159 C.3     1  UNL1        0.0590
     34 C           3.0323    0.6455   32.4260 C.3     1  UNL1        0.0478
     35 C           4.2559    1.1450   33.1353 C.3     1  UNL1        0.1435
     36 O           5.6119    0.6444   32.7345 O.3     1  UNL1       -0.3537
     37 C           5.7443   -0.3557   31.6244 C.3     1  UNL1        0.1435
     38 C           4.5205   -0.8552   30.9150 C.3     1  UNL1        0.0478
@<TRIPOS>BOND
     1    29    30    1
     2    30    23    1
     3    23    24   ar
     4    24    25   ar
     5    25    26   ar
     6    26    17    1
     7    17    18   ar
     8    18    19   ar
     9    19    20   ar
    10    20    13    1
    11    13    14    2
    12    13    15   am
    13    15    16    1
    14     1    15    1
    15     1     2    1
    16     2     3    1
    17     3     4    1
    18     4     5   am
    19     5     6    2
    20     5     7   am
    21     7     8    1
    22     8     9    1
    23     9    10    1
    24    10    31    1
    25    31    33    1
    26    33    34    1
    27    34    35    1
    28    35    36    1
    29    36    37    1
    30    37    38    1
    31    10    11    1
    32     4    12    1
    33    20    21   ar
    34    21    22   ar
    35    26    27   ar
    36    27    28   ar
    37    28    23   ar
    38    22    17   ar
    39    12     1    1
    40    11     7    1
    41    38    33    1
    42    31    32    1
@<TRIPOS>MOLECULE
*****
 38 42 0 0 0
SMALL
GASTEIGER

@<TRIPOS>ATOM
      1 C           4.7666   -0.0034   19.6389 C.3     1  UNL1        0.0972
      2 C           5.4865    0.6583   20.7763 C.3     1  UNL1        0.0431
      3 C           4.4633    1.0867   21.7860 C.3     1  UNL1        0.0968
      4 N           3.1109    0.6897   21.2726 N.am    1  UNL1       -0.2623
      5 C           1.8011    0.9251   21.9646 C.2     1  UNL1        0.3073
      6 O           0.5227    0.4697   21.3255 O.2     1  UNL1       -0.2523
      7 N           1.7696    1.6159   23.2957 N.am    1  UNL1       -0.2626
      8 C           2.9601    2.1246   24.0534 C.3     1  UNL1        0.0964
      9 C           2.4685    2.7423   25.3288 C.3     1  UNL1        0.0390
     10 C           0.9742    2.6153   25.3594 C.3     1  UNL1        0.0758
     11 C           0.5423    1.9192   24.1029 C.3     1  UNL1        0.1106
     12 C           3.2984    0.0160   19.9456 C.3     1  UNL1        0.1147
     13 C           6.2460   -1.8192   18.5144 C.2     1  UNL1        0.2491
     14 O           6.8825   -2.3985   17.2859 O.2     1  UNL1       -0.2699
     15 N           5.4031   -0.5828   18.4103 N.am    1  UNL1       -0.2742
     16 C           5.1967    0.0742   17.0778 C.3     1  UNL1        0.1152
     17 C           6.8654   -3.7902   22.5121 C.ar    1  UNL1        0.0000
     18 C           7.9912   -3.0415   21.8626 C.ar    1  UNL1        0.0001
     19 C           7.7848   -2.3845   20.5300 C.ar    1  UNL1        0.0045
     20 C           6.4525   -2.4762   19.8470 C.ar    1  UNL1        0.0536
     21 C           5.3267   -3.2249   20.4965 C.ar    1  UNL1        0.0045
     22 C           5.5331   -3.8819   21.8291 C.ar    1  UNL1        0.0001
     23 C           7.4848   -5.7612   26.5098 C.ar    1  UNL1       -0.0222
     24 C           6.7490   -4.4570   26.4226 C.ar    1  UNL1       -0.0043
     25 C           6.5425   -3.8000   25.0900 C.ar    1  UNL1       -0.0003
     26 C           7.0719   -4.4472   23.8447 C.ar    1  UNL1       -0.0000
     27 C           7.8077   -5.7514   23.9319 C.ar    1  UNL1       -0.0003
     28 C           8.0141   -6.4084   25.2644 C.ar    1  UNL1       -0.0043
     29 C           7.2236   -5.7377   29.0946 C.3     1  UNL1        0.0050
     30 C           7.6912   -6.4182   27.8423 C.3     1  UNL1        0.0264
     31 N           0.0704    3.0995   26.4542 N.3     1  UNL1       -0.2980
     32 H          -0.8643    3.1746   26.0529 H       1  UNL1        0.1232
     33 C          -0.0645    2.3072   27.7207 C.3     1  UNL1        0.0590
     34 C           0.6491    2.7514   28.9630 C.3     1  UNL1        0.0478
     35 C           0.5142    1.9591   30.2295 C.3     1  UNL1        0.1435
     36 O          -0.3344    0.7225   30.2537 O.3     1  UNL1       -0.3537
     37 C          -1.0481    0.2782   29.0115 C.3     1  UNL1        0.1435
     38 C          -0.9132    1.0706   27.7449 C.3     1  UNL1        0.0478
@<TRIPOS>BOND
     1    29    30    1
     2    30    23    1
     3    23    24   ar
     4    24    25   ar
     5    25    26   ar
     6    26    17    1
     7    17    18   ar
     8    18    19   ar
     9    19    20   ar
    10    20    13    1
    11    13    14    2
    12    13    15   am
    13    15    16    1
    14     1    15    1
    15     1     2    1
    16     2     3    1
    17     3     4    1
    18     4     5   am
    19     5     6    2
    20     5     7   am
    21     7     8    1
    22     8     9    1
    23     9    10    1
    24    10    31    1
    25    31    33    1
    26    33    34    1
    27    34    35    1
    28    35    36    1
    29    36    37    1
    30    37    38    1
    31    10    11    1
    32     4    12    1
    33    20    21   ar
    34    21    22   ar
    35    26    27   ar
    36    27    28   ar
    37    28    23   ar
    38    22    17   ar
    39    12     1    1
    40    11     7    1
    41    38    33    1
    42    31    32    1
@<TRIPOS>MOLECULE
*****
 38 42 0 0 0
SMALL
GASTEIGER

@<TRIPOS>ATOM
      1 C           3.5223   -0.5362   19.8668 C.3     1  UNL1        0.0972
      2 C           2.1167   -0.8133   20.3114 C.3     1  UNL1        0.0431
      3 C           1.8836   -0.0766   21.5970 C.3     1  UNL1        0.0968
      4 N           3.1450    0.6559   21.9470 N.am    1  UNL1       -0.2623
      5 C           3.3565    1.5205   23.1543 C.2     1  UNL1        0.3073
      6 O           4.6795    2.1928   23.3728 O.2     1  UNL1       -0.2523
      7 N           2.2450    1.7129   24.1430 N.am    1  UNL1       -0.2626
      8 C           0.8749    1.1081   24.0582 C.3     1  UNL1        0.0964
      9 C           0.0916    1.5652   25.2529 C.3     1  UNL1        0.0390
     10 C           0.9776    2.4526   26.0761 C.3     1  UNL1        0.0758
     11 C           2.3084    2.5439   25.3902 C.3     1  UNL1        0.1106
     12 C           4.1577    0.3718   20.8776 C.3     1  UNL1        0.1147
     13 C           5.2289   -2.1370   18.7376 C.2     1  UNL1        0.2491
     14 O           5.8839   -2.6736   17.4995 O.2     1  UNL1       -0.2699
     15 N           4.1773   -1.0729   18.6286 N.am    1  UNL1       -0.2742
     16 C           3.7808   -0.5454   17.2816 C.3     1  UNL1        0.1152
     17 C           6.4184   -3.7194   22.7787 C.ar    1  UNL1        0.0000
     18 C           7.4182   -2.9824   21.9379 C.ar    1  UNL1        0.0001
     19 C           7.0217   -2.4549   20.5908 C.ar    1  UNL1        0.0045
     20 C           5.6254   -2.6645   20.0846 C.ar    1  UNL1        0.0536
     21 C           4.6256   -3.4016   20.9255 C.ar    1  UNL1        0.0045
     22 C           5.0221   -3.9290   22.2725 C.ar    1  UNL1        0.0001
     23 C           7.6080   -5.3019   26.8199 C.ar    1  UNL1       -0.0222
     24 C           7.9976   -6.0475   25.5781 C.ar    1  UNL1       -0.0043
     25 C           7.6010   -5.5200   24.2310 C.ar    1  UNL1       -0.0003
     26 C           6.8149   -4.2469   24.1258 C.ar    1  UNL1       -0.0000
     27 C           6.4253   -3.5013   25.3676 C.ar    1  UNL1       -0.0003
     28 C           6.8219   -4.0287   26.7147 C.ar    1  UNL1       -0.0043
     29 C           7.0598   -5.7119   29.3261 C.3     1  UNL1        0.0050
     30 C           8.0045   -5.8293   28.1669 C.3     1  UNL1        0.0264
     31 N           0.5991    3.1299   27.3599 N.3     1  UNL1       -0.2980
     32 H          -0.4060    3.2982   27.3188 H       1  UNL1        0.1232
     33 C           0.8721    2.4562   28.6720 C.3     1  UNL1        0.0590
     34 C           1.3789    1.0447   28.6994 C.3     1  UNL1        0.0478
     35 C           1.6518    0.3710   30.0115 C.3     1  UNL1        0.1435
     36 O           1.4179    1.1089   31.2964 O.3     1  UNL1       -0.3537
     37 C           0.9110    2.5204   31.2691 C.3     1  UNL1        0.1435
     38 C           0.6381    3.1941   29.9569 C.3     1  UNL1        0.0478
@<TRIPOS>BOND
     1    29    30    1
     2    30    23    1
     3    23    24   ar
     4    24    25   ar
     5    25    26   ar
     6    26    17    1
     7    17    18   ar
     8    18    19   ar
     9    19    20   ar
    10    20    13    1
    11    13    14    2
    12    13    15   am
    13    15    16    1
    14     1    15    1
    15     1     2    1
    16     2     3    1
    17     3     4    1
    18     4     5   am
    19     5     6    2
    20     5     7   am
    21     7     8    1
    22     8     9    1
    23     9    10    1
    24    10    31    1
    25    31    33    1
    26    33    34    1
    27    34    35    1
    28    35    36    1
    29    36    37    1
    30    37    38    1
    31    10    11    1
    32     4    12    1
    33    20    21   ar
    34    21    22   ar
    35    26    27   ar
    36    27    28   ar
    37    28    23   ar
    38    22    17   ar
    39    12     1    1
    40    11     7    1
    41    38    33    1
    42    31    32    1
@<TRIPOS>MOLECULE
*****
 38 42 0 0 0
SMALL
GASTEIGER

@<TRIPOS>ATOM
      1 C           3.6833    1.7318   33.2800 C.3     1  UNL1        0.0972
      2 C           4.5895    2.4352   32.3136 C.3     1  UNL1        0.0431
      3 C           3.9577    2.3708   30.9547 C.3     1  UNL1        0.0968
      4 N           2.6609    1.6275   31.0812 N.am    1  UNL1       -0.2623
      5 C           1.7020    1.3312   29.9664 C.2     1  UNL1        0.3073
      6 O           0.4378    0.5739   30.2460 O.2     1  UNL1       -0.2523
      7 N           2.0074    1.7923   28.5721 N.am    1  UNL1       -0.2626
      8 C           3.2254    2.5554   28.1427 C.3     1  UNL1        0.0964
      9 C           3.1192    2.8059   26.6676 C.3     1  UNL1        0.0390
     10 C           1.8357    2.1976   26.1853 C.3     1  UNL1        0.0758
     11 C           1.1486    1.5712   27.3623 C.3     1  UNL1        0.1106
     12 C           2.4913    1.2326   32.5183 C.3     1  UNL1        0.1147
     13 C           4.6625    0.3509   35.2509 C.2     1  UNL1        0.2491
     14 O           4.9055    0.1772   36.7208 O.2     1  UNL1       -0.2699
     15 N           3.9263    1.5580   34.7500 N.am    1  UNL1       -0.2742
     16 C           3.4331    2.5913   35.7190 C.3     1  UNL1        0.1152
     17 C           6.1421   -2.7491   32.3439 C.ar    1  UNL1        0.0000
     18 C           4.7518   -2.8444   32.8989 C.ar    1  UNL1        0.0001
     19 C           4.2586   -1.8110   33.8679 C.ar    1  UNL1        0.0045
     20 C           5.1557   -0.6824   34.2819 C.ar    1  UNL1        0.0536
     21 C           6.5459   -0.5872   33.7269 C.ar    1  UNL1        0.0045
     22 C           7.0391   -1.6205   32.7579 C.ar    1  UNL1        0.0001
     23 C           7.6216   -5.8491   29.4368 C.ar    1  UNL1       -0.0222
     24 C           7.5884   -6.1533   30.9053 C.ar    1  UNL1       -0.0043
     25 C           7.0952   -5.1200   31.8743 C.ar    1  UNL1       -0.0003
     26 C           6.6352   -3.7824   31.3749 C.ar    1  UNL1       -0.0000
     27 C           6.6685   -3.4783   29.9064 C.ar    1  UNL1       -0.0003
     28 C           7.1617   -4.5116   28.9374 C.ar    1  UNL1       -0.0043
     29 C           7.7276   -6.7993   27.0211 C.3     1  UNL1        0.0050
     30 C           8.1148   -6.8825   28.4678 C.3     1  UNL1        0.0264
     31 N           1.3283    2.2130   24.7738 N.3     1  UNL1       -0.2980
     32 H           1.5876    3.1165   24.3776 H       1  UNL1        0.1232
     33 C           1.7851    1.1665   23.8012 C.3     1  UNL1        0.0590
     34 C           1.3186    1.2120   22.3764 C.3     1  UNL1        0.0478
     35 C           1.7754    0.1654   21.4037 C.3     1  UNL1        0.1435
     36 O           2.6988   -0.9267   21.8560 O.3     1  UNL1       -0.3537
     37 C           3.1654   -0.9723   23.2808 C.3     1  UNL1        0.1435
     38 C           2.7086    0.0743   24.2535 C.3     1  UNL1        0.0478
@<TRIPOS>BOND
     1    29    30    1
     2    30    23    1
     3    23    24   ar
     4    24    25   ar
     5    25    26   ar
     6    26    17    1
     7    17    18   ar
     8    18    19   ar
     9    19    20   ar
    10    20    13    1
    11    13    14    2
    12    13    15   am
    13    15    16    1
    14     1    15    1
    15     1     2    1
    16     2     3    1
    17     3     4    1
    18     4     5   am
    19     5     6    2
    20     5     7   am
    21     7     8    1
    22     8     9    1
    23     9    10    1
    24    10    31    1
    25    31    33    1
    26    33    34    1
    27    34    35    1
    28    35    36    1
    29    36    37    1
    30    37    38    1
    31    10    11    1
    32     4    12    1
    33    20    21   ar
    34    21    22   ar
    35    26    27   ar
    36    27    28   ar
    37    28    23   ar
    38    22    17   ar
    39    12     1    1
    40    11     7    1
    41    38    33    1
    42    31    32    1
@<TRIPOS>MOLECULE
*****
 38 42 0 0 0
SMALL
GASTEIGER

@<TRIPOS>ATOM
      1 C           3.6439    1.8277   33.8158 C.3     1  UNL1        0.0972
      2 C           4.5544    2.2365   32.6960 C.3     1  UNL1        0.0431
      3 C           3.7272    2.3726   31.4522 C.3     1  UNL1        0.0968
      4 N           2.3054    2.0479   31.8032 N.am    1  UNL1       -0.2623
      5 C           1.1398    2.0582   30.8592 C.2     1  UNL1        0.3073
      6 O          -0.2315    1.7093   31.3569 O.2     1  UNL1       -0.2523
      7 N           1.3454    2.4174   29.4174 N.am    1  UNL1       -0.2626
      8 C           2.6514    2.7867   28.7784 C.3     1  UNL1        0.0964
      9 C           2.3944    3.0678   27.3276 C.3     1  UNL1        0.0390
     10 C           0.9297    2.8723   27.0699 C.3     1  UNL1        0.0758
     11 C           0.2814    2.4703   28.3615 C.3     1  UNL1        0.1106
     12 C           2.2540    1.7112   33.2640 C.3     1  UNL1        0.1147
     13 C           4.8632    0.3661   35.5841 C.2     1  UNL1        0.2491
     14 O           5.2710    0.1175   37.0060 O.2     1  UNL1       -0.2699
     15 N           4.0517    1.5791   35.2378 N.am    1  UNL1       -0.2742
     16 C           3.6481    2.5436   36.3133 C.3     1  UNL1        0.1152
     17 C           6.0742   -2.5274   32.3575 C.ar    1  UNL1        0.0000
     18 C           4.6907   -2.5833   32.9344 C.ar    1  UNL1        0.0001
     19 C           4.2871   -1.6188   34.0099 C.ar    1  UNL1        0.0045
     20 C           5.2669   -0.5984   34.5086 C.ar    1  UNL1        0.0536
     21 C           6.6503   -0.5425   33.9317 C.ar    1  UNL1        0.0045
     22 C           7.0540   -1.5070   32.8561 C.ar    1  UNL1        0.0001
     23 C           7.2852   -5.4209   29.1308 C.ar    1  UNL1       -0.0222
     24 C           6.8520   -4.0314   28.7682 C.ar    1  UNL1       -0.0043
     25 C           6.4484   -3.0669   29.8437 C.ar    1  UNL1       -0.0003
     26 C           6.4778   -3.4919   31.2819 C.ar    1  UNL1       -0.0000
     27 C           6.9110   -4.8814   31.6446 C.ar    1  UNL1       -0.0003
     28 C           7.3146   -5.8459   30.5690 C.ar    1  UNL1       -0.0043
     29 C           6.9428   -6.4133   26.7543 C.3     1  UNL1        0.0050
     30 C           7.6888   -6.3854   28.0553 C.3     1  UNL1        0.0264
     31 N           0.2351    3.0480   25.7521 N.3     1  UNL1       -0.2980
     32 H           0.0500    2.1126   25.3898 H       1  UNL1        0.1232
     33 C          -1.0586    3.8037   25.6810 C.3     1  UNL1        0.0590
     34 C          -1.1761    5.1521   26.3276 C.3     1  UNL1        0.0478
     35 C          -2.4698    5.9078   26.2565 C.3     1  UNL1        0.1435
     36 O          -3.6462    5.3152   25.5388 O.3     1  UNL1       -0.3537
     37 C          -3.5287    3.9669   24.8922 C.3     1  UNL1        0.1435
     38 C          -2.2349    3.2111   24.9633 C.3     1  UNL1        0.0478
@<TRIPOS>BOND
     1    29    30    1
     2    30    23    1
     3    23    24   ar
     4    24    25   ar
     5    25    26   ar
     6    26    17    1
     7    17    18   ar
     8    18    19   ar
     9    19    20   ar
    10    20    13    1
    11    13    14    2
    12    13    15   am
    13    15    16    1
    14     1    15    1
    15     1     2    1
    16     2     3    1
    17     3     4    1
    18     4     5   am
    19     5     6    2
    20     5     7   am
    21     7     8    1
    22     8     9    1
    23     9    10    1
    24    10    31    1
    25    31    33    1
    26    33    34    1
    27    34    35    1
    28    35    36    1
    29    36    37    1
    30    37    38    1
    31    10    11    1
    32     4    12    1
    33    20    21   ar
    34    21    22   ar
    35    26    27   ar
    36    27    28   ar
    37    28    23   ar
    38    22    17   ar
    39    12     1    1
    40    11     7    1
    41    38    33    1
    42    31    32    1
@<TRIPOS>MOLECULE
*****
 38 42 0 0 0
SMALL
GASTEIGER

@<TRIPOS>ATOM
      1 C           0.5347    4.3664   24.9728 C.3     1  UNL1        0.0972
      2 C           1.9060    4.4466   25.5753 C.3     1  UNL1        0.0431
      3 C           2.0100    3.3887   26.6336 C.3     1  UNL1        0.0968
      4 N           0.7028    2.6546   26.6852 N.am    1  UNL1       -0.2623
      5 C           0.3666    1.5162   27.6022 C.2     1  UNL1        0.3073
      6 O          -0.9892    0.8775   27.5389 O.2     1  UNL1       -0.2523
      7 N           1.3860    1.0164   28.5825 N.am    1  UNL1       -0.2626
      8 C           2.7756    1.5528   28.7599 C.3     1  UNL1        0.0964
      9 C           3.4433    0.7605   29.8445 C.3     1  UNL1        0.0390
     10 C           2.4664   -0.2656   30.3374 C.3     1  UNL1        0.0758
     11 C           1.1950   -0.1074   29.5574 C.3     1  UNL1        0.1106
     12 C          -0.2089    3.2588   25.6588 C.3     1  UNL1        0.1147
     13 C           0.1123    4.8021   22.4466 C.2     1  UNL1        0.2491
     14 O          -0.4217    5.6760   21.3506 O.2     1  UNL1       -0.2699
     15 N           0.0006    5.2402   23.8768 N.am    1  UNL1       -0.2742
     16 C          -0.6451    6.5522   24.2110 C.3     1  UNL1        0.1152
     17 C           2.0495    0.8661   21.4438 C.ar    1  UNL1        0.0000
     18 C           2.8915    2.0971   21.6044 C.ar    1  UNL1        0.0001
     19 C           2.2457    3.4091   21.9387 C.ar    1  UNL1        0.0045
     20 C           0.7581    3.4901   22.1123 C.ar    1  UNL1        0.0536
     21 C          -0.0839    2.2592   21.9517 C.ar    1  UNL1        0.0045
     22 C           0.5618    0.9472   21.6175 C.ar    1  UNL1        0.0001
     23 C           3.9867   -3.0698   20.4411 C.ar    1  UNL1       -0.0222
     24 C           4.1563   -2.4773   21.8086 C.ar    1  UNL1       -0.0043
     25 C           3.5106   -1.1653   22.1428 C.ar    1  UNL1       -0.0003
     26 C           2.6952   -0.4458   21.1096 C.ar    1  UNL1       -0.0000
     27 C           2.5257   -1.0384   19.7421 C.ar    1  UNL1       -0.0003
     28 C           3.1714   -2.3504   19.4078 C.ar    1  UNL1       -0.0043
     29 C           4.5767   -4.9093   18.7037 C.3     1  UNL1        0.0050
     30 C           4.6324   -4.3818   20.1068 C.3     1  UNL1        0.0264
     31 N           2.7170   -1.2729   31.4201 N.3     1  UNL1       -0.2980
     32 H           2.7415   -2.1883   30.9708 H       1  UNL1        0.1232
     33 C           3.9513   -1.1729   32.2666 C.3     1  UNL1        0.0590
     34 C           5.1616   -1.9914   31.9276 C.3     1  UNL1        0.0478
     35 C           6.3959   -1.8914   32.7740 C.3     1  UNL1        0.1435
     36 O           6.4199   -0.9727   33.9595 O.3     1  UNL1       -0.3537
     37 C           5.2096   -0.1541   34.2986 C.3     1  UNL1        0.1435
     38 C           3.9752   -0.2541   33.4521 C.3     1  UNL1        0.0478
@<TRIPOS>BOND
     1    29    30    1
     2    30    23    1
     3    23    24   ar
     4    24    25   ar
     5    25    26   ar
     6    26    17    1
     7    17    18   ar
     8    18    19   ar
     9    19    20   ar
    10    20    13    1
    11    13    14    2
    12    13    15   am
    13    15    16    1
    14     1    15    1
    15     1     2    1
    16     2     3    1
    17     3     4    1
    18     4     5   am
    19     5     6    2
    20     5     7   am
    21     7     8    1
    22     8     9    1
    23     9    10    1
    24    10    31    1
    25    31    33    1
    26    33    34    1
    27    34    35    1
    28    35    36    1
    29    36    37    1
    30    37    38    1
    31    10    11    1
    32     4    12    1
    33    20    21   ar
    34    21    22   ar
    35    26    27   ar
    36    27    28   ar
    37    28    23   ar
    38    22    17   ar
    39    12     1    1
    40    11     7    1
    41    38    33    1
    42    31    32    1
@<TRIPOS>MOLECULE
*****
 38 42 0 0 0
SMALL
GASTEIGER

@<TRIPOS>ATOM
      1 C          -0.5116    5.1538   18.2014 C.3     1  UNL1        0.0972
      2 C           0.9169    5.5646   17.9997 C.3     1  UNL1        0.0431
      3 C           1.7749    4.3423   18.1402 C.3     1  UNL1        0.0968
      4 N           0.8767    3.1760   18.4288 N.am    1  UNL1       -0.2623
      5 C           1.3148    1.7574   18.6421 C.2     1  UNL1        0.3073
      6 O           0.2967    0.6924   18.9235 O.2     1  UNL1       -0.2523
      7 N           2.7710    1.4038   18.5741 N.am    1  UNL1       -0.2626
      8 C           3.8978    2.3562   18.3030 C.3     1  UNL1        0.0964
      9 C           5.1792    1.5768   18.3265 C.3     1  UNL1        0.0390
     10 C           4.8443    0.1428   18.6121 C.3     1  UNL1        0.0758
     11 C           3.3560    0.0359   18.7651 C.3     1  UNL1        0.1106
     12 C          -0.5364    3.6776   18.4666 C.3     1  UNL1        0.1147
     13 C          -2.5835    6.2167   19.3536 C.2     1  UNL1        0.2491
     14 O          -3.7776    7.1229   19.2996 O.2     1  UNL1       -0.2699
     15 N          -1.7057    6.0601   18.1474 N.am    1  UNL1       -0.2742
     16 C          -2.0219    6.8097   16.8872 C.3     1  UNL1        0.1152
     17 C          -1.6349    3.9678   23.1341 C.ar    1  UNL1        0.0000
     18 C          -0.8411    5.1864   22.7672 C.ar    1  UNL1        0.0001
     19 C          -1.1573    5.9361   21.5070 C.ar    1  UNL1        0.0045
     20 C          -2.2673    5.4671   20.6138 C.ar    1  UNL1        0.0536
     21 C          -3.0611    4.2484   20.9808 C.ar    1  UNL1        0.0045
     22 C          -2.7449    3.4988   22.2409 C.ar    1  UNL1        0.0001
     23 C          -0.6862    1.7189   26.9147 C.ar    1  UNL1       -0.0222
     24 C           0.0651    1.4148   25.6526 C.ar    1  UNL1       -0.0043
     25 C          -0.2512    2.1645   24.3924 C.ar    1  UNL1       -0.0003
     26 C          -1.3187    3.2182   24.3943 C.ar    1  UNL1       -0.0000
     27 C          -2.0700    3.5223   25.6565 C.ar    1  UNL1       -0.0003
     28 C          -1.7538    2.7726   26.9166 C.ar    1  UNL1       -0.0043
     29 C          -1.3473   -0.0306   28.7180 C.3     1  UNL1        0.0050
     30 C          -0.3700    0.9693   28.1749 C.3     1  UNL1        0.0264
     31 N           5.8255   -0.9862   18.7249 N.3     1  UNL1       -0.2980
     32 H           6.5986   -0.6482   19.2980 H       1  UNL1        0.1232
     33 C           5.3947   -2.2987   19.3095 C.3     1  UNL1        0.0590
     34 C           5.2477   -2.4460   20.7950 C.3     1  UNL1        0.0478
     35 C           4.8169   -3.7585   21.3796 C.3     1  UNL1        0.1435
     36 O           4.5331   -4.9237   20.4787 O.3     1  UNL1       -0.3537
     37 C           4.6800   -4.7765   18.9931 C.3     1  UNL1        0.1435
     38 C           5.1108   -3.4639   18.4085 C.3     1  UNL1        0.0478
@<TRIPOS>BOND
     1    29    30    1
     2    30    23    1
     3    23    24   ar
     4    24    25   ar
     5    25    26   ar
     6    26    17    1
     7    17    18   ar
     8    18    19   ar
     9    19    20   ar
    10    20    13    1
    11    13    14    2
    12    13    15   am
    13    15    16    1
    14     1    15    1
    15     1     2    1
    16     2     3    1
    17     3     4    1
    18     4     5   am
    19     5     6    2
    20     5     7   am
    21     7     8    1
    22     8     9    1
    23     9    10    1
    24    10    31    1
    25    31    33    1
    26    33    34    1
    27    34    35    1
    28    35    36    1
    29    36    37    1
    30    37    38    1
    31    10    11    1
    32     4    12    1
    33    20    21   ar
    34    21    22   ar
    35    26    27   ar
    36    27    28   ar
    37    28    23   ar
    38    22    17   ar
    39    12     1    1
    40    11     7    1
    41    38    33    1
    42    31    32    1
@<TRIPOS>MOLECULE
*****
 38 42 0 0 0
SMALL
GASTEIGER

@<TRIPOS>ATOM
      1 C           6.9238   -1.7528   30.5137 C.3     1  UNL1        0.0972
      2 C           7.2330   -0.7623   29.4305 C.3     1  UNL1        0.0431
      3 C           7.1419   -1.4729   28.1127 C.3     1  UNL1        0.0968
      4 N           6.7764   -2.9027   28.3814 N.am    1  UNL1       -0.2623
      5 C           6.5801   -3.9718   27.3477 C.2     1  UNL1        0.3073
      6 O           6.2142   -5.3642   27.7690 O.2     1  UNL1       -0.2523
      7 N           6.7498   -3.6486   25.8928 N.am    1  UNL1       -0.2626
      8 C           7.1121   -2.3088   25.3238 C.3     1  UNL1        0.0964
      9 C           7.1731   -2.4405   23.8308 C.3     1  UNL1        0.0390
     10 C           6.8485   -3.8616   23.4772 C.3     1  UNL1        0.0758
     11 C           6.5869   -4.6083   24.7516 C.3     1  UNL1        0.1106
     12 C           6.6416   -3.0756   29.8653 C.3     1  UNL1        0.1147
     13 C           5.7851   -0.6603   32.5776 C.2     1  UNL1        0.2491
     14 O           5.7621   -0.3776   34.0505 O.2     1  UNL1       -0.2699
     15 N           6.9008   -1.4701   31.9867 N.am    1  UNL1       -0.2742
     16 C           7.9937   -1.9972   32.8686 C.3     1  UNL1        0.1152
     17 C           2.5066    0.9211   29.9317 C.ar    1  UNL1        0.0000
     18 C           2.4347   -0.4817   30.4580 C.ar    1  UNL1        0.0001
     19 C           3.5275   -1.0088   31.3400 C.ar    1  UNL1        0.0045
     20 C           4.6922   -0.1332   31.6957 C.ar    1  UNL1        0.0536
     21 C           4.7641    1.2696   31.1694 C.ar    1  UNL1        0.0045
     22 C           3.6713    1.7967   30.2874 C.ar    1  UNL1        0.0001
     23 C          -0.7720    2.5024   27.2859 C.ar    1  UNL1       -0.0222
     24 C          -0.6686    1.0301   27.5535 C.ar    1  UNL1       -0.0043
     25 C           0.4242    0.5030   28.4354 C.ar    1  UNL1       -0.0003
     26 C           1.4137    1.4482   29.0498 C.ar    1  UNL1       -0.0000
     27 C           1.3104    2.9205   28.7822 C.ar    1  UNL1       -0.0003
     28 C           0.2175    3.4476   27.9002 C.ar    1  UNL1       -0.0043
     29 C          -1.6379    3.1636   24.9273 C.3     1  UNL1        0.0050
     30 C          -1.8648    3.0295   26.4039 C.3     1  UNL1        0.0264
     31 N           6.7950   -4.4355   22.0924 N.3     1  UNL1       -0.2980
     32 H           6.3673   -5.3580   22.1722 H       1  UNL1        0.1232
     33 C           6.0572   -3.7085   21.0074 C.3     1  UNL1        0.0590
     34 C           4.5573   -3.6970   20.9981 C.3     1  UNL1        0.0478
     35 C           3.8195   -2.9700   19.9131 C.3     1  UNL1        0.1435
     36 O           4.5816   -2.2546   18.8373 O.3     1  UNL1       -0.3537
     37 C           6.0816   -2.2662   18.8465 C.3     1  UNL1        0.1435
     38 C           6.8194   -2.9931   19.9315 C.3     1  UNL1        0.0478
@<TRIPOS>BOND
     1    29    30    1
     2    30    23    1
     3    23    24   ar
     4    24    25   ar
     5    25    26   ar
     6    26    17    1
     7    17    18   ar
     8    18    19   ar
     9    19    20   ar
    10    20    13    1
    11    13    14    2
    12    13    15   am
    13    15    16    1
    14     1    15    1
    15     1     2    1
    16     2     3    1
    17     3     4    1
    18     4     5   am
    19     5     6    2
    20     5     7   am
    21     7     8    1
    22     8     9    1
    23     9    10    1
    24    10    31    1
    25    31    33    1
    26    33    34    1
    27    34    35    1
    28    35    36    1
    29    36    37    1
    30    37    38    1
    31    10    11    1
    32     4    12    1
    33    20    21   ar
    34    21    22   ar
    35    26    27   ar
    36    27    28   ar
    37    28    23   ar
    38    22    17   ar
    39    12     1    1
    40    11     7    1
    41    38    33    1
    42    31    32    1
