@<TRIPOS>MOLECULE
*****
 32 34 0 0 0
SMALL
GASTEIGER

@<TRIPOS>ATOM
      1 C          -9.6898  -19.2961   21.1347 C.ar    1  UNL1        0.0503
      2 C          -8.2889  -18.7609   21.1640 C.ar    1  UNL1        0.0166
      3 C          -7.3870  -18.9551   19.9813 C.ar    1  UNL1        0.0505
      4 C          -7.8860  -19.6846   18.7693 C.ar    1  UNL1        0.0170
      5 C          -9.2870  -20.2199   18.7401 C.ar    1  UNL1        0.0307
      6 C         -10.1888  -20.0256   19.9228 C.ar    1  UNL1        0.1401
      7 F         -11.5898  -20.5609   19.8935 F       1  UNL1       -0.2044
      8 C          -9.7903  -20.2779   22.7914 C.3     1  UNL1        0.0581
      9 C         -10.5918  -19.1019   22.3174 C.3     1  UNL1        0.1956
     10 C         -11.0801  -17.9934   21.4327 C.3     1  UNL1        0.0597
     11 C         -12.1919  -17.0991   21.8953 C.3     1  UNL1        0.0837
     12 C         -12.8155  -17.3133   23.2427 C.3     1  UNL1        0.3553
     13 F         -13.7174  -17.1192   24.4254 F       1  UNL1       -0.1914
     14 F         -13.6170  -16.1373   22.7687 F       1  UNL1       -0.1914
     15 C         -12.3272  -18.4218   24.1274 C.2     1  UNL1        0.3504
     16 N         -12.9508  -18.6360   25.4747 N.pl3   1  UNL1       -0.2456
     17 N         -11.2154  -19.3161   23.6648 N.2     1  UNL1       -0.0692
     18 H         -13.6806  -18.0491   25.7783 H       1  UNL1        0.2883
     19 H         -12.6303  -19.3636   26.0554 H       1  UNL1        0.2883
     20 N          -5.9860  -18.4199   20.0105 N.am    1  UNL1       -0.2791
     21 C          -4.8241  -19.3642   20.1002 C.2     1  UNL1        0.2688
     22 O          -5.0632  -20.8439   20.1608 O.2     1  UNL1       -0.2681
     23 H          -5.8292  -17.4487   19.9707 H       1  UNL1        0.1552
     24 C          -3.4232  -18.8290   20.1295 C.ar    1  UNL1        0.1541
     25 C          -2.4714  -19.2767   21.1990 C.ar    1  UNL1        0.1258
     26 N          -1.0704  -18.7414   21.2281 N.ar    1  UNL1       -0.2070
     27 C          -0.6212  -17.7586   20.1878 C.ar    1  UNL1        0.2469
     28 C          -1.5730  -17.3110   19.1183 C.ar    1  UNL1        0.1566
     29 N          -2.9739  -17.8462   19.0891 N.ar    1  UNL1       -0.2328
     30 O           0.7797  -17.2234   20.2170 O.3     1  UNL1       -0.4265
     31 C           1.8626  -17.9939   20.9126 C.3     1  UNL1        0.4044
     32 F           3.1513  -17.3166   21.2739 F       1  UNL1       -0.1809
@<TRIPOS>BOND
     1     9     8    1
     2     9     1    1
     3     1     2   ar
     4     2     3   ar
     5     3    20    1
     6    20    21   am
     7    21    22    2
     8    21    24    1
     9    24    25   ar
    10    25    26   ar
    11    26    27   ar
    12    27    30    1
    13    30    31    1
    14    31    32    1
    15    27    28   ar
    16    28    29   ar
    17     3     4   ar
    18     4     5   ar
    19     5     6   ar
    20     6     7    1
    21     9    10    1
    22    10    11    1
    23    11    12    1
    24    12    13    1
    25    12    14    1
    26    12    15    1
    27    15    16    1
    28    15    17    2
    29    17     9    1
    30     6     1   ar
    31    29    24   ar
    32    20    23    1
    33    16    18    1
    34    16    19    1
@<TRIPOS>MOLECULE
*****
 32 34 0 0 0
SMALL
GASTEIGER

@<TRIPOS>ATOM
      1 C           3.2091    0.6366   18.4950 C.ar    1  UNL1        0.0503
      2 C           1.7644    1.0281   18.5920 C.ar    1  UNL1        0.0166
      3 C           1.3769    2.4770   18.5694 C.ar    1  UNL1        0.0505
      4 C           2.4341    3.5343   18.4499 C.ar    1  UNL1        0.0170
      5 C           3.8788    3.1428   18.3529 C.ar    1  UNL1        0.0307
      6 C           4.2663    1.6939   18.3755 C.ar    1  UNL1        0.1401
      7 F           5.7111    1.3023   18.2785 F       1  UNL1       -0.2044
      8 C           3.6175   -0.5601   17.0390 C.3     1  UNL1        0.0581
      9 C           3.5967   -0.8124   18.5176 C.3     1  UNL1        0.1956
     10 C           3.4413   -0.5614   19.9882 C.3     1  UNL1        0.0597
     11 C           3.6806   -1.6717   20.9679 C.3     1  UNL1        0.0837
     12 C           4.0754   -3.0330   20.4770 C.3     1  UNL1        0.3553
     13 F           4.4630   -4.4819   20.4995 F       1  UNL1       -0.1914
     14 F           4.0546   -3.2853   21.9555 F       1  UNL1       -0.1914
     15 C           4.2308   -3.2840   19.0063 C.2     1  UNL1        0.3504
     16 N           4.6256   -4.6453   18.5154 N.pl3   1  UNL1       -0.2456
     17 N           3.9915   -2.1737   18.0266 N.2     1  UNL1       -0.0692
     18 H           4.7827   -5.3741   19.1584 H       1  UNL1        0.2883
     19 H           4.7276   -4.8100   17.5501 H       1  UNL1        0.2883
     20 N          -0.0679    2.8686   18.6664 N.am    1  UNL1       -0.2791
     21 C          -0.7501    2.8938   20.0021 C.2     1  UNL1        0.2688
     22 O           0.0125    2.5274   21.2407 O.2     1  UNL1       -0.2681
     23 H          -0.5684    3.1091   17.8534 H       1  UNL1        0.1552
     24 C          -2.1948    3.2853   20.0991 C.ar    1  UNL1        0.1541
     25 C          -2.8519    4.0149   18.9651 C.ar    1  UNL1        0.1258
     26 N          -4.2967    4.4065   19.0622 N.ar    1  UNL1       -0.2070
     27 C          -5.0842    4.0685   20.2932 C.ar    1  UNL1        0.2469
     28 C          -4.4271    3.3389   21.4272 C.ar    1  UNL1        0.1566
     29 N          -2.9824    2.9473   21.3301 N.ar    1  UNL1       -0.2328
     30 O          -6.5289    4.4601   20.3902 O.3     1  UNL1       -0.4265
     31 C          -7.0806    4.9768   21.6858 C.3     1  UNL1        0.4044
     32 F          -7.4890    4.0164   22.7633 F       1  UNL1       -0.1809
@<TRIPOS>BOND
     1     9     8    1
     2     9     1    1
     3     1     2   ar
     4     2     3   ar
     5     3    20    1
     6    20    21   am
     7    21    22    2
     8    21    24    1
     9    24    25   ar
    10    25    26   ar
    11    26    27   ar
    12    27    30    1
    13    30    31    1
    14    31    32    1
    15    27    28   ar
    16    28    29   ar
    17     3     4   ar
    18     4     5   ar
    19     5     6   ar
    20     6     7    1
    21     9    10    1
    22    10    11    1
    23    11    12    1
    24    12    13    1
    25    12    14    1
    26    12    15    1
    27    15    16    1
    28    15    17    2
    29    17     9    1
    30     6     1   ar
    31    29    24   ar
    32    20    23    1
    33    16    18    1
    34    16    19    1
@<TRIPOS>MOLECULE
*****
 32 34 0 0 0
SMALL
GASTEIGER

@<TRIPOS>ATOM
      1 C         -11.9533   -6.0229   18.3251 C.ar    1  UNL1        0.0503
      2 C         -12.2915   -4.6344   17.8693 C.ar    1  UNL1        0.0166
      3 C         -11.2806   -3.5343   18.0026 C.ar    1  UNL1        0.0505
      4 C          -9.9316   -3.8226   18.5916 C.ar    1  UNL1        0.0170
      5 C          -9.5934   -5.2111   19.0473 C.ar    1  UNL1        0.0307
      6 C         -10.6043   -6.3112   18.9141 C.ar    1  UNL1        0.1401
      7 F         -10.2662   -7.6998   19.3698 F       1  UNL1       -0.2044
      8 C         -11.8736   -7.6638   17.3153 C.3     1  UNL1        0.0581
      9 C         -12.9642   -7.1231   18.1918 C.3     1  UNL1        0.1956
     10 C         -13.7037   -6.2003   19.1146 C.3     1  UNL1        0.0597
     11 C         -15.0753   -6.5655   19.5997 C.3     1  UNL1        0.0837
     12 C         -15.7074   -7.8535   19.1620 C.3     1  UNL1        0.3553
     13 F         -16.7182   -8.9537   19.0287 F       1  UNL1       -0.1914
     14 F         -16.7980   -7.3127   20.0385 F       1  UNL1       -0.1914
     15 C         -14.9679   -8.7763   18.2392 C.2     1  UNL1        0.3504
     16 N         -15.6000  -10.0643   17.8015 N.pl3   1  UNL1       -0.2456
     17 N         -13.5963   -8.4111   17.7541 N.2     1  UNL1       -0.0692
     18 H         -16.5003  -10.3040   18.1199 H       1  UNL1        0.2883
     19 H         -15.1147  -10.6699   17.1959 H       1  UNL1        0.2883
     20 N         -11.6188   -2.1457   17.5468 N.am    1  UNL1       -0.2791
     21 C         -12.5699   -1.3049   18.3458 C.2     1  UNL1        0.2688
     22 O         -13.1829   -1.8526   19.6005 O.2     1  UNL1       -0.2681
     23 H         -11.2165   -1.7862   16.7233 H       1  UNL1        0.1552
     24 C         -12.9081    0.0836   17.8901 C.ar    1  UNL1        0.1541
     25 C         -11.8366    0.9704   17.3283 C.ar    1  UNL1        0.1258
     26 N         -12.1749    2.3589   16.8725 N.ar    1  UNL1       -0.2070
     27 C         -13.5844    2.8606   16.9787 C.ar    1  UNL1        0.2469
     28 C         -14.6559    1.9739   17.5406 C.ar    1  UNL1        0.1566
     29 N         -14.3177    0.5854   17.9963 N.ar    1  UNL1       -0.2328
     30 O         -13.9226    4.2491   16.5230 O.3     1  UNL1       -0.4265
     31 C         -12.8475    5.2911   16.4314 C.3     1  UNL1        0.4044
     32 F         -11.9816    5.5819   17.6213 F       1  UNL1       -0.1809
@<TRIPOS>BOND
     1     9     8    1
     2     9     1    1
     3     1     2   ar
     4     2     3   ar
     5     3    20    1
     6    20    21   am
     7    21    22    2
     8    21    24    1
     9    24    25   ar
    10    25    26   ar
    11    26    27   ar
    12    27    30    1
    13    30    31    1
    14    31    32    1
    15    27    28   ar
    16    28    29   ar
    17     3     4   ar
    18     4     5   ar
    19     5     6   ar
    20     6     7    1
    21     9    10    1
    22    10    11    1
    23    11    12    1
    24    12    13    1
    25    12    14    1
    26    12    15    1
    27    15    16    1
    28    15    17    2
    29    17     9    1
    30     6     1   ar
    31    29    24   ar
    32    20    23    1
    33    16    18    1
    34    16    19    1
@<TRIPOS>MOLECULE
*****
 32 34 0 0 0
SMALL
GASTEIGER

@<TRIPOS>ATOM
      1 C           3.1887    0.0323   21.6564 C.ar    1  UNL1        0.0503
      2 C           3.2842   -0.3723   23.0976 C.ar    1  UNL1        0.0166
      3 C           2.3119    0.1797   24.0975 C.ar    1  UNL1        0.0505
      4 C           1.2441    1.1362   23.6562 C.ar    1  UNL1        0.0170
      5 C           1.1486    1.5408   22.2150 C.ar    1  UNL1        0.0307
      6 C           2.1209    0.9888   21.2151 C.ar    1  UNL1        0.1401
      7 F           2.0254    1.3934   19.7738 F       1  UNL1       -0.2044
      8 C           4.8624    0.7537   21.0262 C.3     1  UNL1        0.0581
      9 C           4.1611   -0.5197   20.6564 C.3     1  UNL1        0.1956
     10 C           3.1221   -1.6013   20.6338 C.3     1  UNL1        0.0597
     11 C           3.2990   -2.7926   19.7397 C.3     1  UNL1        0.0837
     12 C           4.5149   -2.9023   18.8682 C.3     1  UNL1        0.3553
     13 F           5.4873   -3.4542   17.8683 F       1  UNL1       -0.1914
     14 F           3.8136   -4.1757   18.4983 F       1  UNL1       -0.1914
     15 C           5.5539   -1.8207   18.8908 C.2     1  UNL1        0.3504
     16 N           6.7698   -1.9304   18.0192 N.pl3   1  UNL1       -0.2456
     17 N           5.3770   -0.6294   19.7848 N.2     1  UNL1       -0.0692
     18 H           6.8859   -2.7123   17.4324 H       1  UNL1        0.2883
     19 H           7.4518   -1.2205   18.0340 H       1  UNL1        0.2883
     20 N           2.4074   -0.2249   25.5388 N.am    1  UNL1       -0.2791
     21 C           2.9008    0.7550   26.5617 C.2     1  UNL1        0.2688
     22 O           3.2987    2.1395   26.1433 O.2     1  UNL1       -0.2681
     23 H           2.1462   -1.1336   25.8134 H       1  UNL1        0.1552
     24 C           2.9963    0.3505   28.0029 C.ar    1  UNL1        0.1541
     25 C           1.7983   -0.2196   28.7029 C.ar    1  UNL1        0.1258
     26 N           1.8939   -0.6241   30.1442 N.ar    1  UNL1       -0.2070
     27 C           3.1873   -0.4585   30.8855 C.ar    1  UNL1        0.2469
     28 C           4.3853    0.1115   30.1856 C.ar    1  UNL1        0.1566
     29 N           4.2898    0.5160   28.7443 N.ar    1  UNL1       -0.2328
     30 O           3.2828   -0.8630   32.3267 O.3     1  UNL1       -0.4265
     31 C           3.7805    0.1154   33.3490 C.3     1  UNL1        0.4044
     32 F           2.8843    1.2177   33.8307 F       1  UNL1       -0.1809
@<TRIPOS>BOND
     1     9     8    1
     2     9     1    1
     3     1     2   ar
     4     2     3   ar
     5     3    20    1
     6    20    21   am
     7    21    22    2
     8    21    24    1
     9    24    25   ar
    10    25    26   ar
    11    26    27   ar
    12    27    30    1
    13    30    31    1
    14    31    32    1
    15    27    28   ar
    16    28    29   ar
    17     3     4   ar
    18     4     5   ar
    19     5     6   ar
    20     6     7    1
    21     9    10    1
    22    10    11    1
    23    11    12    1
    24    12    13    1
    25    12    14    1
    26    12    15    1
    27    15    16    1
    28    15    17    2
    29    17     9    1
    30     6     1   ar
    31    29    24   ar
    32    20    23    1
    33    16    18    1
    34    16    19    1
@<TRIPOS>MOLECULE
*****
 32 34 0 0 0
SMALL
GASTEIGER

@<TRIPOS>ATOM
      1 C          -8.4218  -16.3259   24.5418 C.ar    1  UNL1        0.0503
      2 C          -7.1609  -16.5230   23.7536 C.ar    1  UNL1        0.0166
      3 C          -5.8544  -16.0180   24.2900 C.ar    1  UNL1        0.0505
      4 C          -5.8087  -15.3158   25.6148 C.ar    1  UNL1        0.0170
      5 C          -7.0696  -15.1187   26.4030 C.ar    1  UNL1        0.0307
      6 C          -8.3761  -15.6237   25.8665 C.ar    1  UNL1        0.1401
      7 F          -9.6370  -15.4266   26.6547 F       1  UNL1       -0.2044
      8 C          -9.6564  -17.6057   25.2878 C.3     1  UNL1        0.0581
      9 C          -9.7284  -16.8310   24.0053 C.3     1  UNL1        0.1956
     10 C          -9.3466  -15.8809   22.9092 C.3     1  UNL1        0.0597
     11 C         -10.2464  -15.7049   21.7220 C.3     1  UNL1        0.0837
     12 C         -11.5280  -16.4790   21.6310 C.3     1  UNL1        0.3553
     13 F         -12.8346  -16.9841   21.0946 F       1  UNL1       -0.1914
     14 F         -11.6000  -15.7043   20.3485 F       1  UNL1       -0.1914
     15 C         -11.9098  -17.4291   22.7271 C.2     1  UNL1        0.3504
     16 N         -13.1914  -18.2032   22.6361 N.pl3   1  UNL1       -0.2456
     17 N         -11.0100  -17.6051   23.9143 N.2     1  UNL1       -0.0692
     18 H         -13.7820  -18.0877   21.8569 H       1  UNL1        0.2883
     19 H         -13.4420  -18.8268   23.3555 H       1  UNL1        0.2883
     20 N          -4.5935  -16.2151   23.5018 N.am    1  UNL1       -0.2791
     21 C          -4.3603  -17.5034   22.7698 C.2     1  UNL1        0.2688
     22 O          -5.3880  -18.5946   22.8260 O.2     1  UNL1       -0.2681
     23 H          -3.9190  -15.4989   23.4649 H       1  UNL1        0.1552
     24 C          -3.0994  -17.7006   21.9816 C.ar    1  UNL1        0.1541
     25 C          -2.5742  -19.0848   21.7407 C.ar    1  UNL1        0.1258
     26 N          -1.3132  -19.2819   20.9524 N.ar    1  UNL1       -0.2070
     27 C          -0.5776  -18.0948   20.4051 C.ar    1  UNL1        0.2469
     28 C          -1.1028  -16.7106   20.6460 C.ar    1  UNL1        0.1566
     29 N          -2.3637  -16.5134   21.4342 N.ar    1  UNL1       -0.2328
     30 O           0.6832  -18.2920   19.6169 O.3     1  UNL1       -0.4265
     31 C           1.8741  -17.4175   19.8759 C.3     1  UNL1        0.4044
     32 F           2.6652  -17.5826   21.1397 F       1  UNL1       -0.1809
@<TRIPOS>BOND
     1     9     8    1
     2     9     1    1
     3     1     2   ar
     4     2     3   ar
     5     3    20    1
     6    20    21   am
     7    21    22    2
     8    21    24    1
     9    24    25   ar
    10    25    26   ar
    11    26    27   ar
    12    27    30    1
    13    30    31    1
    14    31    32    1
    15    27    28   ar
    16    28    29   ar
    17     3     4   ar
    18     4     5   ar
    19     5     6   ar
    20     6     7    1
    21     9    10    1
    22    10    11    1
    23    11    12    1
    24    12    13    1
    25    12    14    1
    26    12    15    1
    27    15    16    1
    28    15    17    2
    29    17     9    1
    30     6     1   ar
    31    29    24   ar
    32    20    23    1
    33    16    18    1
    34    16    19    1
@<TRIPOS>MOLECULE
*****
 32 34 0 0 0
SMALL
GASTEIGER

@<TRIPOS>ATOM
      1 C           7.2978   -3.0551   30.4534 C.ar    1  UNL1        0.0503
      2 C           6.6041   -3.0759   29.1236 C.ar    1  UNL1        0.0166
      3 C           6.9429   -4.1355   28.1175 C.ar    1  UNL1        0.0505
      4 C           7.9756   -5.1743   28.4410 C.ar    1  UNL1        0.0170
      5 C           8.6693   -5.1534   29.7708 C.ar    1  UNL1        0.0307
      6 C           8.3305   -4.0939   30.7769 C.ar    1  UNL1        0.1401
      7 F           9.0242   -4.0730   32.1067 F       1  UNL1       -0.2044
      8 C           8.0810   -1.3152   30.7327 C.3     1  UNL1        0.0581
      9 C           6.9590   -1.9955   31.4596 C.3     1  UNL1        0.1956
     10 C           5.9547   -3.0438   31.8370 C.3     1  UNL1        0.0597
     11 C           5.0013   -2.7962   32.9682 C.3     1  UNL1        0.0837
     12 C           5.0521   -1.5003   33.7220 C.3     1  UNL1        0.3553
     13 F           4.7133   -0.4407   34.7282 F       1  UNL1       -0.1914
     14 F           3.9301   -2.1807   34.4489 F       1  UNL1       -0.1914
     15 C           6.0564   -0.4520   33.3446 C.2     1  UNL1        0.3504
     16 N           6.1072    0.8439   34.0984 N.pl3   1  UNL1       -0.2456
     17 N           7.0098   -0.6996   32.2134 N.2     1  UNL1       -0.0692
     18 H           5.4814    1.0063   34.8408 H       1  UNL1        0.2883
     19 H           6.7663    1.5319   33.8506 H       1  UNL1        0.2883
     20 N           6.2492   -4.1564   26.7877 N.am    1  UNL1       -0.2791
     21 C           6.8683   -3.4674   25.6078 C.2     1  UNL1        0.2688
     22 O           8.1812   -2.7575   25.7578 O.2     1  UNL1       -0.2681
     23 H           5.3875   -4.6223   26.6892 H       1  UNL1        0.1552
     24 C           6.1746   -3.4882   24.2781 C.ar    1  UNL1        0.1541
     25 C           6.7073   -4.3445   23.1676 C.ar    1  UNL1        0.1258
     26 N           6.0135   -4.3653   21.8378 N.ar    1  UNL1       -0.2070
     27 C           4.7872   -3.5299   21.6185 C.ar    1  UNL1        0.2469
     28 C           4.2546   -2.6736   22.7290 C.ar    1  UNL1        0.1566
     29 N           4.9482   -2.6528   24.0587 N.ar    1  UNL1       -0.2328
     30 O           4.0935   -3.5507   20.2887 O.3     1  UNL1       -0.4265
     31 C           4.8855   -3.7642   19.0329 C.3     1  UNL1        0.4044
     32 F           4.7975   -5.0723   18.3040 F       1  UNL1       -0.1809
@<TRIPOS>BOND
     1     9     8    1
     2     9     1    1
     3     1     2   ar
     4     2     3   ar
     5     3    20    1
     6    20    21   am
     7    21    22    2
     8    21    24    1
     9    24    25   ar
    10    25    26   ar
    11    26    27   ar
    12    27    30    1
    13    30    31    1
    14    31    32    1
    15    27    28   ar
    16    28    29   ar
    17     3     4   ar
    18     4     5   ar
    19     5     6   ar
    20     6     7    1
    21     9    10    1
    22    10    11    1
    23    11    12    1
    24    12    13    1
    25    12    14    1
    26    12    15    1
    27    15    16    1
    28    15    17    2
    29    17     9    1
    30     6     1   ar
    31    29    24   ar
    32    20    23    1
    33    16    18    1
    34    16    19    1
@<TRIPOS>MOLECULE
*****
 32 34 0 0 0
SMALL
GASTEIGER

@<TRIPOS>ATOM
      1 C          -1.4929    4.1610   21.6860 C.ar    1  UNL1        0.0503
      2 C          -0.6541    2.9456   21.4228 C.ar    1  UNL1        0.0166
      3 C           0.7539    3.0988   20.9288 C.ar    1  UNL1        0.0505
      4 C           1.3231    4.4672   20.6981 C.ar    1  UNL1        0.0170
      5 C           0.4844    5.6826   20.9614 C.ar    1  UNL1        0.0307
      6 C          -0.9236    5.5295   21.4553 C.ar    1  UNL1        0.1401
      7 F          -1.7625    6.7448   21.7186 F       1  UNL1       -0.2044
      8 C          -3.1513    4.0996   20.7039 C.3     1  UNL1        0.0581
      9 C          -2.9010    4.0079   22.1800 C.3     1  UNL1        0.1956
     10 C          -2.1617    3.9693   23.4846 C.3     1  UNL1        0.0597
     11 C          -2.9173    3.8096   24.7704 C.3     1  UNL1        0.0837
     12 C          -4.4123    3.6883   24.7517 C.3     1  UNL1        0.3553
     13 F          -5.8203    3.5352   25.2456 F       1  UNL1       -0.1914
     14 F          -4.1620    3.5966   26.2279 F       1  UNL1       -0.1914
     15 C          -5.1516    3.7268   23.4472 C.2     1  UNL1        0.3504
     16 N          -6.6466    3.6056   23.4284 N.pl3   1  UNL1       -0.2456
     17 N          -4.3960    3.8866   22.1613 N.2     1  UNL1       -0.0692
     18 H          -7.1426    3.5007   24.2724 H       1  UNL1        0.2883
     19 H          -7.1318    3.6309   22.5722 H       1  UNL1        0.2883
     20 N           1.5928    1.8834   20.6656 N.am    1  UNL1       -0.2791
     21 C           1.5578    1.2255   19.3180 C.2     1  UNL1        0.2688
     22 O           0.6840    1.7831   18.2337 O.2     1  UNL1       -0.2681
     23 H           2.1663    1.5175   21.3772 H       1  UNL1        0.1552
     24 C           2.3966    0.0102   19.0547 C.ar    1  UNL1        0.1541
     25 C           2.3832   -1.1347   20.0237 C.ar    1  UNL1        0.1258
     26 N           3.2220   -2.3501   19.7603 N.ar    1  UNL1       -0.2070
     27 C           4.0742   -2.4205   18.5280 C.ar    1  UNL1        0.2469
     28 C           4.0877   -1.2756   17.5589 C.ar    1  UNL1        0.1566
     29 N           3.2489   -0.0603   17.8223 N.ar    1  UNL1       -0.2328
     30 O           4.9130   -3.6358   18.2647 O.3     1  UNL1       -0.4265
     31 C           4.6885   -4.8885   19.0586 C.3     1  UNL1        0.4044
     32 F           3.2922   -5.3680   19.3241 F       1  UNL1       -0.1809
@<TRIPOS>BOND
     1     9     8    1
     2     9     1    1
     3     1     2   ar
     4     2     3   ar
     5     3    20    1
     6    20    21   am
     7    21    22    2
     8    21    24    1
     9    24    25   ar
    10    25    26   ar
    11    26    27   ar
    12    27    30    1
    13    30    31    1
    14    31    32    1
    15    27    28   ar
    16    28    29   ar
    17     3     4   ar
    18     4     5   ar
    19     5     6   ar
    20     6     7    1
    21     9    10    1
    22    10    11    1
    23    11    12    1
    24    12    13    1
    25    12    14    1
    26    12    15    1
    27    15    16    1
    28    15    17    2
    29    17     9    1
    30     6     1   ar
    31    29    24   ar
    32    20    23    1
    33    16    18    1
    34    16    19    1
@<TRIPOS>MOLECULE
*****
 32 34 0 0 0
SMALL
GASTEIGER

@<TRIPOS>ATOM
      1 C           2.8508    0.5984   20.5504 C.ar    1  UNL1        0.0503
      2 C           1.4098    0.8793   20.8583 C.ar    1  UNL1        0.0166
      3 C           1.0112    2.2043   21.4375 C.ar    1  UNL1        0.0505
      4 C           2.0534    3.2484   21.7088 C.ar    1  UNL1        0.0170
      5 C           3.4943    2.9675   21.4009 C.ar    1  UNL1        0.0307
      6 C           3.8930    1.6426   20.8217 C.ar    1  UNL1        0.1401
      7 F           5.3340    1.3616   20.5138 F       1  UNL1       -0.2044
      8 C           2.9182    0.0189   18.7124 C.3     1  UNL1        0.0581
      9 C           3.2495   -0.7266   19.9713 C.3     1  UNL1        0.1956
     10 C           3.4423   -1.0118   21.4312 C.3     1  UNL1        0.0597
     11 C           3.9188   -2.3632   21.8748 C.3     1  UNL1        0.0837
     12 C           4.2025   -3.4293   20.8584 C.3     1  UNL1        0.3553
     13 F           4.6012   -4.7542   20.2792 F       1  UNL1       -0.1914
     14 F           4.5338   -4.1748   22.1172 F       1  UNL1       -0.1914
     15 C           4.0097   -3.1440   19.3985 C.2     1  UNL1        0.3504
     16 N           4.2934   -4.2101   18.3821 N.pl3   1  UNL1       -0.2456
     17 N           3.5332   -1.7927   18.9549 N.2     1  UNL1       -0.0692
     18 H           4.6061   -5.0971   18.6732 H       1  UNL1        0.2883
     19 H           4.1668   -4.0229   17.4238 H       1  UNL1        0.2883
     20 N          -0.4298    2.4852   21.7454 N.am    1  UNL1       -0.2791
     21 C          -1.2737    3.2400   20.7614 C.2     1  UNL1        0.2688
     22 O          -0.6765    3.7139   19.4695 O.2     1  UNL1       -0.2681
     23 H          -0.8217    2.1742   22.5933 H       1  UNL1        0.1552
     24 C          -2.7146    3.5209   21.0693 C.ar    1  UNL1        0.1541
     25 C          -3.1009    4.0776   22.4075 C.ar    1  UNL1        0.1258
     26 N          -4.5419    4.3586   22.7153 N.ar    1  UNL1       -0.2070
     27 C          -5.5965    4.0827   21.6850 C.ar    1  UNL1        0.2469
     28 C          -5.2102    3.5260   20.3468 C.ar    1  UNL1        0.1566
     29 N          -3.7693    3.2451   20.0389 N.ar    1  UNL1       -0.2328
     30 O          -7.0374    4.3637   21.9928 O.3     1  UNL1       -0.4265
     31 C          -7.5059    4.4040   23.4172 C.3     1  UNL1        0.4044
     32 F          -8.8262    3.7972   23.7899 F       1  UNL1       -0.1809
@<TRIPOS>BOND
     1     9     8    1
     2     9     1    1
     3     1     2   ar
     4     2     3   ar
     5     3    20    1
     6    20    21   am
     7    21    22    2
     8    21    24    1
     9    24    25   ar
    10    25    26   ar
    11    26    27   ar
    12    27    30    1
    13    30    31    1
    14    31    32    1
    15    27    28   ar
    16    28    29   ar
    17     3     4   ar
    18     4     5   ar
    19     5     6   ar
    20     6     7    1
    21     9    10    1
    22    10    11    1
    23    11    12    1
    24    12    13    1
    25    12    14    1
    26    12    15    1
    27    15    16    1
    28    15    17    2
    29    17     9    1
    30     6     1   ar
    31    29    24   ar
    32    20    23    1
    33    16    18    1
    34    16    19    1
@<TRIPOS>MOLECULE
*****
 32 34 0 0 0
SMALL
GASTEIGER

@<TRIPOS>ATOM
      1 C           4.0744    2.4000   35.8435 C.ar    1  UNL1        0.0503
      2 C           4.1529    1.3095   34.8167 C.ar    1  UNL1        0.0166
      3 C           5.3309    1.2343   33.8911 C.ar    1  UNL1        0.0505
      4 C           6.4303    2.2497   33.9925 C.ar    1  UNL1        0.0170
      5 C           6.3518    3.3402   35.0194 C.ar    1  UNL1        0.0307
      6 C           5.1738    3.4153   35.9449 C.ar    1  UNL1        0.1401
      7 F           5.0953    4.5059   36.9719 F       1  UNL1       -0.2044
      8 C           2.5711    3.6079   35.8410 C.3     1  UNL1        0.0581
      9 C           2.8963    2.4752   36.7692 C.3     1  UNL1        0.1956
     10 C           3.6306    1.3165   37.3758 C.3     1  UNL1        0.0597
     11 C           3.0740    0.6263   38.5857 C.3     1  UNL1        0.0837
     12 C           1.7831    1.0949   39.1889 C.3     1  UNL1        0.3553
     13 F           0.6051    1.1702   40.1144 F       1  UNL1       -0.1914
     14 F           2.1083   -0.0377   40.1170 F       1  UNL1       -0.1914
     15 C           1.0488    2.2537   38.5823 C.2     1  UNL1        0.3504
     16 N          -0.2422    2.7223   39.1855 N.pl3   1  UNL1       -0.2456
     17 N           1.6054    2.9438   37.3724 N.2     1  UNL1       -0.0692
     18 H          -0.6076    2.2693   39.9796 H       1  UNL1        0.2883
     19 H          -0.7242    3.4828   38.7873 H       1  UNL1        0.2883
     20 N           5.4095    0.1438   32.8642 N.am    1  UNL1       -0.2791
     21 C           6.4467   -0.9324   32.9909 C.2     1  UNL1        0.2688
     22 O           7.4053   -0.9180   34.1445 O.2     1  UNL1       -0.2681
     23 H           4.7803    0.1343   32.1070 H       1  UNL1        0.1552
     24 C           6.5253   -2.0229   31.9640 C.ar    1  UNL1        0.1541
     25 C           6.3517   -1.6979   30.5099 C.ar    1  UNL1        0.1258
     26 N           6.4303   -2.7885   29.4830 N.ar    1  UNL1       -0.2070
     27 C           6.6825   -4.2041   29.9102 C.ar    1  UNL1        0.2469
     28 C           6.8561   -4.5291   31.3642 C.ar    1  UNL1        0.1566
     29 N           6.7774   -3.4386   32.3911 N.ar    1  UNL1       -0.2328
     30 O           6.7611   -5.2946   28.8833 O.3     1  UNL1       -0.4265
     31 C           8.0146   -6.1069   28.7464 C.3     1  UNL1        0.4044
     32 F           7.9308   -7.5603   28.3848 F       1  UNL1       -0.1809
@<TRIPOS>BOND
     1     9     8    1
     2     9     1    1
     3     1     2   ar
     4     2     3   ar
     5     3    20    1
     6    20    21   am
     7    21    22    2
     8    21    24    1
     9    24    25   ar
    10    25    26   ar
    11    26    27   ar
    12    27    30    1
    13    30    31    1
    14    31    32    1
    15    27    28   ar
    16    28    29   ar
    17     3     4   ar
    18     4     5   ar
    19     5     6   ar
    20     6     7    1
    21     9    10    1
    22    10    11    1
    23    11    12    1
    24    12    13    1
    25    12    14    1
    26    12    15    1
    27    15    16    1
    28    15    17    2
    29    17     9    1
    30     6     1   ar
    31    29    24   ar
    32    20    23    1
    33    16    18    1
    34    16    19    1
