@<TRIPOS>MOLECULE
*****
 27 30 0 0 0
SMALL
GASTEIGER

@<TRIPOS>ATOM
      1 C         -10.0949  -20.1731   24.0396 C.ar    1  UNL1        0.0366
      2 C          -8.7656  -20.0805   23.3509 C.ar    1  UNL1       -0.0012
      3 C          -8.1562  -18.7381   23.0741 C.ar    1  UNL1       -0.0223
      4 C          -8.8761  -17.4883   23.4860 C.ar    1  UNL1       -0.0012
      5 C         -10.2054  -17.5809   24.1747 C.ar    1  UNL1        0.0366
      6 C         -10.8148  -18.9233   24.4515 C.ar    1  UNL1        0.1385
      7 C          -6.8269  -18.6455   22.3854 C.3     1  UNL1        0.0224
      8 C          -6.6444  -19.2470   21.0234 C.3     1  UNL1        0.0057
      9 C          -5.3151  -19.1544   20.3346 C.3     1  UNL1        0.0163
     10 C          -4.1682  -18.4605   21.0079 C.3     1  UNL1        0.0575
     11 C          -4.3507  -17.8590   22.3699 C.3     1  UNL1        0.0163
     12 C          -5.6801  -17.9516   23.0586 C.3     1  UNL1        0.0057
     13 N          -2.8390  -18.3679   20.3191 N.3     1  UNL1       -0.2740
     14 C          -1.5040  -18.6644   20.9356 C.3     1  UNL1        0.0721
     15 C          -0.4512  -18.4424   19.8905 C.3     1  UNL1        0.0188
     16 C          -1.1355  -18.0087   18.6280 C.3     1  UNL1        0.0188
     17 C          -2.6112  -17.9627   18.8930 C.3     1  UNL1        0.0721
     18 O         -12.1442  -19.0159   25.1403 O.3     1  UNL1       -0.4754
     19 C         -13.3887  -18.5698   24.4316 C.3     1  UNL1        0.2068
     20 C         -13.3293  -17.4320   23.4560 C.3     1  UNL1        0.0646
     21 C         -13.4357  -17.6999   21.9839 C.3     1  UNL1        0.0759
     22 N         -12.2138  -18.0776   21.2000 N.3     1  UNL1       -0.2726
     23 C         -11.8148  -19.5187   21.0811 C.3     1  UNL1        0.0721
     24 C         -10.5930  -19.8964   20.2973 C.3     1  UNL1        0.0174
     25 C          -9.7702  -18.8330   19.6323 C.3     1  UNL1        0.0029
     26 C         -10.1692  -17.3919   19.7512 C.3     1  UNL1        0.0174
     27 C         -11.3911  -17.0142   20.5351 C.3     1  UNL1        0.0721
@<TRIPOS>BOND
     1     1     2   ar
     2     2     3   ar
     3     7     3    1
     4     7     8    1
     5     8     9    1
     6     9    10    1
     7    10    13    1
     8    13    14    1
     9    14    15    1
    10    15    16    1
    11    16    17    1
    12    10    11    1
    13    11    12    1
    14     3     4   ar
    15     4     5   ar
    16     5     6   ar
    17     6    18    1
    18    18    19    1
    19    19    20    1
    20    20    21    1
    21    21    22    1
    22    22    23    1
    23    23    24    1
    24    24    25    1
    25    25    26    1
    26    26    27    1
    27     6     1   ar
    28    27    22    1
    29    12     7    1
    30    17    13    1
@<TRIPOS>MOLECULE
*****
 27 30 0 0 0
SMALL
GASTEIGER

@<TRIPOS>ATOM
      1 C         -10.2926  -17.5828   24.2042 C.ar    1  UNL1        0.0366
      2 C          -8.9632  -17.4912   23.5157 C.ar    1  UNL1       -0.0012
      3 C          -8.2357  -18.7419   23.1201 C.ar    1  UNL1       -0.0223
      4 C          -8.8377  -20.0842   23.4129 C.ar    1  UNL1       -0.0012
      5 C         -10.1671  -20.1758   24.1014 C.ar    1  UNL1        0.0366
      6 C         -10.8946  -18.9251   24.4970 C.ar    1  UNL1        0.1385
      7 C          -6.9061  -18.6502   22.4315 C.3     1  UNL1        0.0224
      8 C          -5.7800  -17.8948   23.0728 C.3     1  UNL1        0.0057
      9 C          -4.4505  -17.8031   22.3843 C.3     1  UNL1        0.0163
     10 C          -4.2471  -18.4669   21.0546 C.3     1  UNL1        0.0575
     11 C          -5.3732  -19.2223   20.4134 C.3     1  UNL1        0.0163
     12 C          -6.7028  -19.3139   21.1019 C.3     1  UNL1        0.0057
     13 N          -2.9176  -18.3752   20.3662 N.3     1  UNL1       -0.2740
     14 C          -2.6859  -17.9339   18.9514 C.3     1  UNL1        0.0721
     15 C          -1.2115  -17.9947   18.6824 C.3     1  UNL1        0.0188
     16 C          -0.5319  -18.4735   19.9310 C.3     1  UNL1        0.0188
     17 C          -1.5863  -18.7087   20.9716 C.3     1  UNL1        0.0721
     18 O         -12.2242  -19.0167   25.1855 O.3     1  UNL1       -0.4754
     19 C         -13.4596  -18.5117   24.5010 C.3     1  UNL1        0.2068
     20 C         -13.3566  -17.4217   23.4757 C.3     1  UNL1        0.0646
     21 C         -13.4805  -17.7498   22.0173 C.3     1  UNL1        0.0759
     22 N         -12.2586  -18.1009   21.2211 N.3     1  UNL1       -0.2726
     23 C         -11.4887  -17.0246   20.5150 C.3     1  UNL1        0.0721
     24 C         -10.2669  -17.3756   19.7188 C.3     1  UNL1        0.0174
     25 C          -9.8150  -18.8031   19.6288 C.3     1  UNL1        0.0029
     26 C         -10.5850  -19.8795   20.3348 C.3     1  UNL1        0.0174
     27 C         -11.8068  -19.5284   21.1310 C.3     1  UNL1        0.0721
@<TRIPOS>BOND
     1     1     2   ar
     2     2     3   ar
     3     7     3    1
     4     7     8    1
     5     8     9    1
     6     9    10    1
     7    10    13    1
     8    13    14    1
     9    14    15    1
    10    15    16    1
    11    16    17    1
    12    10    11    1
    13    11    12    1
    14     3     4   ar
    15     4     5   ar
    16     5     6   ar
    17     6    18    1
    18    18    19    1
    19    19    20    1
    20    20    21    1
    21    21    22    1
    22    22    23    1
    23    23    24    1
    24    24    25    1
    25    25    26    1
    26    26    27    1
    27     6     1   ar
    28    27    22    1
    29    12     7    1
    30    17    13    1
@<TRIPOS>MOLECULE
*****
 27 30 0 0 0
SMALL
GASTEIGER

@<TRIPOS>ATOM
      1 C          -9.5591  -19.7285   22.9651 C.ar    1  UNL1        0.0366
      2 C          -8.0971  -19.4799   22.7398 C.ar    1  UNL1       -0.0012
      3 C          -7.5946  -19.1563   21.3640 C.ar    1  UNL1       -0.0223
      4 C          -8.5541  -19.0813   20.2135 C.ar    1  UNL1       -0.0012
      5 C         -10.0161  -19.3299   20.4388 C.ar    1  UNL1        0.0366
      6 C         -10.5186  -19.6535   21.8146 C.ar    1  UNL1        0.1385
      7 C          -6.1326  -18.9077   21.1388 C.3     1  UNL1        0.0224
      8 C          -5.2501  -18.5285   22.2909 C.3     1  UNL1        0.0057
      9 C          -3.7881  -18.2799   22.0657 C.3     1  UNL1        0.0163
     10 C          -3.2085  -18.4105   20.6883 C.3     1  UNL1        0.0575
     11 C          -4.0910  -18.7898   19.5362 C.3     1  UNL1        0.0163
     12 C          -5.5531  -19.0384   19.7615 C.3     1  UNL1        0.0057
     13 N          -1.7466  -18.1619   20.4632 N.3     1  UNL1       -0.2740
     14 C          -0.7133  -19.2030   20.1493 C.3     1  UNL1        0.0721
     15 C           0.6107  -18.5131   20.0044 C.3     1  UNL1        0.0188
     16 C           0.3958  -17.0456   20.2288 C.3     1  UNL1        0.0188
     17 C          -1.0611  -16.8286   20.5123 C.3     1  UNL1        0.0721
     18 O         -11.9806  -19.9021   22.0399 O.3     1  UNL1       -0.4754
     19 C         -12.9344  -18.7470   22.1182 C.3     1  UNL1        0.2068
     20 C         -12.6643  -17.6142   23.0635 C.3     1  UNL1        0.0646
     21 C         -11.9562  -16.3844   22.5774 C.3     1  UNL1        0.0759
     22 N         -10.4905  -16.2083   22.8437 N.3     1  UNL1       -0.2726
     23 C          -9.5650  -15.8312   21.7251 C.3     1  UNL1        0.0721
     24 C          -8.0994  -15.6552   21.9912 C.3     1  UNL1        0.0174
     25 C          -7.5592  -15.8562   23.3760 C.3     1  UNL1        0.0029
     26 C          -8.4847  -16.2333   24.4947 C.3     1  UNL1        0.0174
     27 C          -9.9503  -16.4094   24.2285 C.3     1  UNL1        0.0721
@<TRIPOS>BOND
     1     1     2   ar
     2     2     3   ar
     3     7     3    1
     4     7     8    1
     5     8     9    1
     6     9    10    1
     7    10    13    1
     8    13    14    1
     9    14    15    1
    10    15    16    1
    11    16    17    1
    12    10    11    1
    13    11    12    1
    14     3     4   ar
    15     4     5   ar
    16     5     6   ar
    17     6    18    1
    18    18    19    1
    19    19    20    1
    20    20    21    1
    21    21    22    1
    22    22    23    1
    23    23    24    1
    24    24    25    1
    25    25    26    1
    26    26    27    1
    27     6     1   ar
    28    27    22    1
    29    12     7    1
    30    17    13    1
@<TRIPOS>MOLECULE
*****
 27 30 0 0 0
SMALL
GASTEIGER

@<TRIPOS>ATOM
      1 C           4.5556   -2.3638   22.3113 C.ar    1  UNL1        0.0366
      2 C           3.5497   -1.2744   22.0850 C.ar    1  UNL1       -0.0012
      3 C           2.8654   -1.1497   20.7560 C.ar    1  UNL1       -0.0223
      4 C           3.1870   -2.1144   19.6533 C.ar    1  UNL1       -0.0012
      5 C           4.1930   -3.2038   19.8797 C.ar    1  UNL1        0.0366
      6 C           4.8773   -3.3285   21.2086 C.ar    1  UNL1        0.1385
      7 C           1.8594   -0.0602   20.5297 C.3     1  UNL1        0.0224
      8 C           1.1807    0.5886   21.6995 C.3     1  UNL1        0.0057
      9 C           0.1748    1.6780   21.4732 C.3     1  UNL1        0.0163
     10 C          -0.1525    2.1187   20.0772 C.3     1  UNL1        0.0575
     11 C           0.5263    1.4698   18.9074 C.3     1  UNL1        0.0163
     12 C           1.5322    0.3803   19.1337 C.3     1  UNL1        0.0057
     13 N          -1.1584    3.2081   19.8510 N.3     1  UNL1       -0.2740
     14 C          -2.5394    3.2678   20.4335 C.3     1  UNL1        0.0721
     15 C          -3.1945    4.5257   19.9450 C.3     1  UNL1        0.0188
     16 C          -2.2183    5.2434   19.0606 C.3     1  UNL1        0.0188
     17 C          -0.9600    4.4291   19.0025 C.3     1  UNL1        0.0721
     18 O           5.8832   -4.4180   21.4349 O.3     1  UNL1       -0.4754
     19 C           7.2778   -4.2736   20.9018 C.3     1  UNL1        0.2068
     20 C           7.8740   -2.9092   20.7206 C.3     1  UNL1        0.0646
     21 C           7.8708   -2.2630   19.3670 C.3     1  UNL1        0.0759
     22 N           6.9261   -1.1345   19.0768 N.3     1  UNL1       -0.2726
     23 C           6.2902   -1.0179   17.7233 C.3     1  UNL1        0.0721
     24 C           5.3455    0.1105   17.4332 C.3     1  UNL1        0.0174
     25 C           5.0367    1.1223   18.4966 C.3     1  UNL1        0.0029
     26 C           5.6726    1.0057   19.8501 C.3     1  UNL1        0.0174
     27 C           6.6173   -0.1227   20.1402 C.3     1  UNL1        0.0721
@<TRIPOS>BOND
     1     1     2   ar
     2     2     3   ar
     3     7     3    1
     4     7     8    1
     5     8     9    1
     6     9    10    1
     7    10    13    1
     8    13    14    1
     9    14    15    1
    10    15    16    1
    11    16    17    1
    12    10    11    1
    13    11    12    1
    14     3     4   ar
    15     4     5   ar
    16     5     6   ar
    17     6    18    1
    18    18    19    1
    19    19    20    1
    20    20    21    1
    21    21    22    1
    22    22    23    1
    23    23    24    1
    24    24    25    1
    25    25    26    1
    26    26    27    1
    27     6     1   ar
    28    27    22    1
    29    12     7    1
    30    17    13    1
@<TRIPOS>MOLECULE
*****
 27 30 0 0 0
SMALL
GASTEIGER

@<TRIPOS>ATOM
      1 C           7.9971   -1.7387   19.2466 C.ar    1  UNL1        0.0366
      2 C           8.1997   -2.4923   20.5276 C.ar    1  UNL1       -0.0012
      3 C           7.2036   -3.5301   20.9528 C.ar    1  UNL1       -0.0223
      4 C           6.0050   -3.8143   20.0970 C.ar    1  UNL1       -0.0012
      5 C           5.8024   -3.0607   18.8160 C.ar    1  UNL1        0.0366
      6 C           6.7985   -2.0229   18.3908 C.ar    1  UNL1        0.1385
      7 C           7.4062   -4.2837   22.2339 C.3     1  UNL1        0.0224
      8 C           8.4124   -5.3942   22.2996 C.3     1  UNL1        0.0057
      9 C           8.6150   -6.1478   23.5806 C.3     1  UNL1        0.0163
     10 C           7.8114   -5.7909   24.7959 C.3     1  UNL1        0.0575
     11 C           6.8053   -4.6804   24.7302 C.3     1  UNL1        0.0163
     12 C           6.6027   -3.9267   23.4491 C.3     1  UNL1        0.0057
     13 N           8.0141   -6.5445   26.0769 N.3     1  UNL1       -0.2740
     14 C           8.1213   -8.0342   26.2159 C.3     1  UNL1        0.0721
     15 C           8.3186   -8.3511   27.6687 C.3     1  UNL1        0.0188
     16 C           8.3332   -7.0573   28.4276 C.3     1  UNL1        0.0188
     17 C           8.1450   -5.9408   27.4438 C.3     1  UNL1        0.0721
     18 O           6.5959   -1.2693   17.1097 O.3     1  UNL1       -0.4754
     19 C           6.6444    0.2300   17.1058 C.3     1  UNL1        0.2068
     20 C           5.4318    1.0206   17.4985 C.3     1  UNL1        0.0646
     21 C           5.2235    1.4122   18.9314 C.3     1  UNL1        0.0759
     22 N           4.7034    0.4068   19.9157 N.3     1  UNL1       -0.2726
     23 C           5.4421    0.1609   21.1978 C.3     1  UNL1        0.0721
     24 C           4.9222   -0.8445   22.1821 C.3     1  UNL1        0.0174
     25 C           3.6635   -1.6040   21.8842 C.3     1  UNL1        0.0029
     26 C           2.9247   -1.3581   20.6021 C.3     1  UNL1        0.0174
     27 C           3.4447   -0.3527   19.6178 C.3     1  UNL1        0.0721
@<TRIPOS>BOND
     1     1     2   ar
     2     2     3   ar
     3     7     3    1
     4     7     8    1
     5     8     9    1
     6     9    10    1
     7    10    13    1
     8    13    14    1
     9    14    15    1
    10    15    16    1
    11    16    17    1
    12    10    11    1
    13    11    12    1
    14     3     4   ar
    15     4     5   ar
    16     5     6   ar
    17     6    18    1
    18    18    19    1
    19    19    20    1
    20    20    21    1
    21    21    22    1
    22    22    23    1
    23    23    24    1
    24    24    25    1
    25    25    26    1
    26    26    27    1
    27     6     1   ar
    28    27    22    1
    29    12     7    1
    30    17    13    1
@<TRIPOS>MOLECULE
*****
 27 30 0 0 0
SMALL
GASTEIGER

@<TRIPOS>ATOM
      1 C           1.0418   -0.3302   19.7891 C.ar    1  UNL1        0.0366
      2 C           2.0407   -1.2343   20.4485 C.ar    1  UNL1       -0.0012
      3 C           3.4793   -1.1979   20.0253 C.ar    1  UNL1       -0.0223
      4 C           3.9190   -0.2574   18.9427 C.ar    1  UNL1       -0.0012
      5 C           2.9201    0.6467   18.2833 C.ar    1  UNL1        0.0366
      6 C           1.4815    0.6103   18.7065 C.ar    1  UNL1        0.1385
      7 C           4.4782   -2.1020   20.6848 C.3     1  UNL1        0.0224
      8 C           5.7505   -2.4585   19.9748 C.3     1  UNL1        0.0057
      9 C           6.7494   -3.3626   20.6341 C.3     1  UNL1        0.0163
     10 C           6.4759   -3.9103   22.0036 C.3     1  UNL1        0.0575
     11 C           5.2036   -3.5538   22.7136 C.3     1  UNL1        0.0163
     12 C           4.2047   -2.6497   22.0542 C.3     1  UNL1        0.0057
     13 N           7.4748   -4.8143   22.6630 N.3     1  UNL1       -0.2740
     14 C           7.4558   -5.2517   24.0977 C.3     1  UNL1        0.0721
     15 C           8.6373   -6.1475   24.3249 C.3     1  UNL1        0.0188
     16 C           9.3866   -6.2638   23.0305 C.3     1  UNL1        0.0188
     17 C           8.6681   -5.4398   22.0035 C.3     1  UNL1        0.0721
     18 O           0.4826    1.5144   18.0471 O.3     1  UNL1       -0.4754
     19 C           0.1983    2.8680   18.6276 C.3     1  UNL1        0.2068
     20 C          -0.4091    2.9854   19.9941 C.3     1  UNL1        0.0646
     21 C           0.4102    3.5084   21.1366 C.3     1  UNL1        0.0759
     22 N           1.3891    2.6087   21.8311 N.3     1  UNL1       -0.2726
     23 C           2.8450    2.6670   21.4745 C.3     1  UNL1        0.0721
     24 C           3.8239    1.7674   22.1690 C.3     1  UNL1        0.0174
     25 C           3.3470    0.8095   23.2201 C.3     1  UNL1        0.0029
     26 C           1.8911    0.7512   23.5767 C.3     1  UNL1        0.0174
     27 C           0.9122    1.6508   22.8822 C.3     1  UNL1        0.0721
@<TRIPOS>BOND
     1     1     2   ar
     2     2     3   ar
     3     7     3    1
     4     7     8    1
     5     8     9    1
     6     9    10    1
     7    10    13    1
     8    13    14    1
     9    14    15    1
    10    15    16    1
    11    16    17    1
    12    10    11    1
    13    11    12    1
    14     3     4   ar
    15     4     5   ar
    16     5     6   ar
    17     6    18    1
    18    18    19    1
    19    19    20    1
    20    20    21    1
    21    21    22    1
    22    22    23    1
    23    23    24    1
    24    24    25    1
    25    25    26    1
    26    26    27    1
    27     6     1   ar
    28    27    22    1
    29    12     7    1
    30    17    13    1
@<TRIPOS>MOLECULE
*****
 27 30 0 0 0
SMALL
GASTEIGER

@<TRIPOS>ATOM
      1 C           7.0824   -2.2831   19.4806 C.ar    1  UNL1        0.0366
      2 C           7.3584   -2.7322   20.8848 C.ar    1  UNL1       -0.0012
      3 C           6.3076   -3.4760   21.6546 C.ar    1  UNL1       -0.0223
      4 C           4.9808   -3.7706   21.0201 C.ar    1  UNL1       -0.0012
      5 C           4.7048   -3.3215   19.6158 C.ar    1  UNL1        0.0366
      6 C           5.7556   -2.5777   18.8460 C.ar    1  UNL1        0.1385
      7 C           6.5836   -3.9251   23.0590 C.3     1  UNL1        0.0224
      8 C           7.4840   -5.0987   23.3077 C.3     1  UNL1        0.0057
      9 C           7.7601   -5.5479   24.7120 C.3     1  UNL1        0.0163
     10 C           7.1357   -4.8234   25.8676 C.3     1  UNL1        0.0575
     11 C           6.2353   -3.6497   25.6188 C.3     1  UNL1        0.0163
     12 C           5.9593   -3.2006   24.2145 C.3     1  UNL1        0.0057
     13 N           7.4118   -5.2725   27.2719 N.3     1  UNL1       -0.2740
     14 C           6.4557   -5.1982   28.4253 C.3     1  UNL1        0.0721
     15 C           7.1454   -5.7546   29.6356 C.3     1  UNL1        0.0188
     16 C           8.5278   -6.1727   29.2302 C.3     1  UNL1        0.0188
     17 C           8.6924   -5.8748   27.7693 C.3     1  UNL1        0.0721
     18 O           5.4796   -2.1286   17.4417 O.3     1  UNL1       -0.4754
     19 C           4.9529   -0.7476   17.1858 C.3     1  UNL1        0.2068
     20 C           3.4985   -0.4483   17.3984 C.3     1  UNL1        0.0646
     21 C           3.0753    0.4624   18.5126 C.3     1  UNL1        0.0759
     22 N           3.4569    0.1435   19.9278 N.3     1  UNL1       -0.2726
     23 C           2.5070   -0.6131   20.8084 C.3     1  UNL1        0.0721
     24 C           2.8886   -0.9320   22.2235 C.3     1  UNL1        0.0174
     25 C           4.2199   -0.4944   22.7581 C.3     1  UNL1        0.0029
     26 C           5.1698    0.2622   21.8776 C.3     1  UNL1        0.0174
     27 C           4.7883    0.5811   20.4624 C.3     1  UNL1        0.0721
@<TRIPOS>BOND
     1     1     2   ar
     2     2     3   ar
     3     7     3    1
     4     7     8    1
     5     8     9    1
     6     9    10    1
     7    10    13    1
     8    13    14    1
     9    14    15    1
    10    15    16    1
    11    16    17    1
    12    10    11    1
    13    11    12    1
    14     3     4   ar
    15     4     5   ar
    16     5     6   ar
    17     6    18    1
    18    18    19    1
    19    19    20    1
    20    20    21    1
    21    21    22    1
    22    22    23    1
    23    23    24    1
    24    24    25    1
    25    25    26    1
    26    26    27    1
    27     6     1   ar
    28    27    22    1
    29    12     7    1
    30    17    13    1
@<TRIPOS>MOLECULE
*****
 27 30 0 0 0
SMALL
GASTEIGER

@<TRIPOS>ATOM
      1 C           0.8208   -0.1995   20.0840 C.ar    1  UNL1        0.0366
      2 C           1.9561   -1.1318   20.3869 C.ar    1  UNL1       -0.0012
      3 C           2.7226   -0.9888   21.6683 C.ar    1  UNL1       -0.0223
      4 C           2.3539    0.0866   22.6468 C.ar    1  UNL1       -0.0012
      5 C           1.2186    1.0189   22.3439 C.ar    1  UNL1        0.0366
      6 C           0.4520    0.8759   21.0626 C.ar    1  UNL1        0.1385
      7 C           3.8580   -1.9212   21.9711 C.3     1  UNL1        0.0224
      8 C           4.5662   -2.6283   20.8537 C.3     1  UNL1        0.0057
      9 C           5.7015   -3.5607   21.1565 C.3     1  UNL1        0.0163
     10 C           6.1286   -3.7860   22.5767 C.3     1  UNL1        0.0575
     11 C           5.4204   -3.0790   23.6940 C.3     1  UNL1        0.0163
     12 C           4.2851   -2.1466   23.3912 C.3     1  UNL1        0.0057
     13 N           7.2639   -4.7184   22.8794 N.3     1  UNL1       -0.2740
     14 C           8.4042   -5.0463   21.9617 C.3     1  UNL1        0.0721
     15 C           9.3033   -6.0172   22.6681 C.3     1  UNL1        0.0188
     16 C           8.7187   -6.2893   24.0225 C.3     1  UNL1        0.0188
     17 C           7.4583   -5.4866   24.1531 C.3     1  UNL1        0.0721
     18 O          -0.6833    1.8083   20.7597 O.3     1  UNL1       -0.4754
     19 C          -0.4046    3.2385   20.4037 C.3     1  UNL1        0.2068
     20 C           0.5076    3.5621   19.2578 C.3     1  UNL1        0.0646
     21 C           1.9293    3.9614   19.5206 C.3     1  UNL1        0.0759
     22 N           3.0110    2.9221   19.5289 N.3     1  UNL1       -0.2726
     23 C           3.1457    1.9707   18.3771 C.3     1  UNL1        0.0721
     24 C           4.2273    0.9314   18.3854 C.3     1  UNL1        0.0174
     25 C           5.1740    0.8435   19.5455 C.3     1  UNL1        0.0029
     26 C           5.0392    1.7949   20.6973 C.3     1  UNL1        0.0174
     27 C           3.9577    2.8341   20.6890 C.3     1  UNL1        0.0721
@<TRIPOS>BOND
     1     1     2   ar
     2     2     3   ar
     3     7     3    1
     4     7     8    1
     5     8     9    1
     6     9    10    1
     7    10    13    1
     8    13    14    1
     9    14    15    1
    10    15    16    1
    11    16    17    1
    12    10    11    1
    13    11    12    1
    14     3     4   ar
    15     4     5   ar
    16     5     6   ar
    17     6    18    1
    18    18    19    1
    19    19    20    1
    20    20    21    1
    21    21    22    1
    22    22    23    1
    23    23    24    1
    24    24    25    1
    25    25    26    1
    26    26    27    1
    27     6     1   ar
    28    27    22    1
    29    12     7    1
    30    17    13    1
@<TRIPOS>MOLECULE
*****
 27 30 0 0 0
SMALL
GASTEIGER

@<TRIPOS>ATOM
      1 C           8.7678   -7.9769   25.5213 C.ar    1  UNL1        0.0366
      2 C           8.4738   -7.0544   24.3757 C.ar    1  UNL1       -0.0012
      3 C           7.6827   -5.8010   24.6060 C.ar    1  UNL1       -0.0223
      4 C           7.1856   -5.4700   25.9819 C.ar    1  UNL1       -0.0012
      5 C           7.4796   -6.3925   27.1276 C.ar    1  UNL1        0.0366
      6 C           8.2707   -7.6460   26.8973 C.ar    1  UNL1        0.1385
      7 C           7.3888   -4.8785   23.4602 C.3     1  UNL1        0.0224
      8 C           8.2702   -4.8855   22.2466 C.3     1  UNL1        0.0057
      9 C           7.9763   -3.9630   21.1009 C.3     1  UNL1        0.0163
     10 C           6.8009   -3.0335   21.1688 C.3     1  UNL1        0.0575
     11 C           5.9194   -3.0265   22.3825 C.3     1  UNL1        0.0163
     12 C           6.2134   -3.9490   23.5282 C.3     1  UNL1        0.0057
     13 N           6.5069   -2.1111   20.0231 N.3     1  UNL1       -0.2740
     14 C           6.9571   -2.2962   18.6043 C.3     1  UNL1        0.0721
     15 C           6.4396   -1.1411   17.7993 C.3     1  UNL1        0.0188
     16 C           5.6697   -0.2420   18.7207 C.3     1  UNL1        0.0188
     17 C           5.7113   -0.8415   20.0951 C.3     1  UNL1        0.0721
     18 O           8.5647   -8.5685   28.0430 O.3     1  UNL1       -0.4754
     19 C           8.3799  -10.0482   27.8809 C.3     1  UNL1        0.2068
     20 C           7.0044  -10.6161   27.6930 C.3     1  UNL1        0.0646
     21 C           6.6456  -11.9334   28.3143 C.3     1  UNL1        0.0759
     22 N           5.2356  -12.4396   28.2375 N.3     1  UNL1       -0.2726
     23 C           4.2591  -12.1070   29.3264 C.3     1  UNL1        0.0721
     24 C           2.8492  -12.6131   29.2497 C.3     1  UNL1        0.0174
     25 C           2.4158  -13.4518   28.0841 C.3     1  UNL1        0.0029
     26 C           3.3923  -13.7844   26.9952 C.3     1  UNL1        0.0174
     27 C           4.8022  -13.2783   27.0719 C.3     1  UNL1        0.0721
@<TRIPOS>BOND
     1     1     2   ar
     2     2     3   ar
     3     7     3    1
     4     7     8    1
     5     8     9    1
     6     9    10    1
     7    10    13    1
     8    13    14    1
     9    14    15    1
    10    15    16    1
    11    16    17    1
    12    10    11    1
    13    11    12    1
    14     3     4   ar
    15     4     5   ar
    16     5     6   ar
    17     6    18    1
    18    18    19    1
    19    19    20    1
    20    20    21    1
    21    21    22    1
    22    22    23    1
    23    23    24    1
    24    24    25    1
    25    25    26    1
    26    26    27    1
    27     6     1   ar
    28    27    22    1
    29    12     7    1
    30    17    13    1
