@<TRIPOS>MOLECULE
*****
 41 44 0 0 0
SMALL
GASTEIGER

@<TRIPOS>ATOM
      1 C          -0.5586    2.7837   20.5874 C.2     1  UNL1        0.2485
      2 O           0.7541    3.4507   20.8732 O.2     1  UNL1       -0.2726
      3 N          -0.5891    1.3622   20.1092 N.am    1  UNL1       -0.2823
      4 H          -1.4507    0.9244   19.9216 H       1  UNL1        0.1549
      5 C          -2.3668    4.1267   18.2259 C.2     1  UNL1        0.2508
      6 O          -1.1326    3.4336   17.7298 O.2     1  UNL1       -0.2723
      7 N          -2.6719    4.1553   19.6943 N.am    1  UNL1       -0.2636
      8 C          -3.8617    4.8062   20.3350 C.3     1  UNL1        0.1207
      9 C          -3.7660    4.5913   21.8165 C.ar    1  UNL1       -0.0030
     10 C          -4.6547    5.0080   22.9507 C.ar    1  UNL1        0.0155
     11 C          -4.2945    4.6409   24.3597 C.ar    1  UNL1        0.1054
     12 C          -3.0454    3.8571   24.6345 C.ar    1  UNL1        0.0181
     13 C          -2.1567    3.4404   23.5003 C.ar    1  UNL1       -0.0011
     14 C          -2.5169    3.8075   22.0913 C.ar    1  UNL1        0.0022
     15 C          -1.8408    3.5380   20.7797 C.3     1  UNL1        0.1751
     16 S          -5.1832    5.0576   25.4940 S.O2    1  UNL1        0.0104
     17 C          -6.0720    5.4743   26.6281 C.3     1  UNL1        0.1816
     18 O          -4.7096    3.8825   26.2969 O.2     1  UNL1       -0.1686
     19 O          -5.6569    6.2327   24.6911 O.2     1  UNL1       -0.1686
     20 C          -3.2959    4.7911   17.2537 C.3     1  UNL1        0.1611
     21 C          -4.3557    4.9571   16.2052 C.3     1  UNL1        0.0390
     22 C          -3.9946    3.5866   16.6963 C.3     1  UNL1        0.0390
     23 C          -1.5114    6.6792   17.2260 C.3     1  UNL1        0.1745
     24 O          -2.9198    6.2265   17.4735 O.3     1  UNL1       -0.3472
     25 C           0.6931    0.6079   19.9169 C.ar    1  UNL1        0.0503
     26 C           1.4431    0.7213   18.6228 C.ar    1  UNL1        0.0144
     27 C           2.7253   -0.0330   18.4304 C.ar    1  UNL1       -0.0002
     28 C           3.2574   -0.9006   19.5322 C.ar    1  UNL1        0.0182
     29 C           2.5074   -1.0140   20.8263 C.ar    1  UNL1       -0.0002
     30 C           1.2252   -0.2597   21.0186 C.ar    1  UNL1        0.0144
     31 C           4.5396   -1.6550   19.3400 C.3     1  UNL1        0.2827
     32 O           5.3002   -0.3621   19.3387 O.3     1  UNL1       -0.3692
     33 H           6.2458   -0.5434   19.2212 H       1  UNL1        0.2112
     34 C           5.8218   -2.4094   19.1477 C.3     1  UNL1        0.4311
     35 F           7.1039   -3.1638   18.9555 F       1  UNL1       -0.1669
     36 F           6.2943   -1.9498   20.4952 F       1  UNL1       -0.1669
     37 F           5.6373   -2.7331   18.3442 F       1  UNL1       -0.1669
     38 C           3.7791   -2.9479   19.3412 C.3     1  UNL1        0.4311
     39 F           3.0185   -4.2408   19.3424 F       1  UNL1       -0.1669
     40 F           3.3831   -2.8409   18.5562 F       1  UNL1       -0.1669
     41 F           4.1600   -3.5919   20.6413 F       1  UNL1       -0.1669
@<TRIPOS>BOND
     1    23    24    1
     2    24    20    1
     3    20     5    1
     4     5     6    2
     5     5     7   am
     6     7     8    1
     7     8     9    1
     8     9    10   ar
     9    10    11   ar
    10    11    16    1
    11    16    17    1
    12    16    18    2
    13    16    19    2
    14    11    12   ar
    15    12    13   ar
    16    13    14   ar
    17    14    15    1
    18    15     1    1
    19     1     2    2
    20     1     3   am
    21     3    25    1
    22    25    26   ar
    23    26    27   ar
    24    27    28   ar
    25    28    31    1
    26    31    32    1
    27    31    34    1
    28    34    35    1
    29    34    36    1
    30    34    37    1
    31    31    38    1
    32    38    39    1
    33    38    40    1
    34    38    41    1
    35    28    29   ar
    36    29    30   ar
    37    20    21    1
    38    21    22    1
    39    22    20    1
    40    15     7    1
    41    30    25   ar
    42    14     9   ar
    43     3     4    1
    44    32    33    1
@<TRIPOS>MOLECULE
*****
 41 44 0 0 0
SMALL
GASTEIGER

@<TRIPOS>ATOM
      1 C           5.5041   -1.7217   26.0395 C.2     1  UNL1        0.2485
      2 O           6.5669   -0.9217   25.3465 O.2     1  UNL1       -0.2726
      3 N           4.3633   -2.2947   25.2519 N.am    1  UNL1       -0.2823
      4 H           3.6658   -2.8198   25.7067 H       1  UNL1        0.1549
      5 C           4.0950    0.1163   28.3387 C.2     1  UNL1        0.2508
      6 O           3.8406    0.5897   26.9383 O.2     1  UNL1       -0.2723
      7 N           4.9343   -1.1039   28.5770 N.am    1  UNL1       -0.2636
      8 C           5.2733   -1.6935   29.9140 C.3     1  UNL1        0.1207
      9 C           6.1305   -2.9027   29.6835 C.ar    1  UNL1       -0.0030
     10 C           6.7620   -3.8805   30.6296 C.ar    1  UNL1        0.0155
     11 C           7.5842   -5.0160   30.0962 C.ar    1  UNL1        0.1054
     12 C           7.7750   -5.1737   28.6168 C.ar    1  UNL1        0.0181
     13 C           7.1436   -4.1959   27.6707 C.ar    1  UNL1       -0.0011
     14 C           6.3213   -3.0604   28.2040 C.ar    1  UNL1        0.0022
     15 C           5.5820   -1.9487   27.5202 C.3     1  UNL1        0.1751
     16 S           8.2157   -5.9938   31.0423 S.O2    1  UNL1        0.0104
     17 C           8.8473   -6.9716   31.9884 C.3     1  UNL1        0.1816
     18 O           6.8959   -6.1809   31.7301 O.2     1  UNL1       -0.1686
     19 O           9.5356   -5.8068   30.3546 O.2     1  UNL1       -0.1686
     20 C           3.5101    0.8629   29.5007 C.3     1  UNL1        0.1611
     21 C           3.3193    1.9275   30.5401 C.3     1  UNL1        0.0390
     22 C           4.4415    2.0376   29.5510 C.3     1  UNL1        0.0390
     23 C           1.1791   -0.1458   28.9542 C.3     1  UNL1        0.1745
     24 O           2.3756   -0.0525   29.8541 O.3     1  UNL1       -0.3472
     25 C           4.2854   -2.0677   23.7712 C.ar    1  UNL1        0.0503
     26 C           5.0963   -2.9177   22.8384 C.ar    1  UNL1        0.0144
     27 C           5.0184   -2.6907   21.3577 C.ar    1  UNL1       -0.0002
     28 C           4.1296   -1.6137   20.8099 C.ar    1  UNL1        0.0182
     29 C           3.3188   -0.7637   21.7427 C.ar    1  UNL1       -0.0002
     30 C           3.3967   -0.9907   23.2234 C.ar    1  UNL1        0.0144
     31 C           4.0517   -1.3866   19.3292 C.3     1  UNL1        0.2827
     32 O           4.5819    0.0043   19.5145 O.3     1  UNL1       -0.3692
     33 H           4.6487    0.4425   18.6517 H       1  UNL1        0.2112
     34 C           3.9737   -1.1596   17.8486 C.3     1  UNL1        0.4311
     35 F           3.8957   -0.9326   16.3679 F       1  UNL1       -0.1669
     36 F           5.4693   -1.2303   17.7589 F       1  UNL1       -0.1669
     37 F           3.0915   -1.1018   17.7944 F       1  UNL1       -0.1669
     38 C           3.5214   -2.7774   19.1439 C.3     1  UNL1        0.4311
     39 F           2.9910   -4.1683   18.9587 F       1  UNL1       -0.1669
     40 F           2.7458   -2.6527   19.5532 F       1  UNL1       -0.1669
     41 F           4.6138   -3.4863   18.3994 F       1  UNL1       -0.1669
@<TRIPOS>BOND
     1    23    24    1
     2    24    20    1
     3    20     5    1
     4     5     6    2
     5     5     7   am
     6     7     8    1
     7     8     9    1
     8     9    10   ar
     9    10    11   ar
    10    11    16    1
    11    16    17    1
    12    16    18    2
    13    16    19    2
    14    11    12   ar
    15    12    13   ar
    16    13    14   ar
    17    14    15    1
    18    15     1    1
    19     1     2    2
    20     1     3   am
    21     3    25    1
    22    25    26   ar
    23    26    27   ar
    24    27    28   ar
    25    28    31    1
    26    31    32    1
    27    31    34    1
    28    34    35    1
    29    34    36    1
    30    34    37    1
    31    31    38    1
    32    38    39    1
    33    38    40    1
    34    38    41    1
    35    28    29   ar
    36    29    30   ar
    37    20    21    1
    38    21    22    1
    39    22    20    1
    40    15     7    1
    41    30    25   ar
    42    14     9   ar
    43     3     4    1
    44    32    33    1
@<TRIPOS>MOLECULE
*****
 41 44 0 0 0
SMALL
GASTEIGER

@<TRIPOS>ATOM
      1 C           4.9861   -1.0041   26.2103 C.2     1  UNL1        0.2485
      2 O           5.6863    0.1493   25.5554 O.2     1  UNL1       -0.2726
      3 N           4.2382   -2.0001   25.3742 N.am    1  UNL1       -0.2823
      4 H           3.7786   -2.7572   25.8040 H       1  UNL1        0.1549
      5 C           6.7121   -3.2368   27.8491 C.2     1  UNL1        0.2508
      6 O           6.8624   -3.3225   26.3592 O.2     1  UNL1       -0.2723
      7 N           5.8269   -2.1880   28.4545 N.am    1  UNL1       -0.2636
      8 C           5.5796   -1.9813   29.9194 C.3     1  UNL1        0.1207
      9 C           4.6334   -0.8273   30.0716 C.ar    1  UNL1       -0.0030
     10 C           4.0356   -0.1723   31.2813 C.ar    1  UNL1        0.0155
     11 C           3.1002    0.9891   31.1201 C.ar    1  UNL1        0.1054
     12 C           2.7627    1.4956   29.7491 C.ar    1  UNL1        0.0181
     13 C           3.3606    0.8406   28.5394 C.ar    1  UNL1       -0.0011
     14 C           4.2959   -0.3208   28.7006 C.ar    1  UNL1        0.0022
     15 C           5.0335   -1.1618   27.7012 C.3     1  UNL1        0.1751
     16 S           2.5023    1.6442   32.3299 S.O2    1  UNL1        0.0104
     17 C           1.9045    2.2992   33.5396 C.3     1  UNL1        0.1816
     18 O           1.1306    1.4600   31.7517 O.2     1  UNL1       -0.1686
     19 O           3.8741    1.8284   32.9080 O.2     1  UNL1       -0.1686
     20 C           7.4470   -4.1998   28.7337 C.3     1  UNL1        0.1611
     21 C           7.7865   -5.4651   29.4643 C.3     1  UNL1        0.0390
     22 C           6.5638   -5.4045   28.5975 C.3     1  UNL1        0.0390
     23 C           9.4689   -2.6733   28.1579 C.3     1  UNL1        0.1745
     24 O           8.5854   -3.3294   29.1771 O.3     1  UNL1       -0.3472
     25 C           4.1908   -1.8425   23.8832 C.ar    1  UNL1        0.0503
     26 C           3.2146   -0.8889   23.2606 C.ar    1  UNL1        0.0144
     27 C           3.1671   -0.7313   21.7696 C.ar    1  UNL1       -0.0002
     28 C           4.0959   -1.5272   20.9014 C.ar    1  UNL1        0.0182
     29 C           5.0721   -2.4808   21.5241 C.ar    1  UNL1       -0.0002
     30 C           5.1196   -2.6384   23.0151 C.ar    1  UNL1        0.0144
     31 C           4.0485   -1.3696   19.4104 C.3     1  UNL1        0.2827
     32 O           4.6199    0.0114   19.5382 O.3     1  UNL1       -0.3692
     33 H           4.7142    0.4051   18.6567 H       1  UNL1        0.2112
     34 C           4.0011   -1.2122   17.9195 C.3     1  UNL1        0.4311
     35 F           3.9537   -1.0547   16.4285 F       1  UNL1       -0.1669
     36 F           5.4982   -1.2868   17.8640 F       1  UNL1       -0.1669
     37 F           3.1203   -1.1570   17.8446 F       1  UNL1       -0.1669
     38 C           3.4771   -2.7507   19.2827 C.3     1  UNL1        0.4311
     39 F           2.9057   -4.1317   19.1551 F       1  UNL1       -0.1669
     40 F           2.6992   -2.5819   19.6712 F       1  UNL1       -0.1669
     41 F           4.5587   -3.5287   18.5936 F       1  UNL1       -0.1669
@<TRIPOS>BOND
     1    23    24    1
     2    24    20    1
     3    20     5    1
     4     5     6    2
     5     5     7   am
     6     7     8    1
     7     8     9    1
     8     9    10   ar
     9    10    11   ar
    10    11    16    1
    11    16    17    1
    12    16    18    2
    13    16    19    2
    14    11    12   ar
    15    12    13   ar
    16    13    14   ar
    17    14    15    1
    18    15     1    1
    19     1     2    2
    20     1     3   am
    21     3    25    1
    22    25    26   ar
    23    26    27   ar
    24    27    28   ar
    25    28    31    1
    26    31    32    1
    27    31    34    1
    28    34    35    1
    29    34    36    1
    30    34    37    1
    31    31    38    1
    32    38    39    1
    33    38    40    1
    34    38    41    1
    35    28    29   ar
    36    29    30   ar
    37    20    21    1
    38    21    22    1
    39    22    20    1
    40    15     7    1
    41    30    25   ar
    42    14     9   ar
    43     3     4    1
    44    32    33    1
@<TRIPOS>MOLECULE
*****
 41 44 0 0 0
SMALL
GASTEIGER

@<TRIPOS>ATOM
      1 C           1.4001    1.5165   24.4044 C.2     1  UNL1        0.2485
      2 O           2.1274    2.5176   23.5567 O.2     1  UNL1       -0.2726
      3 N           1.5658    0.0491   24.1407 N.am    1  UNL1       -0.2823
      4 H           1.0884   -0.6080   24.6971 H       1  UNL1        0.1549
      5 C           1.9796    1.1830   27.5986 C.2     1  UNL1        0.2508
      6 O           3.0564    0.6173   26.7209 O.2     1  UNL1       -0.2723
      7 N           0.7735    1.8293   26.9841 N.am    1  UNL1       -0.2636
      8 C          -0.3780    2.4358   27.7298 C.3     1  UNL1        0.1207
      9 C          -1.3560    2.9640   26.7226 C.ar    1  UNL1       -0.0030
     10 C          -2.6740    3.6637   26.8746 C.ar    1  UNL1        0.0155
     11 C          -3.4450    4.0834   25.6583 C.ar    1  UNL1        0.1054
     12 C          -2.8979    3.8033   24.2900 C.ar    1  UNL1        0.0181
     13 C          -1.5799    3.1035   24.1380 C.ar    1  UNL1       -0.0011
     14 C          -0.8090    2.6839   25.3543 C.ar    1  UNL1        0.0022
     15 C           0.5071    1.9826   25.5159 C.3     1  UNL1        0.1751
     16 S          -4.7631    4.7832   25.8102 S.O2    1  UNL1        0.0104
     17 C          -6.0811    5.4829   25.9622 C.3     1  UNL1        0.1816
     18 O          -4.0515    6.0280   26.2506 O.2     1  UNL1       -0.1686
     19 O          -5.4747    3.5384   25.3698 O.2     1  UNL1       -0.1686
     20 C           2.1089    1.1024   29.0908 C.3     1  UNL1        0.1611
     21 C           2.1035    0.5298   30.4772 C.3     1  UNL1        0.0390
     22 C           1.7661   -0.3421   29.3043 C.3     1  UNL1        0.0390
     23 C           3.7217    3.1133   28.7661 C.3     1  UNL1        0.1745
     24 O           2.4966    2.5191   29.3955 O.3     1  UNL1       -0.3472
     25 C           2.4588   -0.4170   23.0292 C.ar    1  UNL1        0.0503
     26 C           2.0177   -0.2740   21.6027 C.ar    1  UNL1        0.0144
     27 C           2.9106   -0.7401   20.4912 C.ar    1  UNL1       -0.0002
     28 C           4.2447   -1.3491   20.8064 C.ar    1  UNL1        0.0182
     29 C           4.6857   -1.4921   22.2329 C.ar    1  UNL1       -0.0002
     30 C           3.7928   -1.0260   23.3444 C.ar    1  UNL1        0.0144
     31 C           5.1377   -1.8153   19.6949 C.3     1  UNL1        0.2827
     32 O           6.1413   -0.7617   20.0593 O.3     1  UNL1       -0.3692
     33 H           6.9020   -0.8188   19.4602 H       1  UNL1        0.2112
     34 C           6.0307   -2.2815   18.5835 C.3     1  UNL1        0.4311
     35 F           6.9236   -2.7477   17.4721 F       1  UNL1       -0.1669
     36 F           5.7537   -1.0147   17.8296 F       1  UNL1       -0.1669
     37 F           6.2573   -3.0575   18.9453 F       1  UNL1       -0.1669
     38 C           4.1341   -2.8689   19.3305 C.3     1  UNL1        0.4311
     39 F           3.1305   -3.9224   18.9661 F       1  UNL1       -0.1669
     40 F           3.8644   -2.5027   18.5704 F       1  UNL1       -0.1669
     41 F           4.2182   -3.8555   20.4573 F       1  UNL1       -0.1669
@<TRIPOS>BOND
     1    23    24    1
     2    24    20    1
     3    20     5    1
     4     5     6    2
     5     5     7   am
     6     7     8    1
     7     8     9    1
     8     9    10   ar
     9    10    11   ar
    10    11    16    1
    11    16    17    1
    12    16    18    2
    13    16    19    2
    14    11    12   ar
    15    12    13   ar
    16    13    14   ar
    17    14    15    1
    18    15     1    1
    19     1     2    2
    20     1     3   am
    21     3    25    1
    22    25    26   ar
    23    26    27   ar
    24    27    28   ar
    25    28    31    1
    26    31    32    1
    27    31    34    1
    28    34    35    1
    29    34    36    1
    30    34    37    1
    31    31    38    1
    32    38    39    1
    33    38    40    1
    34    38    41    1
    35    28    29   ar
    36    29    30   ar
    37    20    21    1
    38    21    22    1
    39    22    20    1
    40    15     7    1
    41    30    25   ar
    42    14     9   ar
    43     3     4    1
    44    32    33    1
@<TRIPOS>MOLECULE
*****
 41 44 0 0 0
SMALL
GASTEIGER

@<TRIPOS>ATOM
      1 C           3.8568   -0.2079   26.2082 C.2     1  UNL1        0.2485
      2 O           5.1402    0.4586   26.6060 O.2     1  UNL1       -0.2726
      3 N           3.0008   -0.8681   27.2483 N.am    1  UNL1       -0.2823
      4 H           2.1584   -1.3056   26.9873 H       1  UNL1        0.1549
      5 C           1.9294    1.9983   24.7704 C.2     1  UNL1        0.2508
      6 O           2.1846    2.2662   26.2240 O.2     1  UNL1       -0.2723
      7 N           2.5432    0.7997   24.1096 N.am    1  UNL1       -0.2636
      8 C           2.3788    0.4047   22.6719 C.3     1  UNL1        0.1207
      9 C           3.1632   -0.8535   22.4443 C.ar    1  UNL1       -0.0030
     10 C           3.3702   -1.7001   21.2235 C.ar    1  UNL1        0.0155
     11 C           4.2263   -2.9294   21.2998 C.ar    1  UNL1        0.1054
     12 C           4.8754   -3.3121   22.5968 C.ar    1  UNL1        0.0181
     13 C           4.6684   -2.4654   23.8176 C.ar    1  UNL1       -0.0011
     14 C           3.8123   -1.2361   23.7413 C.ar    1  UNL1        0.0022
     15 C           3.4291   -0.2144   24.7705 C.3     1  UNL1        0.1751
     16 S           4.4333   -3.7762   20.0790 S.O2    1  UNL1        0.0104
     17 C           4.6403   -4.6229   18.8583 C.3     1  UNL1        0.1816
     18 O           5.6119   -4.4329   20.7344 O.2     1  UNL1       -0.1686
     19 O           3.2547   -3.1195   19.4237 O.2     1  UNL1       -0.1686
     20 C           1.0603    2.9289   23.9776 C.3     1  UNL1        0.1611
     21 C           0.6539    4.0900   23.1193 C.3     1  UNL1        0.0390
     22 C           2.0905    3.9156   23.5137 C.3     1  UNL1        0.0390
     23 C          -1.0839    2.5494   25.3948 C.3     1  UNL1        0.1745
     24 O          -0.2717    2.2654   24.1661 O.3     1  UNL1       -0.3472
     25 C           3.4285   -0.8616   28.6861 C.ar    1  UNL1        0.0503
     26 C           4.8337   -1.2377   29.0523 C.ar    1  UNL1        0.0144
     27 C           5.2613   -1.2312   30.4900 C.ar    1  UNL1       -0.0002
     28 C           4.2838   -0.8487   31.5614 C.ar    1  UNL1        0.0182
     29 C           2.8786   -0.4727   31.1953 C.ar    1  UNL1       -0.0002
     30 C           2.4510   -0.4792   29.7575 C.ar    1  UNL1        0.0144
     31 C           4.7114   -0.8422   32.9992 C.3     1  UNL1        0.2827
     32 O           4.2796    0.5891   33.1213 O.3     1  UNL1       -0.3692
     33 H           4.4472    0.9015   34.0242 H       1  UNL1        0.2112
     34 C           5.1390   -0.8358   34.4370 C.3     1  UNL1        0.4311
     35 F           5.5666   -0.8294   35.8747 F       1  UNL1       -0.1669
     36 F           6.2468    0.1188   34.1032 F       1  UNL1       -0.1669
     37 F           4.5206   -1.3949   34.7361 F       1  UNL1       -0.1669
     38 C           5.1432   -2.2735   32.8772 C.3     1  UNL1        0.4311
     39 F           5.5750   -3.7049   32.7551 F       1  UNL1       -0.1669
     40 F           4.3340   -2.6236   32.7924 F       1  UNL1       -0.1669
     41 F           6.6388   -2.2110   32.9735 F       1  UNL1       -0.1669
@<TRIPOS>BOND
     1    23    24    1
     2    24    20    1
     3    20     5    1
     4     5     6    2
     5     5     7   am
     6     7     8    1
     7     8     9    1
     8     9    10   ar
     9    10    11   ar
    10    11    16    1
    11    16    17    1
    12    16    18    2
    13    16    19    2
    14    11    12   ar
    15    12    13   ar
    16    13    14   ar
    17    14    15    1
    18    15     1    1
    19     1     2    2
    20     1     3   am
    21     3    25    1
    22    25    26   ar
    23    26    27   ar
    24    27    28   ar
    25    28    31    1
    26    31    32    1
    27    31    34    1
    28    34    35    1
    29    34    36    1
    30    34    37    1
    31    31    38    1
    32    38    39    1
    33    38    40    1
    34    38    41    1
    35    28    29   ar
    36    29    30   ar
    37    20    21    1
    38    21    22    1
    39    22    20    1
    40    15     7    1
    41    30    25   ar
    42    14     9   ar
    43     3     4    1
    44    32    33    1
@<TRIPOS>MOLECULE
*****
 41 44 0 0 0
SMALL
GASTEIGER

@<TRIPOS>ATOM
      1 C           3.7799    0.1369   26.3410 C.2     1  UNL1        0.2485
      2 O           4.5149    1.2670   25.6835 O.2     1  UNL1       -0.2726
      3 N           3.2010   -0.9673   25.5069 N.am    1  UNL1       -0.2823
      4 H           2.7186   -1.7091   25.9384 H       1  UNL1        0.1549
      5 C           1.0064    0.6306   27.9883 C.2     1  UNL1        0.2508
      6 O           0.8551    0.7184   26.4985 O.2     1  UNL1       -0.2723
      7 N           2.3489    0.3378   28.5898 N.am    1  UNL1       -0.2636
      8 C           2.6524    0.2204   30.0541 C.3     1  UNL1        0.1207
      9 C           4.1148   -0.0790   30.2019 C.ar    1  UNL1       -0.0030
     10 C           4.9772   -0.2987   31.4093 C.ar    1  UNL1        0.0155
     11 C           6.4400   -0.5862   31.2438 C.ar    1  UNL1        0.1054
     12 C           7.0404   -0.6540   29.8708 C.ar    1  UNL1        0.0181
     13 C           6.1779   -0.4342   28.6634 C.ar    1  UNL1       -0.0011
     14 C           4.7151   -0.1467   28.8290 C.ar    1  UNL1        0.0022
     15 C           3.6238    0.1108   27.8327 C.3     1  UNL1        0.1751
     16 S           7.3026   -0.8060   32.4512 S.O2    1  UNL1        0.0104
     17 C           8.1651   -1.0257   33.6586 C.3     1  UNL1        0.1816
     18 O           7.7474   -2.1254   31.8933 O.2     1  UNL1       -0.1686
     19 O           6.8577    0.5134   33.0090 O.2     1  UNL1       -0.1686
     20 C          -0.1848    0.8357   28.8765 C.3     1  UNL1        0.1611
     21 C          -1.4945    0.5765   29.5602 C.3     1  UNL1        0.0390
     22 C          -0.9397   -0.4298   28.5962 C.3     1  UNL1        0.0390
     23 C           0.4349    3.3395   28.5650 C.3     1  UNL1        0.1745
     24 O           0.1565    2.1725   29.4653 O.3     1  UNL1       -0.3472
     25 C           3.3571   -0.9412   24.0153 C.ar    1  UNL1        0.0503
     26 C           4.4034   -1.7900   23.3557 C.ar    1  UNL1        0.0144
     27 C           4.5596   -1.7639   21.8641 C.ar    1  UNL1       -0.0002
     28 C           3.6694   -0.8891   21.0321 C.ar    1  UNL1        0.0182
     29 C           2.6231   -0.0404   21.6916 C.ar    1  UNL1       -0.0002
     30 C           2.4670   -0.0664   23.1832 C.ar    1  UNL1        0.0144
     31 C           3.8255   -0.8630   19.5404 C.3     1  UNL1        0.2827
     32 O           4.2594    0.5712   19.6108 O.3     1  UNL1       -0.3692
     33 H           4.4481    0.8962   18.7166 H       1  UNL1        0.2112
     34 C           3.9815   -0.8369   18.0488 C.3     1  UNL1        0.4311
     35 F           4.1376   -0.8109   16.5571 F       1  UNL1       -0.1669
     36 F           5.4658   -0.6888   18.2066 F       1  UNL1       -0.1669
     37 F           3.1229   -0.9218   17.8488 F       1  UNL1       -0.1669
     38 C           3.3916   -2.2971   19.4700 C.3     1  UNL1        0.4311
     39 F           2.9576   -3.7313   19.3996 F       1  UNL1       -0.1669
     40 F           2.5505   -2.1676   19.7159 F       1  UNL1       -0.1669
     41 F           4.6271   -3.0294   19.0374 F       1  UNL1       -0.1669
@<TRIPOS>BOND
     1    23    24    1
     2    24    20    1
     3    20     5    1
     4     5     6    2
     5     5     7   am
     6     7     8    1
     7     8     9    1
     8     9    10   ar
     9    10    11   ar
    10    11    16    1
    11    16    17    1
    12    16    18    2
    13    16    19    2
    14    11    12   ar
    15    12    13   ar
    16    13    14   ar
    17    14    15    1
    18    15     1    1
    19     1     2    2
    20     1     3   am
    21     3    25    1
    22    25    26   ar
    23    26    27   ar
    24    27    28   ar
    25    28    31    1
    26    31    32    1
    27    31    34    1
    28    34    35    1
    29    34    36    1
    30    34    37    1
    31    31    38    1
    32    38    39    1
    33    38    40    1
    34    38    41    1
    35    28    29   ar
    36    29    30   ar
    37    20    21    1
    38    21    22    1
    39    22    20    1
    40    15     7    1
    41    30    25   ar
    42    14     9   ar
    43     3     4    1
    44    32    33    1
@<TRIPOS>MOLECULE
*****
 41 44 0 0 0
SMALL
GASTEIGER

@<TRIPOS>ATOM
      1 C           5.7092   -0.7714   32.0378 C.2     1  UNL1        0.2485
      2 O           6.8353    0.0574   32.5808 O.2     1  UNL1       -0.2726
      3 N           4.3948   -0.8155   32.7593 N.am    1  UNL1       -0.2823
      4 H           3.6556   -1.3594   32.4030 H       1  UNL1        0.1549
      5 C           4.5269    0.0140   29.0992 C.2     1  UNL1        0.2508
      6 O           4.1748    0.9928   30.1799 O.2     1  UNL1       -0.2723
      7 N           5.3538   -1.1950   29.4226 N.am    1  UNL1       -0.2636
      8 C           5.7826   -2.2552   28.4520 C.3     1  UNL1        0.1207
      9 C           6.5909   -3.2715   29.2028 C.ar    1  UNL1       -0.0030
     10 C           7.2716   -4.5346   28.7655 C.ar    1  UNL1        0.0155
     11 C           8.0232   -5.3655   29.7628 C.ar    1  UNL1        0.1054
     12 C           8.0941   -4.9333   31.1975 C.ar    1  UNL1        0.0181
     13 C           7.4134   -3.6702   31.6348 C.ar    1  UNL1       -0.0011
     14 C           6.6618   -2.8393   30.6374 C.ar    1  UNL1        0.0022
     15 C           5.8973   -1.5560   30.7732 C.3     1  UNL1        0.1751
     16 S           8.7039   -6.6286   29.3255 S.O2    1  UNL1        0.0104
     17 C           9.3846   -7.8917   28.8882 C.3     1  UNL1        0.1816
     18 O           9.3505   -6.7470   30.6738 O.2     1  UNL1       -0.1686
     19 O           8.0574   -6.5102   27.9773 O.2     1  UNL1       -0.1686
     20 C           4.0520    0.2442   27.6951 C.3     1  UNL1        0.1611
     21 C           3.9930    0.7882   26.2985 C.3     1  UNL1        0.0390
     22 C           5.0844    1.2275   27.2289 C.3     1  UNL1        0.0390
     23 C           1.6974   -0.3922   28.5898 C.3     1  UNL1        0.1745
     24 O           2.8547   -0.6591   27.6737 O.3     1  UNL1       -0.3472
     25 C           4.2067   -0.0309   34.0239 C.ar    1  UNL1        0.0503
     26 C           3.4654    1.2728   33.9944 C.ar    1  UNL1        0.0144
     27 C           3.2773    2.0574   35.2589 C.ar    1  UNL1       -0.0002
     28 C           3.8305    1.5383   36.5528 C.ar    1  UNL1        0.0182
     29 C           4.5718    0.2346   36.5824 C.ar    1  UNL1       -0.0002
     30 C           4.7599   -0.5501   35.3178 C.ar    1  UNL1        0.0144
     31 C           3.6424    2.3228   37.8175 C.3     1  UNL1        0.2827
     32 O           4.6430    3.3330   37.3396 O.3     1  UNL1       -0.3692
     33 H           4.7440    4.0291   38.0076 H       1  UNL1        0.2112
     34 C           3.4543    3.1073   39.0821 C.3     1  UNL1        0.4311
     35 F           3.2662    3.8918   40.3467 F       1  UNL1       -0.1669
     36 F           4.8434    2.7424   39.5150 F       1  UNL1       -0.1669
     37 F           2.6267    3.3776   38.9194 F       1  UNL1       -0.1669
     38 C           2.6419    1.3126   38.2953 C.3     1  UNL1        0.4311
     39 F           1.6412    0.3024   38.7730 F       1  UNL1       -0.1669
     40 F           1.9957    1.5236   37.7273 F       1  UNL1       -0.1669
     41 F           3.3501    0.5984   39.4081 F       1  UNL1       -0.1669
@<TRIPOS>BOND
     1    23    24    1
     2    24    20    1
     3    20     5    1
     4     5     6    2
     5     5     7   am
     6     7     8    1
     7     8     9    1
     8     9    10   ar
     9    10    11   ar
    10    11    16    1
    11    16    17    1
    12    16    18    2
    13    16    19    2
    14    11    12   ar
    15    12    13   ar
    16    13    14   ar
    17    14    15    1
    18    15     1    1
    19     1     2    2
    20     1     3   am
    21     3    25    1
    22    25    26   ar
    23    26    27   ar
    24    27    28   ar
    25    28    31    1
    26    31    32    1
    27    31    34    1
    28    34    35    1
    29    34    36    1
    30    34    37    1
    31    31    38    1
    32    38    39    1
    33    38    40    1
    34    38    41    1
    35    28    29   ar
    36    29    30   ar
    37    20    21    1
    38    21    22    1
    39    22    20    1
    40    15     7    1
    41    30    25   ar
    42    14     9   ar
    43     3     4    1
    44    32    33    1
@<TRIPOS>MOLECULE
*****
 41 44 0 0 0
SMALL
GASTEIGER

@<TRIPOS>ATOM
      1 C           4.7723   -1.2076   32.5090 C.2     1  UNL1        0.2485
      2 O           3.6571   -2.0304   33.0825 O.2     1  UNL1       -0.2726
      3 N           5.1856    0.0681   33.1813 N.am    1  UNL1       -0.2823
      4 H           5.9176    0.6082   32.8049 H       1  UNL1        0.1549
      5 C           4.8838    0.4073   29.6754 C.2     1  UNL1        0.2508
      6 O           4.1042    1.1093   30.7474 O.2     1  UNL1       -0.2723
      7 N           5.5257   -0.9181   29.9607 N.am    1  UNL1       -0.2636
      8 C           6.3315   -1.7339   28.9937 C.3     1  UNL1        0.1207
      9 C           6.7783   -2.9803   29.6985 C.ar    1  UNL1       -0.0030
     10 C           7.5989   -4.1508   29.2443 C.ar    1  UNL1        0.0155
     11 C           7.8899   -5.2759   30.1927 C.ar    1  UNL1        0.1054
     12 C           7.3602   -5.2305   31.5953 C.ar    1  UNL1        0.0181
     13 C           6.5395   -4.0600   32.0495 C.ar    1  UNL1       -0.0011
     14 C           6.2486   -2.9349   31.1011 C.ar    1  UNL1        0.0022
     15 C           5.4744   -1.6604   31.2632 C.3     1  UNL1        0.1751
     16 S           8.7107   -6.4465   29.7385 S.O2    1  UNL1        0.0104
     17 C           9.5314   -7.6170   29.2843 C.3     1  UNL1        0.1816
     18 O           8.3605   -6.1389   28.3128 O.2     1  UNL1       -0.1686
     19 O           9.0609   -6.7541   31.1642 O.2     1  UNL1       -0.1686
     20 C           5.0216    1.0307   28.3181 C.3     1  UNL1        0.1611
     21 C           5.6301    1.7600   27.1571 C.3     1  UNL1        0.0390
     22 C           6.4248    1.5522   28.4122 C.3     1  UNL1        0.0390
     23 C           3.2488   -0.6982   27.5317 C.3     1  UNL1        0.1745
     24 O           3.6662    0.7256   27.7525 O.3     1  UNL1       -0.3472
     25 C           4.4835    0.5208   34.4272 C.ar    1  UNL1        0.0503
     26 C           4.8711   -0.0537   35.7574 C.ar    1  UNL1        0.0144
     27 C           4.1690    0.3991   37.0033 C.ar    1  UNL1       -0.0002
     28 C           3.0793    1.4263   36.9187 C.ar    1  UNL1        0.0182
     29 C           2.6916    2.0009   35.5884 C.ar    1  UNL1       -0.0002
     30 C           3.3937    1.5481   34.3426 C.ar    1  UNL1        0.0144
     31 C           2.3771    1.8791   38.1645 C.3     1  UNL1        0.2827
     32 O           2.3379    0.4629   38.6573 O.3     1  UNL1       -0.3692
     33 H           1.9014    0.4338   39.5230 H       1  UNL1        0.2112
     34 C           1.6749    2.3320   39.4103 C.3     1  UNL1        0.4311
     35 F           0.9728    2.7849   40.6560 F       1  UNL1       -0.1669
     36 F           0.5135    1.4424   39.0790 F       1  UNL1       -0.1669
     37 F           2.3050    2.8860   39.6941 F       1  UNL1       -0.1669
     38 C           2.4162    3.2953   37.6717 C.3     1  UNL1        0.4311
     39 F           2.4553    4.7116   37.1789 F       1  UNL1       -0.1669
     40 F           1.5498    3.3761   37.5065 F       1  UNL1       -0.1669
     41 F           3.8647    3.6731   37.7673 F       1  UNL1       -0.1669
@<TRIPOS>BOND
     1    23    24    1
     2    24    20    1
     3    20     5    1
     4     5     6    2
     5     5     7   am
     6     7     8    1
     7     8     9    1
     8     9    10   ar
     9    10    11   ar
    10    11    16    1
    11    16    17    1
    12    16    18    2
    13    16    19    2
    14    11    12   ar
    15    12    13   ar
    16    13    14   ar
    17    14    15    1
    18    15     1    1
    19     1     2    2
    20     1     3   am
    21     3    25    1
    22    25    26   ar
    23    26    27   ar
    24    27    28   ar
    25    28    31    1
    26    31    32    1
    27    31    34    1
    28    34    35    1
    29    34    36    1
    30    34    37    1
    31    31    38    1
    32    38    39    1
    33    38    40    1
    34    38    41    1
    35    28    29   ar
    36    29    30   ar
    37    20    21    1
    38    21    22    1
    39    22    20    1
    40    15     7    1
    41    30    25   ar
    42    14     9   ar
    43     3     4    1
    44    32    33    1
@<TRIPOS>MOLECULE
*****
 41 44 0 0 0
SMALL
GASTEIGER

@<TRIPOS>ATOM
      1 C          -0.8400    3.2109   20.6579 C.2     1  UNL1        0.2485
      2 O          -0.7955    3.0384   22.1473 O.2     1  UNL1       -0.2726
      3 N          -2.0990    3.6866   19.9954 N.am    1  UNL1       -0.2823
      4 H          -2.1283    3.7999   19.0178 H       1  UNL1        0.1549
      5 C           0.7382    5.3138   18.7249 C.2     1  UNL1        0.2508
      6 O          -0.4465    5.9046   19.4302 O.2     1  UNL1       -0.2723
      7 N           1.0997    3.8744   18.9426 N.am    1  UNL1       -0.2636
      8 C           2.2500    3.1488   18.3100 C.3     1  UNL1        0.1207
      9 C           2.2355    1.7338   18.8075 C.ar    1  UNL1       -0.0030
     10 C           3.1282    0.5617   18.5260 C.ar    1  UNL1        0.0155
     11 C           2.8616   -0.7593   19.1846 C.ar    1  UNL1        0.1054
     12 C           1.7022   -0.9083   20.1247 C.ar    1  UNL1        0.0181
     13 C           0.8096    0.2638   20.4062 C.ar    1  UNL1       -0.0011
     14 C           1.0762    1.5848   19.7476 C.ar    1  UNL1        0.0022
     15 C           0.3742    2.9078   19.8311 C.3     1  UNL1        0.1751
     16 S           3.7543   -1.9315   18.9030 S.O2    1  UNL1        0.0104
     17 C           4.6469   -3.1037   18.6216 C.3     1  UNL1        0.1816
     18 O           4.0485   -1.3800   17.5395 O.2     1  UNL1       -0.1686
     19 O           3.4600   -2.4830   20.2666 O.2     1  UNL1       -0.1686
     20 C           1.5614    6.1625   17.8019 C.3     1  UNL1        0.1611
     21 C           2.5548    7.1867   17.3390 C.3     1  UNL1        0.0390
     22 C           2.3372    6.9624   18.8060 C.3     1  UNL1        0.0390
     23 C          -0.3955    5.6717   16.1650 C.3     1  UNL1        0.1745
     24 O           1.0716    5.6573   16.4772 O.3     1  UNL1       -0.3472
     25 C          -3.3133    3.9898   20.8222 C.ar    1  UNL1        0.0503
     26 C          -4.2133    2.8762   21.2693 C.ar    1  UNL1        0.0144
     27 C          -5.4276    3.1794   22.0962 C.ar    1  UNL1       -0.0002
     28 C          -5.7417    4.5961   22.4758 C.ar    1  UNL1        0.0182
     29 C          -4.8417    5.7096   22.0287 C.ar    1  UNL1       -0.0002
     30 C          -3.6274    5.4065   21.2019 C.ar    1  UNL1        0.0144
     31 C          -6.9560    4.8993   23.3027 C.3     1  UNL1        0.2827
     32 O          -7.7696    5.0523   22.0519 O.3     1  UNL1       -0.3692
     33 H          -8.6853    5.2702   22.2864 H       1  UNL1        0.2112
     34 C          -8.1702    5.2025   24.1296 C.3     1  UNL1        0.4311
     35 F          -9.3844    5.5057   24.9565 F       1  UNL1       -0.1669
     36 F          -8.7535    3.8705   23.7615 F       1  UNL1       -0.1669
     37 F          -7.9158    6.0050   24.4049 F       1  UNL1       -0.1669
     38 C          -6.1423    4.7463   24.5535 C.3     1  UNL1        0.4311
     39 F          -5.3287    4.5931   25.8044 F       1  UNL1       -0.1669
     40 F          -6.3340    3.8946   24.7034 F       1  UNL1       -0.1669
     41 F          -5.5313    6.1009   24.7571 F       1  UNL1       -0.1669
@<TRIPOS>BOND
     1    23    24    1
     2    24    20    1
     3    20     5    1
     4     5     6    2
     5     5     7   am
     6     7     8    1
     7     8     9    1
     8     9    10   ar
     9    10    11   ar
    10    11    16    1
    11    16    17    1
    12    16    18    2
    13    16    19    2
    14    11    12   ar
    15    12    13   ar
    16    13    14   ar
    17    14    15    1
    18    15     1    1
    19     1     2    2
    20     1     3   am
    21     3    25    1
    22    25    26   ar
    23    26    27   ar
    24    27    28   ar
    25    28    31    1
    26    31    32    1
    27    31    34    1
    28    34    35    1
    29    34    36    1
    30    34    37    1
    31    31    38    1
    32    38    39    1
    33    38    40    1
    34    38    41    1
    35    28    29   ar
    36    29    30   ar
    37    20    21    1
    38    21    22    1
    39    22    20    1
    40    15     7    1
    41    30    25   ar
    42    14     9   ar
    43     3     4    1
    44    32    33    1
