@<TRIPOS>MOLECULE
*****
 34 36 0 0 0
SMALL
GASTEIGER

@<TRIPOS>ATOM
      1 C           6.8538   -3.7026   21.9755 C.ar    1  UNL1       -0.0185
      2 C           8.0055   -4.6584   21.8746 C.ar    1  UNL1       -0.0041
      3 C           8.4227   -5.4593   23.0724 C.ar    1  UNL1        0.0057
      4 C           7.6881   -5.3044   24.3710 C.ar    1  UNL1        0.0696
      5 C           6.5364   -4.3486   24.4719 C.ar    1  UNL1        0.0095
      6 C           6.1193   -3.5478   23.2741 C.ar    1  UNL1        0.0677
      7 C           5.1851   -0.4992   17.1845 C.2     1  UNL1        0.2834
      8 O           4.1033   -1.0107   16.2800 O.2     1  UNL1       -0.2666
      9 N           5.6023   -1.3001   18.3823 N.am    1  UNL1       -0.2736
     10 C           4.9377   -2.6124   18.6755 C.3     1  UNL1        0.0941
     11 C           5.3548   -3.4132   19.8733 C.3     1  UNL1        0.0259
     12 C           6.4367   -2.9018   20.7777 C.3     1  UNL1        0.0257
     13 C           7.1013   -1.5895   20.4844 C.3     1  UNL1        0.0259
     14 C           6.6841   -0.7886   19.2867 C.3     1  UNL1        0.0941
     15 C           4.3286    2.4011   18.4108 C.3     1  UNL1        0.1321
     16 N           5.4561    2.1462   17.4549 N.ar    1  UNL1       -0.3046
     17 C           6.3878    3.1798   16.8948 C.ar    1  UNL1        0.0981
     18 C           7.3574    2.4853   15.9849 C.ar    1  UNL1        0.1193
     19 N           7.0248    1.0226   15.9828 N.ar    1  UNL1       -0.2210
     20 C           5.8498    0.8131   16.8912 C.ar    1  UNL1        0.1986
     21 C           8.1052   -6.1052   25.5688 C.2     1  UNL1        0.3078
     22 O           9.4559   -5.8869   26.1836 O.2     1  UNL1       -0.2516
     23 N           7.1717   -7.1243   26.1517 N.am    1  UNL1       -0.1708
     24 H           6.2852   -7.2675   25.7482 H       1  UNL1        0.2545
     25 C           7.5888   -7.9252   27.3495 C.2     1  UNL1        0.3751
     26 N           7.4891   -9.4216   27.3229 N.pl3   1  UNL1       -0.1313
     27 N           8.1055   -7.2296   28.5739 N.pl3   1  UNL1       -0.2906
     28 H           7.1499   -9.8782   26.5193 H       1  UNL1        0.3060
     29 H           8.1709   -6.2475   28.5914 H       1  UNL1        0.2545
     30 H           8.3792   -7.7553   29.3600 H       1  UNL1        0.2545
     31 C           4.9676   -2.5920   23.3750 C.3     1  UNL1        0.4183
     32 F           3.8159   -1.6362   23.4758 F       1  UNL1       -0.1659
     33 F           5.8811   -1.5523   23.9532 F       1  UNL1       -0.1659
     34 F           4.0540   -3.6317   22.7968 F       1  UNL1       -0.1659
@<TRIPOS>BOND
     1    15    16    1
     2    16    17   ar
     3    17    18   ar
     4    18    19   ar
     5    19    20   ar
     6    20     7    1
     7     7     8    2
     8     7     9   am
     9     9    10    1
    10    10    11    1
    11    11    12    1
    12    12     1    1
    13     1     2   ar
    14     2     3   ar
    15     3     4   ar
    16     4    21    1
    17    21    22    2
    18    21    23   am
    19    23    25    1
    20    25    26    2
    21    25    27    1
    22     4     5   ar
    23     5     6   ar
    24     6    31    1
    25    31    32    1
    26    31    33    1
    27    31    34    1
    28    12    13    1
    29    13    14    1
    30    20    16   ar
    31    14     9    1
    32     6     1   ar
    33    23    24    1
    34    26    28    1
    35    27    29    1
    36    27    30    1
@<TRIPOS>MOLECULE
*****
 34 36 0 0 0
SMALL
GASTEIGER

@<TRIPOS>ATOM
      1 C           3.5921   -0.8323   21.5048 C.ar    1  UNL1       -0.0185
      2 C           2.9048    0.1686   22.3855 C.ar    1  UNL1       -0.0041
      3 C           1.7837    1.0028   21.8400 C.ar    1  UNL1        0.0057
      4 C           1.3500    0.8359   20.4138 C.ar    1  UNL1        0.0696
      5 C           2.0373   -0.1652   19.5331 C.ar    1  UNL1        0.0095
      6 C           3.1583   -0.9992   20.0786 C.ar    1  UNL1        0.0677
      7 C           8.0764   -4.1687   23.6866 C.2     1  UNL1        0.2834
      8 O           9.4982   -3.8205   23.3592 O.2     1  UNL1       -0.2666
      9 N           6.9553   -3.3346   23.1411 N.am    1  UNL1       -0.2736
     10 C           7.2561   -2.1523   22.2684 C.3     1  UNL1        0.0941
     11 C           6.1350   -1.3182   21.7229 C.3     1  UNL1        0.0259
     12 C           4.7132   -1.6665   22.0503 C.3     1  UNL1        0.0257
     13 C           4.4124   -2.8487   22.9230 C.3     1  UNL1        0.0259
     14 C           5.5335   -3.6828   23.4684 C.3     1  UNL1        0.0941
     15 C           8.8867   -7.2680   23.0641 C.3     1  UNL1        0.1321
     16 N           8.1481   -6.7756   24.2732 N.ar    1  UNL1       -0.3046
     17 C           7.6522   -7.6213   25.4084 C.ar    1  UNL1        0.0981
     18 C           6.9733   -6.7194   26.3962 C.ar    1  UNL1        0.1193
     19 N           7.0495   -5.3163   25.8714 N.ar    1  UNL1       -0.2210
     20 C           7.7756   -5.3510   24.5593 C.ar    1  UNL1        0.1986
     21 C           0.2290    1.6699   19.8684 C.2     1  UNL1        0.3078
     22 O           0.2144    2.0502   18.4175 O.2     1  UNL1       -0.2516
     23 N          -0.8775    2.1237   20.7738 N.am    1  UNL1       -0.1708
     24 H          -0.8679    1.8741   21.7261 H       1  UNL1        0.2545
     25 C          -1.9986    2.9578   20.2283 C.2     1  UNL1        0.3751
     26 N          -3.4050    2.7195   20.6922 N.pl3   1  UNL1       -0.1313
     27 N          -1.7132    4.0301   19.2191 N.pl3   1  UNL1       -0.2906
     28 H          -3.5923    2.0157   21.3546 H       1  UNL1        0.3060
     29 H          -0.7901    4.1865   18.9147 H       1  UNL1        0.2545
     30 H          -2.4490    4.5776   18.8611 H       1  UNL1        0.2545
     31 C           3.8457   -2.0003   19.1979 C.3     1  UNL1        0.4183
     32 F           4.5330   -3.0012   18.3172 F       1  UNL1       -0.1659
     33 F           4.7976   -0.9381   18.7336 F       1  UNL1       -0.1659
     34 F           2.8938   -3.0624   19.6622 F       1  UNL1       -0.1659
@<TRIPOS>BOND
     1    15    16    1
     2    16    17   ar
     3    17    18   ar
     4    18    19   ar
     5    19    20   ar
     6    20     7    1
     7     7     8    2
     8     7     9   am
     9     9    10    1
    10    10    11    1
    11    11    12    1
    12    12     1    1
    13     1     2   ar
    14     2     3   ar
    15     3     4   ar
    16     4    21    1
    17    21    22    2
    18    21    23   am
    19    23    25    1
    20    25    26    2
    21    25    27    1
    22     4     5   ar
    23     5     6   ar
    24     6    31    1
    25    31    32    1
    26    31    33    1
    27    31    34    1
    28    12    13    1
    29    13    14    1
    30    20    16   ar
    31    14     9    1
    32     6     1   ar
    33    23    24    1
    34    26    28    1
    35    27    29    1
    36    27    30    1
@<TRIPOS>MOLECULE
*****
 34 36 0 0 0
SMALL
GASTEIGER

@<TRIPOS>ATOM
      1 C         -15.1074   -4.4189   18.0353 C.ar    1  UNL1       -0.0185
      2 C         -15.6300   -5.1016   16.8062 C.ar    1  UNL1       -0.0041
      3 C         -15.9752   -6.5608   16.8481 C.ar    1  UNL1        0.0057
      4 C         -15.7976   -7.3372   18.1193 C.ar    1  UNL1        0.0696
      5 C         -15.2750   -6.6544   19.3484 C.ar    1  UNL1        0.0095
      6 C         -14.9298   -5.1953   19.3064 C.ar    1  UNL1        0.0677
      7 C         -13.7267    1.4177   17.8673 C.2     1  UNL1        0.2834
      8 O         -12.3518    1.8516   17.4531 O.2     1  UNL1       -0.2666
      9 N         -14.0718   -0.0415   17.9093 N.am    1  UNL1       -0.2736
     10 C         -13.0422   -1.0667   17.5371 C.3     1  UNL1        0.0941
     11 C         -13.3874   -2.5258   17.5791 C.3     1  UNL1        0.0259
     12 C         -14.7622   -2.9597   17.9933 C.3     1  UNL1        0.0257
     13 C         -15.7918   -1.9344   18.3655 C.3     1  UNL1        0.0259
     14 C         -15.4467   -0.4753   18.3235 C.3     1  UNL1        0.0941
     15 C         -16.1876    2.4370   15.9821 C.3     1  UNL1        0.1321
     16 N         -15.8875    2.9115   17.3730 N.ar    1  UNL1       -0.3046
     17 C         -16.6659    3.9378   18.1416 C.ar    1  UNL1        0.0981
     18 C         -16.0157    4.1036   19.4832 C.ar    1  UNL1        0.1193
     19 N         -14.8356    3.1797   19.5438 N.ar    1  UNL1       -0.2210
     20 C         -14.7563    2.4430   18.2396 C.ar    1  UNL1        0.1986
     21 C         -16.1428   -8.7963   18.1613 C.2     1  UNL1        0.3078
     22 O         -15.0660   -9.8269   17.9924 O.2     1  UNL1       -0.2516
     23 N         -17.5647   -9.2249   18.3722 N.am    1  UNL1       -0.1708
     24 H         -18.2714   -8.5485   18.4830 H       1  UNL1        0.2545
     25 C         -17.9099  -10.6841   18.4142 C.2     1  UNL1        0.3751
     26 N         -16.9388  -11.6680   18.9965 N.pl3   1  UNL1       -0.1313
     27 N         -19.2260  -11.1593   17.8740 N.pl3   1  UNL1       -0.2906
     28 H         -16.0750  -11.3561   19.3511 H       1  UNL1        0.3060
     29 H         -19.8633  -10.5135   17.4918 H       1  UNL1        0.2545
     30 H         -19.4525  -12.1169   17.9016 H       1  UNL1        0.2545
     31 C         -14.4072   -4.5125   20.5355 C.3     1  UNL1        0.4183
     32 F         -13.8845   -3.8297   21.7645 F       1  UNL1       -0.1659
     33 F         -13.0077   -4.8908   20.1505 F       1  UNL1       -0.1659
     34 F         -15.8067   -4.1341   20.9205 F       1  UNL1       -0.1659
@<TRIPOS>BOND
     1    15    16    1
     2    16    17   ar
     3    17    18   ar
     4    18    19   ar
     5    19    20   ar
     6    20     7    1
     7     7     8    2
     8     7     9   am
     9     9    10    1
    10    10    11    1
    11    11    12    1
    12    12     1    1
    13     1     2   ar
    14     2     3   ar
    15     3     4   ar
    16     4    21    1
    17    21    22    2
    18    21    23   am
    19    23    25    1
    20    25    26    2
    21    25    27    1
    22     4     5   ar
    23     5     6   ar
    24     6    31    1
    25    31    32    1
    26    31    33    1
    27    31    34    1
    28    12    13    1
    29    13    14    1
    30    20    16   ar
    31    14     9    1
    32     6     1   ar
    33    23    24    1
    34    26    28    1
    35    27    29    1
    36    27    30    1
@<TRIPOS>MOLECULE
*****
 34 36 0 0 0
SMALL
GASTEIGER

@<TRIPOS>ATOM
      1 C           6.5124   -3.2377   24.7640 C.ar    1  UNL1       -0.0185
      2 C           5.8589   -2.5287   25.9130 C.ar    1  UNL1       -0.0041
      3 C           6.2810   -2.8330   27.3200 C.ar    1  UNL1        0.0057
      4 C           7.3565   -3.8462   27.5778 C.ar    1  UNL1        0.0696
      5 C           8.0100   -4.5553   26.4287 C.ar    1  UNL1        0.0095
      6 C           7.5880   -4.2510   25.0219 C.ar    1  UNL1        0.0677
      7 C           4.8242   -2.0209   19.1365 C.2     1  UNL1        0.2834
      8 O           3.7721   -2.8579   18.4715 O.2     1  UNL1       -0.2666
      9 N           5.2463   -2.3251   20.5434 N.am    1  UNL1       -0.2736
     10 C           4.6162   -3.4664   21.2852 C.3     1  UNL1        0.0941
     11 C           5.0382   -3.7706   22.6921 C.3     1  UNL1        0.0259
     12 C           6.0904   -2.9335   23.3571 C.3     1  UNL1        0.0257
     13 C           6.7205   -1.7922   22.6153 C.3     1  UNL1        0.0259
     14 C           6.2984   -1.4880   21.2084 C.3     1  UNL1        0.0941
     15 C           4.0143    1.1281   19.4146 C.3     1  UNL1        0.1321
     16 N           5.0821    0.5679   18.5225 N.ar    1  UNL1       -0.3046
     17 C           5.9650    1.3567   17.6015 C.ar    1  UNL1        0.0981
     18 C           6.8830    0.3967   16.9045 C.ar    1  UNL1        0.1193
     19 N           6.5674   -0.9853   17.3947 N.ar    1  UNL1       -0.2210
     20 C           5.4543   -0.8796   18.3946 C.ar    1  UNL1        0.1986
     21 C           7.7786   -4.1505   28.9847 C.2     1  UNL1        0.3078
     22 O           9.2159   -3.9985   29.3860 O.2     1  UNL1       -0.2516
     23 N           6.7633   -4.6067   29.9902 N.am    1  UNL1       -0.1708
     24 H           5.8200   -4.7065   29.7267 H       1  UNL1        0.2545
     25 C           7.1853   -4.9110   31.3971 C.2     1  UNL1        0.3751
     26 N           6.6223   -6.1064   32.1070 N.pl3   1  UNL1       -0.1313
     27 N           8.1703   -4.0199   32.0940 N.pl3   1  UNL1       -0.2906
     28 H           5.9758   -6.6913   31.6496 H       1  UNL1        0.3060
     29 H           8.5398   -3.2354   31.6280 H       1  UNL1        0.2545
     30 H           8.4473   -4.2197   33.0174 H       1  UNL1        0.2545
     31 C           8.2415   -4.9600   23.8728 C.3     1  UNL1        0.4183
     32 F           8.8950   -5.6689   22.7238 F       1  UNL1       -0.1659
     33 F           9.1710   -3.7979   23.6845 F       1  UNL1       -0.1659
     34 F           7.3120   -6.1221   24.0612 F       1  UNL1       -0.1659
@<TRIPOS>BOND
     1    15    16    1
     2    16    17   ar
     3    17    18   ar
     4    18    19   ar
     5    19    20   ar
     6    20     7    1
     7     7     8    2
     8     7     9   am
     9     9    10    1
    10    10    11    1
    11    11    12    1
    12    12     1    1
    13     1     2   ar
    14     2     3   ar
    15     3     4   ar
    16     4    21    1
    17    21    22    2
    18    21    23   am
    19    23    25    1
    20    25    26    2
    21    25    27    1
    22     4     5   ar
    23     5     6   ar
    24     6    31    1
    25    31    32    1
    26    31    33    1
    27    31    34    1
    28    12    13    1
    29    13    14    1
    30    20    16   ar
    31    14     9    1
    32     6     1   ar
    33    23    24    1
    34    26    28    1
    35    27    29    1
    36    27    30    1
@<TRIPOS>MOLECULE
*****
 34 36 0 0 0
SMALL
GASTEIGER

@<TRIPOS>ATOM
      1 C         -14.4568   -2.6168   19.1367 C.ar    1  UNL1       -0.0185
      2 C         -14.4860   -3.9130   19.8910 C.ar    1  UNL1       -0.0041
      3 C         -13.2905   -4.8190   19.8720 C.ar    1  UNL1        0.0057
      4 C         -12.0659   -4.4286   19.0987 C.ar    1  UNL1        0.0696
      5 C         -12.0367   -3.1324   18.3444 C.ar    1  UNL1        0.0095
      6 C         -13.2321   -2.2265   18.3634 C.ar    1  UNL1        0.0677
      7 C         -19.2384    1.0068   19.2124 C.2     1  UNL1        0.2834
      8 O         -20.2863    0.8882   18.1456 O.2     1  UNL1       -0.2666
      9 N         -18.0430    0.1008   19.1934 N.am    1  UNL1       -0.2736
     10 C         -17.8954   -0.9236   18.1078 C.3     1  UNL1        0.0941
     11 C         -16.7001   -1.8295   18.0889 C.3     1  UNL1        0.0259
     12 C         -15.6522   -1.7109   19.1556 C.3     1  UNL1        0.0257
     13 C         -15.7997   -0.6864   20.2413 C.3     1  UNL1        0.0259
     14 C         -16.9951    0.2194   20.2602 C.3     1  UNL1        0.0941
     15 C         -18.1061    4.0663   19.1294 C.3     1  UNL1        0.1321
     16 N         -18.8655    3.4375   20.2599 N.ar    1  UNL1       -0.3046
     17 C         -19.2377    4.1047   21.5507 C.ar    1  UNL1        0.0981
     18 C         -19.9883    3.1107   22.3866 C.ar    1  UNL1        0.1193
     19 N         -20.0799    1.8293   21.6124 N.ar    1  UNL1       -0.2210
     20 C         -19.3859    2.0312   20.2980 C.ar    1  UNL1        0.1986
     21 C         -10.8705   -5.3345   19.0798 C.2     1  UNL1        0.3078
     22 O          -9.5156   -4.7958   19.4321 O.2     1  UNL1       -0.2516
     23 N         -11.0300   -6.7790   18.7085 N.am    1  UNL1       -0.1708
     24 H         -11.9193   -7.1325   18.4773 H       1  UNL1        0.2545
     25 C          -9.8346   -7.6849   18.6895 C.2     1  UNL1        0.3751
     26 N          -9.7345   -8.7731   17.6620 N.pl3   1  UNL1       -0.1313
     27 N          -8.7393   -7.5026   19.6980 N.pl3   1  UNL1       -0.2906
     28 H         -10.4534   -8.8928   17.0001 H       1  UNL1        0.3060
     29 H          -8.8050   -6.7884   20.3724 H       1  UNL1        0.2545
     30 H          -7.9547   -8.0972   19.6855 H       1  UNL1        0.2545
     31 C         -13.2030   -0.9302   17.6091 C.3     1  UNL1        0.4183
     32 F         -13.1738    0.3659   16.8548 F       1  UNL1       -0.1659
     33 F         -13.7678   -1.6196   16.4026 F       1  UNL1       -0.1659
     34 F         -12.6381   -0.2408   18.8155 F       1  UNL1       -0.1659
@<TRIPOS>BOND
     1    15    16    1
     2    16    17   ar
     3    17    18   ar
     4    18    19   ar
     5    19    20   ar
     6    20     7    1
     7     7     8    2
     8     7     9   am
     9     9    10    1
    10    10    11    1
    11    11    12    1
    12    12     1    1
    13     1     2   ar
    14     2     3   ar
    15     3     4   ar
    16     4    21    1
    17    21    22    2
    18    21    23   am
    19    23    25    1
    20    25    26    2
    21    25    27    1
    22     4     5   ar
    23     5     6   ar
    24     6    31    1
    25    31    32    1
    26    31    33    1
    27    31    34    1
    28    12    13    1
    29    13    14    1
    30    20    16   ar
    31    14     9    1
    32     6     1   ar
    33    23    24    1
    34    26    28    1
    35    27    29    1
    36    27    30    1
@<TRIPOS>MOLECULE
*****
 34 36 0 0 0
SMALL
GASTEIGER

@<TRIPOS>ATOM
      1 C           6.1229   -2.9302   24.8965 C.ar    1  UNL1       -0.0185
      2 C           6.9601   -4.1160   25.2745 C.ar    1  UNL1       -0.0041
      3 C           7.3009   -4.3653   26.7139 C.ar    1  UNL1        0.0057
      4 C           6.8044   -3.4288   27.7752 C.ar    1  UNL1        0.0696
      5 C           5.9672   -2.2429   27.3972 C.ar    1  UNL1        0.0095
      6 C           5.6264   -1.9936   25.9579 C.ar    1  UNL1        0.0677
      7 C           4.7597   -1.9329   19.1391 C.2     1  UNL1        0.2834
      8 O           3.7518   -2.8009   18.4458 O.2     1  UNL1       -0.2666
      9 N           5.1005   -2.1823   20.5785 N.am    1  UNL1       -0.2736
     10 C           4.4334   -3.2996   21.3245 C.3     1  UNL1        0.0941
     11 C           4.7742   -3.5488   22.7638 C.3     1  UNL1        0.0259
     12 C           5.7821   -2.6808   23.4571 C.3     1  UNL1        0.0257
     13 C           6.4492   -1.5635   22.7111 C.3     1  UNL1        0.0259
     14 C           6.1084   -1.3142   21.2718 C.3     1  UNL1        0.0941
     15 C           4.0291    1.2386   19.3790 C.3     1  UNL1        0.1321
     16 N           5.0910    0.6422   18.5034 N.ar    1  UNL1       -0.3046
     17 C           6.0035    1.3989   17.5843 C.ar    1  UNL1        0.0981
     18 C           6.9032    0.4087   16.9060 C.ar    1  UNL1        0.1193
     19 N           6.5468   -0.9599   17.4059 N.ar    1  UNL1       -0.2210
     20 C           5.4268   -0.8156   18.3931 C.ar    1  UNL1        0.1986
     21 C           7.1452   -3.6781   29.2146 C.2     1  UNL1        0.3078
     22 O           7.5315   -2.5329   30.1030 O.2     1  UNL1       -0.2516
     23 N           7.0996   -5.0725   29.7654 N.am    1  UNL1       -0.1708
     24 H           6.8460   -5.8241   29.1822 H       1  UNL1        0.2545
     25 C           7.4403   -5.3218   31.2048 C.2     1  UNL1        0.3751
     26 N           6.4921   -6.0889   32.0780 N.pl3   1  UNL1       -0.1313
     27 N           8.7293   -4.8041   31.7709 N.pl3   1  UNL1       -0.2906
     28 H           5.6461   -6.4287   31.7064 H       1  UNL1        0.3060
     29 H           9.3516   -4.3006   31.1978 H       1  UNL1        0.2545
     30 H           8.9529   -4.9677   32.7156 H       1  UNL1        0.2545
     31 C           4.7891   -0.8078   25.5798 C.3     1  UNL1        0.4183
     32 F           3.9519    0.3780   25.2018 F       1  UNL1       -0.1659
     33 F           3.5617   -1.6698   25.5946 F       1  UNL1       -0.1659
     34 F           6.0166    0.0542   25.5650 F       1  UNL1       -0.1659
@<TRIPOS>BOND
     1    15    16    1
     2    16    17   ar
     3    17    18   ar
     4    18    19   ar
     5    19    20   ar
     6    20     7    1
     7     7     8    2
     8     7     9   am
     9     9    10    1
    10    10    11    1
    11    11    12    1
    12    12     1    1
    13     1     2   ar
    14     2     3   ar
    15     3     4   ar
    16     4    21    1
    17    21    22    2
    18    21    23   am
    19    23    25    1
    20    25    26    2
    21    25    27    1
    22     4     5   ar
    23     5     6   ar
    24     6    31    1
    25    31    32    1
    26    31    33    1
    27    31    34    1
    28    12    13    1
    29    13    14    1
    30    20    16   ar
    31    14     9    1
    32     6     1   ar
    33    23    24    1
    34    26    28    1
    35    27    29    1
    36    27    30    1
@<TRIPOS>MOLECULE
*****
 34 36 0 0 0
SMALL
GASTEIGER

@<TRIPOS>ATOM
      1 C          -1.3957    2.6852   26.6485 C.ar    1  UNL1       -0.0185
      2 C          -2.7489    3.1707   27.0763 C.ar    1  UNL1       -0.0041
      3 C          -3.7102    3.7066   26.0570 C.ar    1  UNL1        0.0057
      4 C          -3.3181    3.7569   24.6100 C.ar    1  UNL1        0.0696
      5 C          -1.9648    3.2713   24.1823 C.ar    1  UNL1        0.0095
      6 C          -1.0037    2.7354   25.2016 C.ar    1  UNL1        0.0677
      7 C           2.4492    0.5416   30.7256 C.2     1  UNL1        0.2834
      8 O           2.4254   -0.9142   31.0863 O.2     1  UNL1       -0.2666
      9 N           1.4879    1.0775   29.7063 N.am    1  UNL1       -0.2736
     10 C           0.5030    0.1576   29.0478 C.3     1  UNL1        0.0941
     11 C          -0.4582    0.6935   28.0285 C.3     1  UNL1        0.0259
     12 C          -0.4345    2.1493   27.6678 C.3     1  UNL1        0.0257
     13 C           0.5504    3.0692   28.3264 C.3     1  UNL1        0.0259
     14 C           1.5116    2.5333   29.3456 C.3     1  UNL1        0.0941
     15 C           1.9097    2.3325   33.3998 C.3     1  UNL1        0.1321
     16 N           3.1861    2.2847   32.6134 N.ar    1  UNL1       -0.3046
     17 C           4.4387    3.0517   32.9180 C.ar    1  UNL1        0.0981
     18 C           5.4607    2.7025   31.8771 C.ar    1  UNL1        0.1193
     19 N           4.8398    1.7197   30.9291 N.ar    1  UNL1       -0.2210
     20 C           3.4341    1.4615   31.3842 C.ar    1  UNL1        0.1986
     21 C          -4.2793    4.2927   23.5907 C.2     1  UNL1        0.3078
     22 O          -3.8769    5.4380   22.7096 O.2     1  UNL1       -0.2516
     23 N          -5.6429    3.6833   23.4525 N.am    1  UNL1       -0.1708
     24 H          -5.9070    2.9316   24.0308 H       1  UNL1        0.2545
     25 C          -6.6042    4.2192   22.4332 C.2     1  UNL1        0.3751
     26 N          -8.0212    4.5187   22.8233 N.pl3   1  UNL1       -0.1313
     27 N          -6.1483    4.4555   21.0239 N.pl3   1  UNL1       -0.2906
     28 H          -8.3204    4.3636   23.7484 H       1  UNL1        0.3060
     29 H          -5.2182    4.2589   20.7678 H       1  UNL1        0.2545
     30 H          -6.7792    4.8071   20.3549 H       1  UNL1        0.2545
     31 C           0.3496    2.2498   24.7739 C.3     1  UNL1        0.4183
     32 F           1.7028    1.7642   24.3462 F       1  UNL1       -0.1659
     33 F          -0.1790    0.8484   24.6928 F       1  UNL1       -0.1659
     34 F           0.8782    3.6512   24.8550 F       1  UNL1       -0.1659
@<TRIPOS>BOND
     1    15    16    1
     2    16    17   ar
     3    17    18   ar
     4    18    19   ar
     5    19    20   ar
     6    20     7    1
     7     7     8    2
     8     7     9   am
     9     9    10    1
    10    10    11    1
    11    11    12    1
    12    12     1    1
    13     1     2   ar
    14     2     3   ar
    15     3     4   ar
    16     4    21    1
    17    21    22    2
    18    21    23   am
    19    23    25    1
    20    25    26    2
    21    25    27    1
    22     4     5   ar
    23     5     6   ar
    24     6    31    1
    25    31    32    1
    26    31    33    1
    27    31    34    1
    28    12    13    1
    29    13    14    1
    30    20    16   ar
    31    14     9    1
    32     6     1   ar
    33    23    24    1
    34    26    28    1
    35    27    29    1
    36    27    30    1
@<TRIPOS>MOLECULE
*****
 34 36 0 0 0
SMALL
GASTEIGER

@<TRIPOS>ATOM
      1 C           1.2013    2.0573   28.0360 C.ar    1  UNL1       -0.0185
      2 C           1.8805    3.0326   27.1209 C.ar    1  UNL1       -0.0041
      3 C           1.4939    3.0967   25.6729 C.ar    1  UNL1        0.0057
      4 C           0.4282    2.1854   25.1401 C.ar    1  UNL1        0.0696
      5 C          -0.2510    1.2101   26.0554 C.ar    1  UNL1        0.0095
      6 C           0.1356    1.1461   27.5032 C.ar    1  UNL1        0.0677
      7 C           2.7475    1.8011   33.8277 C.2     1  UNL1        0.2834
      8 O           1.8921    2.4699   34.8626 O.2     1  UNL1       -0.2666
      9 N           2.3609    1.8652   32.3798 N.am    1  UNL1       -0.2736
     10 C           1.1190    2.5980   31.9668 C.3     1  UNL1        0.0941
     11 C           0.7325    2.6620   30.5189 C.3     1  UNL1        0.0259
     12 C           1.5879    1.9933   29.4840 C.3     1  UNL1        0.0257
     13 C           2.8298    1.2605   29.8969 C.3     1  UNL1        0.0259
     14 C           3.2163    1.1964   31.3448 C.3     1  UNL1        0.0941
     15 C           5.5236    3.1656   34.8674 C.3     1  UNL1        0.1321
     16 N           5.2655    1.6955   34.7186 N.ar    1  UNL1       -0.3046
     17 C           6.2380    0.5944   35.0216 C.ar    1  UNL1        0.0981
     18 C           5.5630   -0.7132   34.7309 C.ar    1  UNL1        0.1193
     19 N           4.1733   -0.4203   34.2483 N.ar    1  UNL1       -0.2210
     20 C           3.9894    1.0683   34.2407 C.ar    1  UNL1        0.1986
     21 C           0.0416    2.2495   23.6923 C.2     1  UNL1        0.3078
     22 O          -0.9489    3.2745   23.2250 O.2     1  UNL1       -0.2516
     23 N           0.6455    1.2885   22.7116 N.am    1  UNL1       -0.1708
     24 H           1.2956    0.6158   23.0182 H       1  UNL1        0.2545
     25 C           0.2590    1.3525   21.2636 C.2     1  UNL1        0.3751
     26 N           0.2559    2.6695   20.5457 N.pl3   1  UNL1       -0.1313
     27 N          -0.1246    0.0995   20.5336 N.pl3   1  UNL1       -0.2906
     28 H           0.5076    3.4919   21.0248 H       1  UNL1        0.3060
     29 H          -0.1226   -0.7649   21.0049 H       1  UNL1        0.2545
     30 H          -0.3783    0.1415   19.5833 H       1  UNL1        0.2545
     31 C          -0.5436    0.1708   28.4185 C.3     1  UNL1        0.4183
     32 F          -1.2227   -0.8045   29.3336 F       1  UNL1       -0.1659
     33 F           0.6776   -0.7000   28.3966 F       1  UNL1       -0.1659
     34 F          -1.7647    1.0415   28.4403 F       1  UNL1       -0.1659
@<TRIPOS>BOND
     1    15    16    1
     2    16    17   ar
     3    17    18   ar
     4    18    19   ar
     5    19    20   ar
     6    20     7    1
     7     7     8    2
     8     7     9   am
     9     9    10    1
    10    10    11    1
    11    11    12    1
    12    12     1    1
    13     1     2   ar
    14     2     3   ar
    15     3     4   ar
    16     4    21    1
    17    21    22    2
    18    21    23   am
    19    23    25    1
    20    25    26    2
    21    25    27    1
    22     4     5   ar
    23     5     6   ar
    24     6    31    1
    25    31    32    1
    26    31    33    1
    27    31    34    1
    28    12    13    1
    29    13    14    1
    30    20    16   ar
    31    14     9    1
    32     6     1   ar
    33    23    24    1
    34    26    28    1
    35    27    29    1
    36    27    30    1
@<TRIPOS>MOLECULE
*****
 34 36 0 0 0
SMALL
GASTEIGER

@<TRIPOS>ATOM
      1 C          -8.7148  -19.0004   22.3299 C.ar    1  UNL1       -0.0185
      2 C          -8.8741  -18.5848   23.7623 C.ar    1  UNL1       -0.0041
      3 C         -10.2408  -18.3090   24.3157 C.ar    1  UNL1        0.0057
      4 C         -11.4482  -18.4488   23.4366 C.ar    1  UNL1        0.0696
      5 C         -11.2888  -18.8645   22.0041 C.ar    1  UNL1        0.0095
      6 C          -9.9222  -19.1403   21.4508 C.ar    1  UNL1        0.0677
      7 C          -3.2482  -20.1037   20.1164 C.2     1  UNL1        0.2834
      8 O          -2.8634  -21.5012   19.7304 O.2     1  UNL1       -0.2666
      9 N          -4.6149  -19.8279   20.6698 N.am    1  UNL1       -0.2736
     10 C          -5.5967  -20.9495   20.8372 C.3     1  UNL1        0.0941
     11 C          -6.9633  -20.6737   21.3905 C.3     1  UNL1        0.0259
     12 C          -7.3481  -19.2762   21.7765 C.3     1  UNL1        0.0257
     13 C          -6.3664  -18.1546   21.6091 C.3     1  UNL1        0.0259
     14 C          -4.9998  -18.4304   21.0558 C.3     1  UNL1        0.0941
     15 C          -1.9151  -18.3464   22.5215 C.3     1  UNL1        0.1321
     16 N          -1.6537  -18.1743   21.0545 N.ar    1  UNL1       -0.3046
     17 C          -0.7336  -17.1643   20.4355 C.ar    1  UNL1        0.0981
     18 C          -0.7778  -17.3478   18.9474 C.ar    1  UNL1        0.1193
     19 N          -1.7251  -18.4712   18.6467 N.ar    1  UNL1       -0.2210
     20 C          -2.2665  -18.9821   19.9490 C.ar    1  UNL1        0.1986
     21 C         -12.8148  -18.1731   23.9899 C.2     1  UNL1        0.3078
     22 O         -13.7548  -17.2680   23.2502 O.2     1  UNL1       -0.2516
     23 N         -13.2414  -18.8024   25.2829 N.am    1  UNL1       -0.1708
     24 H         -12.6244  -19.3964   25.7684 H       1  UNL1        0.2545
     25 C         -14.6081  -18.5266   25.8363 C.2     1  UNL1        0.3751
     26 N         -15.8174  -18.6899   24.9640 N.pl3   1  UNL1       -0.1313
     27 N         -14.7655  -18.0876   27.2619 N.pl3   1  UNL1       -0.2906
     28 H         -15.7141  -18.9780   24.0283 H       1  UNL1        0.3060
     29 H         -13.9718  -17.9804   27.8345 H       1  UNL1        0.2545
     30 H         -15.6625  -17.9066   27.6251 H       1  UNL1        0.2545
     31 C          -9.7628  -19.5560   20.0184 C.3     1  UNL1        0.4183
     32 F          -9.6035  -19.9717   18.5860 F       1  UNL1       -0.1659
     33 F         -10.3029  -20.9149   20.3527 F       1  UNL1       -0.1659
     34 F          -9.2227  -18.1972   19.6841 F       1  UNL1       -0.1659
@<TRIPOS>BOND
     1    15    16    1
     2    16    17   ar
     3    17    18   ar
     4    18    19   ar
     5    19    20   ar
     6    20     7    1
     7     7     8    2
     8     7     9   am
     9     9    10    1
    10    10    11    1
    11    11    12    1
    12    12     1    1
    13     1     2   ar
    14     2     3   ar
    15     3     4   ar
    16     4    21    1
    17    21    22    2
    18    21    23   am
    19    23    25    1
    20    25    26    2
    21    25    27    1
    22     4     5   ar
    23     5     6   ar
    24     6    31    1
    25    31    32    1
    26    31    33    1
    27    31    34    1
    28    12    13    1
    29    13    14    1
    30    20    16   ar
    31    14     9    1
    32     6     1   ar
    33    23    24    1
    34    26    28    1
    35    27    29    1
    36    27    30    1
