@<TRIPOS>MOLECULE
*****
 30 32 0 0 0
SMALL
GASTEIGER

@<TRIPOS>ATOM
      1 C          -7.9638  -18.7949   22.4946 C.2     1  UNL1        0.2498
      2 O          -8.5954  -20.0334   23.0578 O.2     1  UNL1       -0.2700
      3 N          -8.4326  -17.4429   22.9444 N.am    1  UNL1       -0.2916
      4 H          -8.0181  -16.6301   22.5748 H       1  UNL1        0.1502
      5 C          -8.2848  -19.8532   19.4243 C.3     1  UNL1        0.0542
      6 C          -7.0110  -19.3949   20.0702 C.ar    1  UNL1        0.0860
      7 N          -5.6611  -19.3424   19.4184 N.ar    1  UNL1       -0.1685
      8 N          -4.6792  -18.8236   20.4267 N.ar    1  UNL1       -0.2192
      9 C          -5.4223  -18.5554   21.7018 C.ar    1  UNL1        0.1453
     10 CL         -4.8286  -18.0269   22.9739 Cl      1  UNL1       -0.0611
     11 C          -6.8634  -18.9084   21.4815 C.ar    1  UNL1        0.0970
     12 C          -3.2118  -18.6105   20.1998 C.ar    1  UNL1        0.0837
     13 C          -2.2135  -19.1782   21.1646 C.ar    1  UNL1        0.0192
     14 C          -0.7462  -18.9650   20.9377 C.ar    1  UNL1        0.0015
     15 C          -0.2772  -18.1841   19.7459 C.ar    1  UNL1        0.0001
     16 C          -1.2756  -17.6165   18.7810 C.ar    1  UNL1        0.0015
     17 C          -2.7429  -17.8296   19.0080 C.ar    1  UNL1        0.0192
     18 C          -9.5330  -17.3294   23.9575 C.3     1  UNL1        0.1945
     19 C          -9.2021  -17.0846   25.3999 C.2     1  UNL1        0.3369
     20 O          -9.3663  -18.1863   26.4046 O.2     1  UNL1       -0.2482
     21 O          -8.7070  -15.7380   25.8376 O.3     1  UNL1       -0.4511
     22 C          -7.2352  -15.4950   25.9953 C.3     1  UNL1        0.1691
     23 C          -6.6087  -15.5439   27.3574 C.3     1  UNL1        0.0473
     24 C          -6.3899  -15.2031   24.7911 C.3     1  UNL1        0.0473
     25 C         -10.9642  -17.4608   23.5282 C.3     1  UNL1        0.1386
     26 N         -11.3411  -17.2324   22.0944 N.ar    1  UNL1       -0.3055
     27 C         -11.6432  -15.9059   21.4628 C.ar    1  UNL1        0.0981
     28 C         -11.9709  -16.1441   20.0184 C.ar    1  UNL1        0.1193
     29 N         -11.8713  -17.6179   19.7575 N.ar    1  UNL1       -0.2223
     30 C         -11.4820  -18.2905   21.0406 C.ar    1  UNL1        0.1787
@<TRIPOS>BOND
     1     5     6    1
     2     6     7   ar
     3     7     8   ar
     4     8    12    1
     5    12    13   ar
     6    13    14   ar
     7    14    15   ar
     8    15    16   ar
     9    16    17   ar
    10     8     9   ar
    11     9    10    1
    12     9    11   ar
    13    11     1    1
    14     1     2    2
    15     1     3   am
    16     3    18    1
    17    18    25    1
    18    25    26    1
    19    26    27   ar
    20    27    28   ar
    21    28    29   ar
    22    29    30   ar
    23    18    19    1
    24    19    20    2
    25    19    21    1
    26    21    22    1
    27    22    23    1
    28    22    24    1
    29    11     6   ar
    30    30    26   ar
    31    17    12   ar
    32     3     4    1
@<TRIPOS>MOLECULE
*****
 30 32 0 0 0
SMALL
GASTEIGER

@<TRIPOS>ATOM
      1 C          -6.7233  -18.6527   21.2052 C.2     1  UNL1        0.2498
      2 O          -6.0826  -18.2954   19.8967 O.2     1  UNL1       -0.2700
      3 N          -5.8785  -18.8165   22.4338 N.am    1  UNL1       -0.2916
      4 H          -6.2990  -19.0510   23.2926 H       1  UNL1        0.1502
      5 C          -8.6028  -20.0355   18.9238 C.3     1  UNL1        0.0542
      6 C          -9.0726  -19.4817   20.2362 C.ar    1  UNL1        0.0860
      7 N         -10.4887  -19.4663   20.7306 N.ar    1  UNL1       -0.1685
      8 N         -10.4999  -18.8211   22.0847 N.ar    1  UNL1       -0.2192
      9 C          -9.0908  -18.4378   22.4273 C.ar    1  UNL1        0.1453
     10 CL         -8.6425  -17.7645   23.6905 Cl      1  UNL1       -0.0611
     11 C          -8.2086  -18.8461   21.2849 C.ar    1  UNL1        0.0970
     12 C         -11.7083  -18.5984   22.9452 C.ar    1  UNL1        0.0837
     13 C         -12.9149  -17.9095   22.3800 C.ar    1  UNL1        0.0192
     14 C         -14.1231  -17.6868   23.2405 C.ar    1  UNL1        0.0015
     15 C         -14.1248  -18.1530   24.6662 C.ar    1  UNL1        0.0001
     16 C         -12.9182  -18.8419   25.2314 C.ar    1  UNL1        0.0015
     17 C         -11.7100  -19.0646   24.3709 C.ar    1  UNL1        0.0192
     18 C          -4.3932  -18.6231   22.3540 C.3     1  UNL1        0.1945
     19 C          -3.7381  -17.5183   23.1287 C.2     1  UNL1        0.3369
     20 O          -2.5248  -17.8045   23.9631 O.2     1  UNL1       -0.2482
     21 O          -4.2963  -16.1273   23.0691 O.3     1  UNL1       -0.4511
     22 C          -5.3297  -15.6906   24.0649 C.3     1  UNL1        0.1691
     23 C          -6.6293  -15.1102   23.5914 C.3     1  UNL1        0.0473
     24 C          -5.0634  -15.8342   25.5340 C.3     1  UNL1        0.0473
     25 C          -3.5630  -19.5345   21.4996 C.3     1  UNL1        0.1386
     26 N          -2.5785  -18.9587   20.5253 N.ar    1  UNL1       -0.3055
     27 C          -1.1874  -18.4983   20.8458 C.ar    1  UNL1        0.0981
     28 C          -0.5613  -17.9972   19.5781 C.ar    1  UNL1        0.1193
     29 N          -1.5656  -18.1481   18.4741 N.ar    1  UNL1       -0.2223
     30 C          -2.8123  -18.7423   19.0596 C.ar    1  UNL1        0.1787
@<TRIPOS>BOND
     1     5     6    1
     2     6     7   ar
     3     7     8   ar
     4     8    12    1
     5    12    13   ar
     6    13    14   ar
     7    14    15   ar
     8    15    16   ar
     9    16    17   ar
    10     8     9   ar
    11     9    10    1
    12     9    11   ar
    13    11     1    1
    14     1     2    2
    15     1     3   am
    16     3    18    1
    17    18    25    1
    18    25    26    1
    19    26    27   ar
    20    27    28   ar
    21    28    29   ar
    22    29    30   ar
    23    18    19    1
    24    19    20    2
    25    19    21    1
    26    21    22    1
    27    22    23    1
    28    22    24    1
    29    11     6   ar
    30    30    26   ar
    31    17    12   ar
    32     3     4    1
@<TRIPOS>MOLECULE
*****
 30 32 0 0 0
SMALL
GASTEIGER

@<TRIPOS>ATOM
      1 C          -8.2175  -18.8840   22.4583 C.2     1  UNL1        0.2498
      2 O          -8.7814  -20.1223   23.0897 O.2     1  UNL1       -0.2700
      3 N          -8.7699  -17.5380   22.8230 N.am    1  UNL1       -0.2916
      4 H          -8.3998  -16.7253   22.4086 H       1  UNL1        0.1502
      5 C          -8.4852  -19.9467   19.3844 C.3     1  UNL1        0.0542
      6 C          -7.2242  -19.4803   20.0493 C.ar    1  UNL1        0.0860
      7 N          -5.8648  -19.4203   19.4181 N.ar    1  UNL1       -0.1685
      8 N          -4.9015  -18.8948   20.4409 N.ar    1  UNL1       -0.2192
      9 C          -5.6656  -18.6300   21.7042 C.ar    1  UNL1        0.1453
     10 CL         -5.0945  -18.0969   22.9847 Cl      1  UNL1       -0.0611
     11 C          -7.1011  -18.9918   21.4623 C.ar    1  UNL1        0.0970
     12 C          -3.4321  -18.6731   20.2362 C.ar    1  UNL1        0.0837
     13 C          -2.9470  -17.9315   19.0260 C.ar    1  UNL1        0.0192
     14 C          -1.4776  -17.7099   18.8214 C.ar    1  UNL1        0.0015
     15 C          -0.4935  -18.2298   19.8270 C.ar    1  UNL1        0.0001
     16 C          -0.9787  -18.9714   21.0372 C.ar    1  UNL1        0.0015
     17 C          -2.4480  -19.1930   21.2418 C.ar    1  UNL1        0.0192
     18 C          -9.8863  -17.4303   23.8190 C.3     1  UNL1        0.1945
     19 C         -11.3074  -17.3468   23.3465 C.2     1  UNL1        0.3369
     20 O         -12.3628  -18.1972   23.9893 O.2     1  UNL1       -0.2482
     21 O         -11.6733  -16.4129   22.2312 O.3     1  UNL1       -0.4511
     22 C         -11.6252  -16.8877   20.8091 C.3     1  UNL1        0.1691
     23 C         -11.6638  -15.8950   19.6852 C.3     1  UNL1        0.0473
     24 C         -11.5383  -18.3552   20.5109 C.3     1  UNL1        0.0473
     25 C          -9.5815  -17.4060   25.2875 C.3     1  UNL1        0.1386
     26 N          -8.4496  -16.5688   25.8048 N.ar    1  UNL1       -0.3055
     27 C          -7.4334  -15.8474   24.9700 C.ar    1  UNL1        0.0981
     28 C          -6.4907  -15.1387   25.8970 C.ar    1  UNL1        0.1193
     29 N          -6.9244  -15.4221   27.3047 N.ar    1  UNL1       -0.2223
     30 C          -8.1351  -16.3060   27.2477 C.ar    1  UNL1        0.1787
@<TRIPOS>BOND
     1     5     6    1
     2     6     7   ar
     3     7     8   ar
     4     8    12    1
     5    12    13   ar
     6    13    14   ar
     7    14    15   ar
     8    15    16   ar
     9    16    17   ar
    10     8     9   ar
    11     9    10    1
    12     9    11   ar
    13    11     1    1
    14     1     2    2
    15     1     3   am
    16     3    18    1
    17    18    25    1
    18    25    26    1
    19    26    27   ar
    20    27    28   ar
    21    28    29   ar
    22    29    30   ar
    23    18    19    1
    24    19    20    2
    25    19    21    1
    26    21    22    1
    27    22    23    1
    28    22    24    1
    29    11     6   ar
    30    30    26   ar
    31    17    12   ar
    32     3     4    1
@<TRIPOS>MOLECULE
*****
 30 32 0 0 0
SMALL
GASTEIGER

@<TRIPOS>ATOM
      1 C          -6.3852  -18.7634   21.0000 C.2     1  UNL1        0.2498
      2 O          -5.7548  -18.2739   19.7299 O.2     1  UNL1       -0.2700
      3 N          -5.5286  -19.0711   22.1923 N.am    1  UNL1       -0.2916
      4 H          -5.9424  -19.3925   23.0258 H       1  UNL1        0.1502
      5 C          -8.2504  -20.2786   18.7920 C.3     1  UNL1        0.0542
      6 C          -8.7294  -19.6417   20.0627 C.ar    1  UNL1        0.0860
      7 N         -10.1499  -19.5894   20.5418 N.ar    1  UNL1       -0.1685
      8 N         -10.1705  -18.8607   21.8527 N.ar    1  UNL1       -0.2192
      9 C          -8.7628  -18.4626   22.1839 C.ar    1  UNL1        0.1453
     10 CL         -8.3228  -17.7133   23.4066 Cl      1  UNL1       -0.0611
     11 C          -7.8721  -18.9453   21.0777 C.ar    1  UNL1        0.0970
     12 C         -11.3856  -18.5794   22.6861 C.ar    1  UNL1        0.0837
     13 C         -11.4550  -19.0723   24.1011 C.ar    1  UNL1        0.0192
     14 C         -12.6701  -18.7910   24.9344 C.ar    1  UNL1        0.0015
     15 C         -13.8157  -18.0169   24.3528 C.ar    1  UNL1        0.0001
     16 C         -13.7463  -17.5241   22.9378 C.ar    1  UNL1        0.0015
     17 C         -12.5312  -17.8053   22.1045 C.ar    1  UNL1        0.0192
     18 C          -4.0417  -18.8893   22.1145 C.3     1  UNL1        0.1945
     19 C          -3.2343  -19.7145   21.1569 C.2     1  UNL1        0.3369
     20 O          -3.8862  -20.8282   20.3921 O.2     1  UNL1       -0.2482
     21 O          -1.7750  -19.4260   20.9640 O.3     1  UNL1       -0.4511
     22 C          -1.3375  -18.4295   19.9316 C.3     1  UNL1        0.1691
     23 C          -2.2876  -18.0013   18.8527 C.3     1  UNL1        0.0473
     24 C           0.0499  -17.8614   19.9781 C.3     1  UNL1        0.0473
     25 C          -3.3622  -17.8823   22.9945 C.3     1  UNL1        0.1386
     26 N          -4.1783  -16.8831   23.7595 N.ar    1  UNL1       -0.3055
     27 C          -4.5441  -16.9702   25.2116 C.ar    1  UNL1        0.0981
     28 C          -5.3638  -15.7621   25.5565 C.ar    1  UNL1        0.1193
     29 N          -5.5046  -14.9284   24.3174 N.ar    1  UNL1       -0.2223
     30 C          -4.7719  -15.6213   23.2069 C.ar    1  UNL1        0.1787
@<TRIPOS>BOND
     1     5     6    1
     2     6     7   ar
     3     7     8   ar
     4     8    12    1
     5    12    13   ar
     6    13    14   ar
     7    14    15   ar
     8    15    16   ar
     9    16    17   ar
    10     8     9   ar
    11     9    10    1
    12     9    11   ar
    13    11     1    1
    14     1     2    2
    15     1     3   am
    16     3    18    1
    17    18    25    1
    18    25    26    1
    19    26    27   ar
    20    27    28   ar
    21    28    29   ar
    22    29    30   ar
    23    18    19    1
    24    19    20    2
    25    19    21    1
    26    21    22    1
    27    22    23    1
    28    22    24    1
    29    11     6   ar
    30    30    26   ar
    31    17    12   ar
    32     3     4    1
@<TRIPOS>MOLECULE
*****
 30 32 0 0 0
SMALL
GASTEIGER

@<TRIPOS>ATOM
      1 C          -8.5432  -18.3729   22.0808 C.2     1  UNL1        0.2498
      2 O          -9.7537  -17.7117   21.4913 O.2     1  UNL1       -0.2700
      3 N          -8.5114  -18.7144   23.5410 N.am    1  UNL1       -0.2916
      4 H          -7.7170  -19.1484   23.9279 H       1  UNL1        0.1502
      5 C          -8.6473  -19.8850   19.1907 C.3     1  UNL1        0.0542
      6 C          -7.4122  -19.3876   19.8815 C.ar    1  UNL1        0.0860
      7 N          -6.0082  -19.4979   19.3653 N.ar    1  UNL1       -0.1685
      8 N          -5.0926  -18.8710   20.3746 N.ar    1  UNL1       -0.2192
      9 C          -5.9308  -18.3733   21.5147 C.ar    1  UNL1        0.1453
     10 CL         -5.4243  -17.6784   22.7437 Cl      1  UNL1       -0.0611
     11 C          -7.3644  -18.6925   21.2100 C.ar    1  UNL1        0.0970
     12 C          -3.6007  -18.7612   20.2634 C.ar    1  UNL1        0.0837
     13 C          -2.7223  -19.4072   21.2934 C.ar    1  UNL1        0.0192
     14 C          -1.2305  -19.2974   21.1821 C.ar    1  UNL1        0.0015
     15 C          -0.6171  -18.5415   20.0408 C.ar    1  UNL1        0.0001
     16 C          -1.4956  -17.8954   19.0109 C.ar    1  UNL1        0.0015
     17 C          -2.9874  -18.0053   19.1221 C.ar    1  UNL1        0.0192
     18 C          -9.6902  -18.3948   24.4118 C.3     1  UNL1        0.1945
     19 C         -10.9273  -19.2400   24.3393 C.2     1  UNL1        0.3369
     20 O         -10.8998  -20.5484   23.6063 O.2     1  UNL1       -0.2482
     21 O         -12.1918  -18.7767   24.9999 O.3     1  UNL1       -0.4511
     22 C         -13.3190  -18.2397   24.1685 C.3     1  UNL1        0.1691
     23 C         -13.0347  -17.6071   22.8384 C.3     1  UNL1        0.0473
     24 C         -14.7305  -18.3352   24.6672 C.3     1  UNL1        0.0473
     25 C          -9.6320  -17.2299   25.3550 C.3     1  UNL1        0.1386
     26 N          -8.4170  -16.3509   25.3870 N.ar    1  UNL1       -0.3055
     27 C          -7.4812  -16.1822   26.5471 C.ar    1  UNL1        0.0981
     28 C          -6.4103  -15.2131   26.1416 C.ar    1  UNL1        0.1193
     29 N          -6.6843  -14.7830   24.7310 N.ar    1  UNL1       -0.2223
     30 C          -7.9246  -15.4862   24.2647 C.ar    1  UNL1        0.1787
@<TRIPOS>BOND
     1     5     6    1
     2     6     7   ar
     3     7     8   ar
     4     8    12    1
     5    12    13   ar
     6    13    14   ar
     7    14    15   ar
     8    15    16   ar
     9    16    17   ar
    10     8     9   ar
    11     9    10    1
    12     9    11   ar
    13    11     1    1
    14     1     2    2
    15     1     3   am
    16     3    18    1
    17    18    25    1
    18    25    26    1
    19    26    27   ar
    20    27    28   ar
    21    28    29   ar
    22    29    30   ar
    23    18    19    1
    24    19    20    2
    25    19    21    1
    26    21    22    1
    27    22    23    1
    28    22    24    1
    29    11     6   ar
    30    30    26   ar
    31    17    12   ar
    32     3     4    1
@<TRIPOS>MOLECULE
*****
 30 32 0 0 0
SMALL
GASTEIGER

@<TRIPOS>ATOM
      1 C           3.3749    1.6876   34.1548 C.2     1  UNL1        0.2498
      2 O           4.8104    2.0685   34.3649 O.2     1  UNL1       -0.2700
      3 N           2.3731    1.9058   35.2497 N.am    1  UNL1       -0.2916
      4 H           1.4309    1.6558   35.1118 H       1  UNL1        0.1502
      5 C           4.2012   -1.2622   33.0295 C.3     1  UNL1        0.0542
      6 C           3.3210   -0.2675   32.3326 C.ar    1  UNL1        0.0860
      7 N           2.6660   -0.4539   30.9961 N.ar    1  UNL1       -0.1685
      8 N           1.8814    0.7867   30.6874 N.ar    1  UNL1       -0.2192
      9 C           2.0514    1.7399   31.8330 C.ar    1  UNL1        0.1453
     10 CL          1.4392    3.1049   31.9426 Cl      1  UNL1       -0.0611
     11 C           2.9411    1.0884   32.8498 C.ar    1  UNL1        0.0970
     12 C           1.0692    1.0312   29.4501 C.ar    1  UNL1        0.0837
     13 C          -0.3774    0.6366   29.4124 C.ar    1  UNL1        0.0192
     14 C          -1.1895    0.8810   28.1752 C.ar    1  UNL1        0.0015
     15 C          -0.5549    1.5201   26.9756 C.ar    1  UNL1        0.0001
     16 C           0.8918    1.9147   27.0133 C.ar    1  UNL1        0.0015
     17 C           1.7038    1.6702   28.2505 C.ar    1  UNL1        0.0192
     18 C           2.8069    2.5049   36.5546 C.3     1  UNL1        0.1945
     19 C           3.3004    1.6187   37.6595 C.2     1  UNL1        0.3369
     20 O           4.3344    0.5699   37.3748 O.2     1  UNL1       -0.2482
     21 O           2.7599    1.7811   39.0493 O.3     1  UNL1       -0.4511
     22 C           1.3655    1.3298   39.3693 C.3     1  UNL1        0.1691
     23 C           1.0982   -0.1113   39.6881 C.3     1  UNL1        0.0473
     24 C           0.2385    2.3197   39.3705 C.3     1  UNL1        0.0473
     25 C           2.7472    3.9903   36.7546 C.3     1  UNL1        0.1386
     26 N           2.3918    4.8879   35.6066 N.ar    1  UNL1       -0.3055
     27 C           3.3469    5.4382   34.5893 C.ar    1  UNL1        0.0981
     28 C           2.5644    6.2833   33.6282 C.ar    1  UNL1        0.1193
     29 N           1.1257    6.2553   34.0517 N.ar    1  UNL1       -0.2223
     30 C           1.0191    5.3929   35.2744 C.ar    1  UNL1        0.1787
@<TRIPOS>BOND
     1     5     6    1
     2     6     7   ar
     3     7     8   ar
     4     8    12    1
     5    12    13   ar
     6    13    14   ar
     7    14    15   ar
     8    15    16   ar
     9    16    17   ar
    10     8     9   ar
    11     9    10    1
    12     9    11   ar
    13    11     1    1
    14     1     2    2
    15     1     3   am
    16     3    18    1
    17    18    25    1
    18    25    26    1
    19    26    27   ar
    20    27    28   ar
    21    28    29   ar
    22    29    30   ar
    23    18    19    1
    24    19    20    2
    25    19    21    1
    26    21    22    1
    27    22    23    1
    28    22    24    1
    29    11     6   ar
    30    30    26   ar
    31    17    12   ar
    32     3     4    1
@<TRIPOS>MOLECULE
*****
 30 32 0 0 0
SMALL
GASTEIGER

@<TRIPOS>ATOM
      1 C           3.3535   -0.9799   20.7829 C.2     1  UNL1        0.2498
      2 O           2.4310   -1.9038   20.0443 O.2     1  UNL1       -0.2700
      3 N           4.4715   -0.2956   20.0536 N.am    1  UNL1       -0.2916
      4 H           5.0770    0.3107   20.5383 H       1  UNL1        0.1502
      5 C           4.7292   -2.6815   23.2041 C.3     1  UNL1        0.0542
      6 C           3.7904   -1.5225   23.3636 C.ar    1  UNL1        0.0860
      7 N           3.3191   -0.9421   24.6640 N.ar    1  UNL1       -0.1685
      8 N           2.3955    0.1987   24.3548 N.ar    1  UNL1       -0.2192
      9 C           2.2960    0.3234   22.8633 C.ar    1  UNL1        0.1453
     10 CL          1.4780    1.3342   22.1156 Cl      1  UNL1       -0.0611
     11 C           3.1581   -0.7404   22.2507 C.ar    1  UNL1        0.0970
     12 C           1.6945    1.0630   25.3606 C.ar    1  UNL1        0.0837
     13 C           2.4916    1.8538   26.3552 C.ar    1  UNL1        0.0192
     14 C           1.7906    2.7181   27.3609 C.ar    1  UNL1        0.0015
     15 C           0.2924    2.7916   27.3720 C.ar    1  UNL1        0.0001
     16 C          -0.5047    2.0009   26.3774 C.ar    1  UNL1        0.0015
     17 C           0.1963    1.1366   25.3716 C.ar    1  UNL1        0.0192
     18 C           4.6670   -0.5352   18.5858 C.3     1  UNL1        0.1945
     19 C           5.7387   -1.4733   18.1153 C.2     1  UNL1        0.3369
     20 O           7.1332   -0.9676   17.8923 O.2     1  UNL1       -0.2482
     21 O           5.4158   -2.9170   17.8676 O.3     1  UNL1       -0.4511
     22 C           5.2398   -3.8553   19.0247 C.3     1  UNL1        0.1691
     23 C           6.2163   -3.8337   20.1631 C.3     1  UNL1        0.0473
     24 C           4.0872   -4.8151   19.0434 C.3     1  UNL1        0.0473
     25 C           3.7908    0.1633   17.5887 C.3     1  UNL1        0.1386
     26 N           2.7302    1.1141   18.0585 N.ar    1  UNL1       -0.3055
     27 C           2.9385    2.5510   18.4354 C.ar    1  UNL1        0.0981
     28 C           1.6120    3.1201   18.8439 C.ar    1  UNL1        0.1193
     29 N           0.5839    2.0349   18.7194 N.ar    1  UNL1       -0.2223
     30 C           1.2751    0.7952   18.2340 C.ar    1  UNL1        0.1787
@<TRIPOS>BOND
     1     5     6    1
     2     6     7   ar
     3     7     8   ar
     4     8    12    1
     5    12    13   ar
     6    13    14   ar
     7    14    15   ar
     8    15    16   ar
     9    16    17   ar
    10     8     9   ar
    11     9    10    1
    12     9    11   ar
    13    11     1    1
    14     1     2    2
    15     1     3   am
    16     3    18    1
    17    18    25    1
    18    25    26    1
    19    26    27   ar
    20    27    28   ar
    21    28    29   ar
    22    29    30   ar
    23    18    19    1
    24    19    20    2
    25    19    21    1
    26    21    22    1
    27    22    23    1
    28    22    24    1
    29    11     6   ar
    30    30    26   ar
    31    17    12   ar
    32     3     4    1
@<TRIPOS>MOLECULE
*****
 30 32 0 0 0
SMALL
GASTEIGER

@<TRIPOS>ATOM
      1 C           6.1748   -2.3774   26.5866 C.2     1  UNL1        0.2498
      2 O           7.5907   -1.8827   26.6063 O.2     1  UNL1       -0.2700
      3 N           5.6161   -3.0997   27.7766 N.am    1  UNL1       -0.2916
      4 H           4.6868   -3.4243   27.7637 H       1  UNL1        0.1502
      5 C           3.6085   -0.3697   26.4045 C.3     1  UNL1        0.0542
      6 C           4.1379   -1.2269   25.2932 C.ar    1  UNL1        0.0860
      7 N           3.5807   -1.3118   23.9032 N.ar    1  UNL1       -0.1685
      8 N           4.4159   -2.2871   23.1277 N.ar    1  UNL1       -0.2192
      9 C           5.4893   -2.8050   24.0386 C.ar    1  UNL1        0.1453
     10 CL          6.5485   -3.8029   23.6750 Cl      1  UNL1       -0.0611
     11 C           5.3175   -2.1497   25.3769 C.ar    1  UNL1        0.0970
     12 C           4.2133   -2.6762   21.6933 C.ar    1  UNL1        0.0837
     13 C           4.0247   -1.6169   20.6483 C.ar    1  UNL1        0.0192
     14 C           3.8221   -2.0060   19.2139 C.ar    1  UNL1        0.0015
     15 C           3.8080   -3.4545   18.8246 C.ar    1  UNL1        0.0001
     16 C           3.9966   -4.5139   19.8696 C.ar    1  UNL1        0.0015
     17 C           4.1992   -4.1248   21.3039 C.ar    1  UNL1        0.0192
     18 C           6.4734   -3.3273   28.9863 C.3     1  UNL1        0.1945
     19 C           7.1764   -4.6393   29.1711 C.2     1  UNL1        0.3369
     20 O           6.6930   -5.6098   30.2078 O.2     1  UNL1       -0.2482
     21 O           8.3628   -4.9810   28.3193 O.3     1  UNL1       -0.4511
     22 C           8.1637   -5.4364   26.9039 C.3     1  UNL1        0.1691
     23 C           9.1979   -5.1244   25.8632 C.3     1  UNL1        0.0473
     24 C           6.9305   -6.2038   26.5294 C.3     1  UNL1        0.0473
     25 C           6.6276   -2.2428   30.0111 C.3     1  UNL1        0.1386
     26 N           5.6626   -2.1497   31.1555 N.ar    1  UNL1       -0.3055
     27 C           5.7299   -2.9349   32.4317 C.ar    1  UNL1        0.0981
     28 C           4.5696   -2.5255   33.2898 C.ar    1  UNL1        0.1193
     29 N           3.7851   -1.4872   32.5437 N.ar    1  UNL1       -0.2223
     30 C           4.4606   -1.2550   31.2247 C.ar    1  UNL1        0.1787
@<TRIPOS>BOND
     1     5     6    1
     2     6     7   ar
     3     7     8   ar
     4     8    12    1
     5    12    13   ar
     6    13    14   ar
     7    14    15   ar
     8    15    16   ar
     9    16    17   ar
    10     8     9   ar
    11     9    10    1
    12     9    11   ar
    13    11     1    1
    14     1     2    2
    15     1     3   am
    16     3    18    1
    17    18    25    1
    18    25    26    1
    19    26    27   ar
    20    27    28   ar
    21    28    29   ar
    22    29    30   ar
    23    18    19    1
    24    19    20    2
    25    19    21    1
    26    21    22    1
    27    22    23    1
    28    22    24    1
    29    11     6   ar
    30    30    26   ar
    31    17    12   ar
    32     3     4    1
@<TRIPOS>MOLECULE
*****
 30 32 0 0 0
SMALL
GASTEIGER

@<TRIPOS>ATOM
      1 C           4.2959   -0.6355   26.7586 C.2     1  UNL1        0.2498
      2 O           4.5465    0.8429   26.7956 O.2     1  UNL1       -0.2700
      3 N           3.6545   -1.3170   27.9308 N.am    1  UNL1       -0.2916
      4 H           3.4900   -2.2874   27.9066 H       1  UNL1        0.1502
      5 C           6.8392   -2.6688   26.5412 C.3     1  UNL1        0.0542
      6 C           5.8558   -2.3671   25.4495 C.ar    1  UNL1        0.0860
      7 N           5.8687   -2.9470   24.0662 N.ar    1  UNL1       -0.1685
      8 N           4.7076   -2.3708   23.3112 N.ar    1  UNL1       -0.2192
      9 C           3.9772   -1.4348   24.2279 C.ar    1  UNL1        0.1453
     10 CL          2.7522   -0.6406   23.8835 Cl      1  UNL1       -0.0611
     11 C           4.6867   -1.4325   25.5494 C.ar    1  UNL1        0.0970
     12 C           4.3414   -2.6770   21.8891 C.ar    1  UNL1        0.0837
     13 C           3.9015   -1.5732   20.9737 C.ar    1  UNL1        0.0192
     14 C           3.5353   -1.8793   19.5517 C.ar    1  UNL1        0.0015
     15 C           3.6090   -3.2893   19.0452 C.ar    1  UNL1        0.0001
     16 C           4.0489   -4.3931   19.9606 C.ar    1  UNL1        0.0015
     17 C           4.4151   -4.0869   21.3826 C.ar    1  UNL1        0.0192
     18 C           3.2637   -0.5200   29.1400 C.3     1  UNL1        0.1945
     19 C           1.8456   -0.0615   29.3098 C.2     1  UNL1        0.3369
     20 O           1.3863    0.4829   30.6300 O.2     1  UNL1       -0.2482
     21 O           0.8869   -0.1473   28.1594 O.3     1  UNL1       -0.4511
     22 C          -0.4967    0.4167   28.2925 C.3     1  UNL1        0.1691
     23 C          -0.8159    1.7644   27.7164 C.3     1  UNL1        0.0473
     24 C          -1.5611   -0.3670   29.0016 C.3     1  UNL1        0.0473
     25 C           4.2909   -0.1816   30.1794 C.3     1  UNL1        0.1386
     26 N           4.6631   -1.1926   31.2230 N.ar    1  UNL1       -0.3055
     27 C           3.9598   -1.4106   32.5298 C.ar    1  UNL1        0.0981
     28 C           4.6661   -2.5159   33.2576 C.ar    1  UNL1        0.1193
     29 N           5.8059   -2.9810   32.4006 N.ar    1  UNL1       -0.2223
     30 C           5.8040   -2.1631   31.1431 C.ar    1  UNL1        0.1787
@<TRIPOS>BOND
     1     5     6    1
     2     6     7   ar
     3     7     8   ar
     4     8    12    1
     5    12    13   ar
     6    13    14   ar
     7    14    15   ar
     8    15    16   ar
     9    16    17   ar
    10     8     9   ar
    11     9    10    1
    12     9    11   ar
    13    11     1    1
    14     1     2    2
    15     1     3   am
    16     3    18    1
    17    18    25    1
    18    25    26    1
    19    26    27   ar
    20    27    28   ar
    21    28    29   ar
    22    29    30   ar
    23    18    19    1
    24    19    20    2
    25    19    21    1
    26    21    22    1
    27    22    23    1
    28    22    24    1
    29    11     6   ar
    30    30    26   ar
    31    17    12   ar
    32     3     4    1
