@<TRIPOS>MOLECULE
*****
 34 37 0 0 0
SMALL
GASTEIGER

@<TRIPOS>ATOM
      1 C          -7.6389  -16.7218   22.4505 C.ar    1  UNL1        0.2490
      2 N          -7.9830  -15.3936   23.0567 N.ar    1  UNL1       -0.1863
      3 C          -6.9929  -14.6929   23.9392 C.ar    1  UNL1        0.2225
      4 N          -5.6588  -15.3202   24.2154 N.ar    1  UNL1       -0.1420
      5 N          -5.3147  -16.6484   23.6093 N.ar    1  UNL1       -0.2193
      6 C          -4.0872  -17.5057   23.7008 C.ar    1  UNL1        0.1371
      7 C          -4.3186  -18.7363   22.8749 C.ar    1  UNL1        0.1554
      8 C          -5.6891  -18.6396   22.2730 C.ar    1  UNL1        0.0359
      9 C          -6.3313  -19.6549   21.3748 C.3     1  UNL1        0.0360
     10 C          -6.3047  -17.3492   22.7268 C.ar    1  UNL1        0.1353
     11 O          -8.6289  -17.4226   21.5681 O.3     1  UNL1       -0.4328
     12 C         -14.9391  -18.7508   26.0447 C.3     1  UNL1        0.0521
     13 C         -13.9261  -18.4366   24.9840 C.2     1  UNL1        0.0591
     14 C         -12.4357  -18.4831   25.1469 C.2     1  UNL1        0.0182
     15 C         -11.8140  -18.0960   23.8378 C.2     1  UNL1        0.0455
     16 C         -10.3836  -17.9668   23.4052 C.2     1  UNL1        0.1752
     17 F          -9.2774  -18.2525   24.3771 F       1  UNL1       -0.2009
     18 C         -10.0593  -17.5518   22.0006 C.2     1  UNL1        0.1706
     19 C         -11.1656  -17.2660   21.0287 C.2     1  UNL1        0.0201
     20 C         -12.5960  -17.3953   21.4614 C.3     1  UNL1        0.0751
     21 C         -12.9202  -17.8103   22.8659 C.2     1  UNL1        0.0653
     22 N         -14.2255  -18.0208   23.5743 N.2     1  UNL1       -0.2536
     23 O          -3.3496  -19.8654   22.6844 O.3     1  UNL1       -0.4703
     24 C          -2.4857  -19.9137   21.4592 C.3     1  UNL1        0.2486
     25 C          -3.0975  -19.7278   20.1023 C.3     1  UNL1        0.2123
     26 C          -3.7612  -20.8837   19.4141 C.3     1  UNL1        0.0514
     27 O          -3.0457  -18.3861   19.4336 O.3     1  UNL1       -0.4475
     28 C          -1.7219  -17.7707   19.0886 C.2     1  UNL1        0.3311
     29 O          -1.1983  -17.8555   17.6856 O.2     1  UNL1       -0.2486
     30 C          -0.9218  -17.0705   20.1467 C.3     1  UNL1        0.1512
     31 C          -1.6203  -16.3151   21.2382 C.3     1  UNL1        0.0289
     32 N           0.5768  -17.1257   20.1132 N.3     1  UNL1       -0.3134
     33 H           0.9542  -16.5994   20.9013 H       1  UNL1        0.1193
     34 H           0.9127  -16.7185   19.2404 H       1  UNL1        0.1193
@<TRIPOS>BOND
     1    12    13    1
     2    13    14    2
     3    14    15    1
     4    15    16    2
     5    16    17    1
     6    16    18    1
     7    18    11    1
     8    11     1    1
     9     1     2   ar
    10     2     3   ar
    11     3     4   ar
    12     4     5   ar
    13     5     6   ar
    14     6     7   ar
    15     7    23    1
    16    23    24    1
    17    24    25    1
    18    25    26    1
    19    25    27    1
    20    27    28    1
    21    28    29    2
    22    28    30    1
    23    30    31    1
    24    30    32    1
    25     7     8   ar
    26     8     9    1
    27     8    10   ar
    28    18    19    2
    29    19    20    1
    30    20    21    1
    31    21    22    2
    32    22    13    1
    33    21    15    1
    34    10     1   ar
    35    10     5   ar
    36    32    33    1
    37    32    34    1
@<TRIPOS>MOLECULE
*****
 34 37 0 0 0
SMALL
GASTEIGER

@<TRIPOS>ATOM
      1 C          -8.5584  -19.0349   19.9988 C.ar    1  UNL1        0.2490
      2 N          -9.3586  -19.7339   18.9400 N.ar    1  UNL1       -0.1863
      3 C          -8.8408  -20.9982   18.3208 C.ar    1  UNL1        0.2225
      4 N          -7.5227  -21.5634   18.7603 N.ar    1  UNL1       -0.1420
      5 N          -6.7225  -20.8644   19.8191 N.ar    1  UNL1       -0.2193
      6 C          -5.3994  -21.1816   20.4504 C.ar    1  UNL1        0.1371
      7 C          -5.0995  -20.1134   21.4599 C.ar    1  UNL1        0.1554
      8 C          -6.2373  -19.1360   21.4524 C.ar    1  UNL1        0.0359
      9 C          -6.3519  -17.9098   22.3086 C.3     1  UNL1        0.0360
     10 C          -7.2404  -19.6001   20.4383 C.ar    1  UNL1        0.1353
     11 O          -9.0763  -17.7706   20.6180 O.3     1  UNL1       -0.4328
     12 C         -14.5226  -18.6582   26.2013 C.3     1  UNL1        0.0521
     13 C         -13.7019  -18.3956   24.9735 C.2     1  UNL1        0.0591
     14 C         -12.2242  -18.6144   24.8373 C.2     1  UNL1        0.0182
     15 C         -11.8238  -18.2222   23.4460 C.2     1  UNL1        0.0455
     16 C         -10.4979  -18.2254   22.7446 C.2     1  UNL1        0.1752
     17 F          -9.2676  -18.6866   23.4684 F       1  UNL1       -0.2009
     18 C         -10.4022  -17.7674   21.3194 C.2     1  UNL1        0.1706
     19 C         -11.6324  -17.3063   20.5956 C.2     1  UNL1        0.0201
     20 C         -12.9584  -17.3031   21.2971 C.3     1  UNL1        0.0751
     21 C         -13.0540  -17.7610   22.7222 C.2     1  UNL1        0.0653
     22 N         -14.2147  -17.8682   23.6663 N.2     1  UNL1       -0.2536
     23 O          -3.8765  -20.0362   22.3250 O.3     1  UNL1       -0.4703
     24 C          -2.5989  -19.4801   21.7696 C.3     1  UNL1        0.2486
     25 C          -2.2571  -18.0345   21.9775 C.3     1  UNL1        0.2123
     26 C          -2.8482  -17.2828   23.1332 C.3     1  UNL1        0.0514
     27 O          -1.3244  -17.3405   21.0297 O.3     1  UNL1       -0.4475
     28 C          -0.9316  -18.0043   19.7432 C.2     1  UNL1        0.3311
     29 O           0.2736  -18.8961   19.6969 O.2     1  UNL1       -0.2486
     30 C          -1.7439  -17.7763   18.5031 C.3     1  UNL1        0.1512
     31 C          -3.2226  -17.5469   18.6067 C.3     1  UNL1        0.0289
     32 N          -1.0776  -17.7777   17.1592 N.3     1  UNL1       -0.3134
     33 H          -1.7746  -17.6087   16.4339 H       1  UNL1        0.1193
     34 H          -0.6342  -18.6825   17.0004 H       1  UNL1        0.1193
@<TRIPOS>BOND
     1    12    13    1
     2    13    14    2
     3    14    15    1
     4    15    16    2
     5    16    17    1
     6    16    18    1
     7    18    11    1
     8    11     1    1
     9     1     2   ar
    10     2     3   ar
    11     3     4   ar
    12     4     5   ar
    13     5     6   ar
    14     6     7   ar
    15     7    23    1
    16    23    24    1
    17    24    25    1
    18    25    26    1
    19    25    27    1
    20    27    28    1
    21    28    29    2
    22    28    30    1
    23    30    31    1
    24    30    32    1
    25     7     8   ar
    26     8     9    1
    27     8    10   ar
    28    18    19    2
    29    19    20    1
    30    20    21    1
    31    21    22    2
    32    22    13    1
    33    21    15    1
    34    10     1   ar
    35    10     5   ar
    36    32    33    1
    37    32    34    1
@<TRIPOS>MOLECULE
*****
 34 37 0 0 0
SMALL
GASTEIGER

@<TRIPOS>ATOM
      1 C          -6.6675  -17.6118   23.0261 C.ar    1  UNL1        0.2490
      2 N          -5.8226  -16.3835   23.1910 N.ar    1  UNL1       -0.1863
      3 C          -6.3914  -15.1658   23.8573 C.ar    1  UNL1        0.2225
      4 N          -7.8051  -15.1766   24.3585 N.ar    1  UNL1       -0.1420
      5 N          -8.6500  -16.4049   24.1936 N.ar    1  UNL1       -0.2193
      6 C         -10.0659  -16.7090   24.5841 C.ar    1  UNL1        0.1371
      7 C         -10.3723  -18.1146   24.1593 C.ar    1  UNL1        0.1554
      8 C          -9.1457  -18.6791   23.5062 C.ar    1  UNL1        0.0359
      9 C          -9.0077  -20.0582   22.9325 C.3     1  UNL1        0.0360
     10 C          -8.0812  -17.6225   23.5274 C.ar    1  UNL1        0.1353
     11 O          -6.0987  -18.8294   22.3598 O.3     1  UNL1       -0.4328
     12 C           1.2331  -17.4581   19.9129 C.3     1  UNL1        0.0521
     13 C          -0.2177  -17.7872   20.1049 C.2     1  UNL1        0.0591
     14 C          -0.9728  -17.7222   21.3994 C.2     1  UNL1        0.0182
     15 C          -2.3899  -18.1340   21.1307 C.2     1  UNL1        0.0455
     16 C          -3.5859  -18.2593   22.0273 C.2     1  UNL1        0.1752
     17 F          -3.4651  -17.9398   23.4879 F       1  UNL1       -0.2009
     18 C          -4.9028  -18.7042   21.4633 C.2     1  UNL1        0.1706
     19 C          -5.0236  -19.0237   20.0027 C.2     1  UNL1        0.0201
     20 C          -3.8275  -18.8984   19.1061 C.3     1  UNL1        0.0751
     21 C          -2.5107  -18.4535   19.6701 C.2     1  UNL1        0.0653
     22 N          -1.1682  -18.2392   19.0362 N.2     1  UNL1       -0.2536
     23 O         -11.6764  -18.8300   24.3535 O.3     1  UNL1       -0.4703
     24 C         -12.9350  -18.2692   23.7608 C.3     1  UNL1        0.2486
     25 C         -12.8637  -17.3698   22.5624 C.3     1  UNL1        0.2123
     26 C         -12.9660  -15.8830   22.7335 C.3     1  UNL1        0.0514
     27 O         -12.6903  -17.9570   21.1931 O.3     1  UNL1       -0.4475
     28 C         -11.4379  -17.6853   20.4137 C.2     1  UNL1        0.3311
     29 O         -10.5770  -18.8253   19.9561 O.2     1  UNL1       -0.2486
     30 C         -11.0463  -16.2736   20.0917 C.3     1  UNL1        0.1512
     31 C         -11.7374  -15.5381   18.9820 C.3     1  UNL1        0.0289
     32 N          -9.9635  -15.5974   20.8794 N.3     1  UNL1       -0.3134
     33 H          -9.8289  -14.6493   20.5280 H       1  UNL1        0.1193
     34 H          -9.0943  -16.1224   20.7828 H       1  UNL1        0.1193
@<TRIPOS>BOND
     1    12    13    1
     2    13    14    2
     3    14    15    1
     4    15    16    2
     5    16    17    1
     6    16    18    1
     7    18    11    1
     8    11     1    1
     9     1     2   ar
    10     2     3   ar
    11     3     4   ar
    12     4     5   ar
    13     5     6   ar
    14     6     7   ar
    15     7    23    1
    16    23    24    1
    17    24    25    1
    18    25    26    1
    19    25    27    1
    20    27    28    1
    21    28    29    2
    22    28    30    1
    23    30    31    1
    24    30    32    1
    25     7     8   ar
    26     8     9    1
    27     8    10   ar
    28    18    19    2
    29    19    20    1
    30    20    21    1
    31    21    22    2
    32    22    13    1
    33    21    15    1
    34    10     1   ar
    35    10     5   ar
    36    32    33    1
    37    32    34    1
@<TRIPOS>MOLECULE
*****
 34 37 0 0 0
SMALL
GASTEIGER

@<TRIPOS>ATOM
      1 C          -6.3980  -15.6380   25.0507 C.ar    1  UNL1        0.2490
      2 N          -6.2239  -15.8309   26.5280 N.ar    1  UNL1       -0.1863
      3 C          -7.3809  -16.2875   27.3663 C.ar    1  UNL1        0.2225
      4 N          -8.7121  -16.5511   26.7273 N.ar    1  UNL1       -0.1420
      5 N          -8.8863  -16.3582   25.2500 N.ar    1  UNL1       -0.2193
      6 C         -10.0704  -16.5381   24.3470 C.ar    1  UNL1        0.1371
      7 C          -9.6452  -16.1928   22.9506 C.ar    1  UNL1        0.1554
      8 C          -8.1983  -15.7994   22.9906 C.ar    1  UNL1        0.0359
      9 C          -7.3664  -15.3778   21.8158 C.3     1  UNL1        0.0360
     10 C          -7.7292  -15.9016   24.4117 C.ar    1  UNL1        0.1353
     11 O          -5.2410  -15.1814   24.2124 O.3     1  UNL1       -0.4328
     12 C           0.2257  -18.2659   19.4980 C.3     1  UNL1        0.0521
     13 C          -0.8838  -17.9509   20.4572 C.2     1  UNL1        0.0591
     14 C          -1.3479  -16.5794   20.8488 C.2     1  UNL1        0.0182
     15 C          -2.4748  -16.7330   21.8268 C.2     1  UNL1        0.0455
     16 C          -3.3194  -15.7269   22.5511 C.2     1  UNL1        0.1752
     17 F          -3.0870  -14.2604   22.3383 F       1  UNL1       -0.2009
     18 C          -4.3964  -16.1874   23.4882 C.2     1  UNL1        0.1706
     19 C          -4.6288  -17.6539   23.7009 C.2     1  UNL1        0.0201
     20 C          -3.7841  -18.6600   22.9767 C.3     1  UNL1        0.0751
     21 C          -2.7072  -18.1995   22.0396 C.2     1  UNL1        0.0653
     22 N          -1.7239  -18.9522   21.1932 N.2     1  UNL1       -0.2536
     23 O         -10.5144  -16.2336   21.7287 O.3     1  UNL1       -0.4703
     24 C         -11.1653  -17.5198   21.3140 C.3     1  UNL1        0.2486
     25 C         -10.3302  -18.7463   21.0945 C.3     1  UNL1        0.2123
     26 C         -10.8523  -20.0920   21.5027 C.3     1  UNL1        0.0514
     27 O          -8.9730  -18.6272   20.4670 O.3     1  UNL1       -0.4475
     28 C          -7.7600  -19.1090   21.2062 C.2     1  UNL1        0.3311
     29 O          -7.7895  -19.2241   22.7015 O.2     1  UNL1       -0.2486
     30 C          -6.5175  -19.4757   20.4502 C.3     1  UNL1        0.1512
     31 C          -6.0291  -20.8940   20.4526 C.3     1  UNL1        0.0289
     32 N          -5.7632  -18.4241   19.6917 N.3     1  UNL1       -0.3134
     33 H          -4.9516  -18.8464   19.2408 H       1  UNL1        0.1193
     34 H          -5.4539  -17.6963   20.3359 H       1  UNL1        0.1193
@<TRIPOS>BOND
     1    12    13    1
     2    13    14    2
     3    14    15    1
     4    15    16    2
     5    16    17    1
     6    16    18    1
     7    18    11    1
     8    11     1    1
     9     1     2   ar
    10     2     3   ar
    11     3     4   ar
    12     4     5   ar
    13     5     6   ar
    14     6     7   ar
    15     7    23    1
    16    23    24    1
    17    24    25    1
    18    25    26    1
    19    25    27    1
    20    27    28    1
    21    28    29    2
    22    28    30    1
    23    30    31    1
    24    30    32    1
    25     7     8   ar
    26     8     9    1
    27     8    10   ar
    28    18    19    2
    29    19    20    1
    30    20    21    1
    31    21    22    2
    32    22    13    1
    33    21    15    1
    34    10     1   ar
    35    10     5   ar
    36    32    33    1
    37    32    34    1
@<TRIPOS>MOLECULE
*****
 34 37 0 0 0
SMALL
GASTEIGER

@<TRIPOS>ATOM
      1 C          -6.2636  -15.5764   25.1236 C.ar    1  UNL1        0.2490
      2 N          -6.0086  -15.7094   26.5957 N.ar    1  UNL1       -0.1863
      3 C          -7.1128  -16.1475   27.5116 C.ar    1  UNL1        0.2225
      4 N          -8.4720  -16.4525   26.9554 N.ar    1  UNL1       -0.1420
      5 N          -8.7270  -16.3194   25.4832 N.ar    1  UNL1       -0.2193
      6 C          -9.9546  -16.5492   24.6524 C.ar    1  UNL1        0.1371
      7 C          -9.6092  -16.2532   23.2231 C.ar    1  UNL1        0.1554
      8 C          -8.1681  -15.8404   23.1705 C.ar    1  UNL1        0.0359
      9 C          -7.4059  -15.4545   21.9376 C.3     1  UNL1        0.0360
     10 C          -7.6228  -15.8814   24.5673 C.ar    1  UNL1        0.1353
     11 O          -5.1594  -15.1383   24.2077 O.3     1  UNL1       -0.4328
     12 C           0.2240  -18.3352   19.4725 C.3     1  UNL1        0.0521
     13 C          -0.8692  -17.9973   20.4424 C.2     1  UNL1        0.0591
     14 C          -1.3238  -16.6166   20.8126 C.2     1  UNL1        0.0182
     15 C          -2.4353  -16.7467   21.8114 C.2     1  UNL1        0.0455
     16 C          -3.2659  -15.7236   22.5277 C.2     1  UNL1        0.1752
     17 F          -3.0336  -14.2624   22.2806 F       1  UNL1       -0.2009
     18 C          -4.3289  -16.1615   23.4913 C.2     1  UNL1        0.1706
     19 C          -4.5612  -17.6226   23.7385 C.2     1  UNL1        0.0201
     20 C          -3.7306  -18.6458   23.0221 C.3     1  UNL1        0.0751
     21 C          -2.6677  -18.2079   22.0585 C.2     1  UNL1        0.0653
     22 N          -1.6997  -18.9807   21.2125 N.2     1  UNL1       -0.2536
     23 O         -10.5412  -16.3524   22.0520 O.3     1  UNL1       -0.4703
     24 C         -12.0164  -16.5022   22.2781 C.3     1  UNL1        0.2486
     25 C         -12.5841  -17.8351   22.6669 C.3     1  UNL1        0.2123
     26 C         -13.4830  -17.9475   23.8625 C.3     1  UNL1        0.0514
     27 O         -12.2529  -19.0555   21.8602 O.3     1  UNL1       -0.4475
     28 C         -10.8283  -19.5086   21.7359 C.2     1  UNL1        0.3311
     29 O         -10.1882  -19.6079   20.3831 O.2     1  UNL1       -0.2486
     30 C         -10.0439  -19.8622   22.9646 C.3     1  UNL1        0.1512
     31 C          -8.5472  -19.7630   22.9532 C.3     1  UNL1        0.0289
     32 N         -10.7561  -20.3152   24.2046 N.3     1  UNL1       -0.3134
     33 H         -10.0732  -20.5120   24.9362 H       1  UNL1        0.1193
     34 H         -11.2893  -21.1605   24.0009 H       1  UNL1        0.1193
@<TRIPOS>BOND
     1    12    13    1
     2    13    14    2
     3    14    15    1
     4    15    16    2
     5    16    17    1
     6    16    18    1
     7    18    11    1
     8    11     1    1
     9     1     2   ar
    10     2     3   ar
    11     3     4   ar
    12     4     5   ar
    13     5     6   ar
    14     6     7   ar
    15     7    23    1
    16    23    24    1
    17    24    25    1
    18    25    26    1
    19    25    27    1
    20    27    28    1
    21    28    29    2
    22    28    30    1
    23    30    31    1
    24    30    32    1
    25     7     8   ar
    26     8     9    1
    27     8    10   ar
    28    18    19    2
    29    19    20    1
    30    20    21    1
    31    21    22    2
    32    22    13    1
    33    21    15    1
    34    10     1   ar
    35    10     5   ar
    36    32    33    1
    37    32    34    1
@<TRIPOS>MOLECULE
*****
 34 37 0 0 0
SMALL
GASTEIGER

@<TRIPOS>ATOM
      1 C          -8.8044  -19.6426   19.5119 C.ar    1  UNL1        0.2490
      2 N          -9.4867  -20.5450   18.5269 N.ar    1  UNL1       -0.1863
      3 C          -8.7365  -21.6903   17.9143 C.ar    1  UNL1        0.2225
      4 N          -7.3039  -21.9333   18.2866 N.ar    1  UNL1       -0.1420
      5 N          -6.6216  -21.0310   19.2716 N.ar    1  UNL1       -0.2193
      6 C          -5.2285  -21.0229   19.8276 C.ar    1  UNL1        0.1371
      7 C          -5.1177  -19.8725   20.7839 C.ar    1  UNL1        0.1554
      8 C          -6.4424  -19.1697   20.8189 C.ar    1  UNL1        0.0359
      9 C          -6.7787  -17.9628   21.6437 C.3     1  UNL1        0.0360
     10 C          -7.3719  -19.8857   19.8842 C.ar    1  UNL1        0.1353
     11 O          -9.5547  -18.4973   20.1245 O.3     1  UNL1       -0.4328
     12 C         -14.9080  -18.2220   25.8595 C.3     1  UNL1        0.0521
     13 C         -13.7181  -18.3979   24.9632 C.2     1  UNL1        0.0591
     14 C         -13.6328  -17.9931   23.5214 C.2     1  UNL1        0.0182
     15 C         -12.2666  -18.3545   23.0185 C.2     1  UNL1        0.0455
     16 C         -11.6157  -18.1927   21.6768 C.2     1  UNL1        0.1752
     17 F         -12.3747  -17.5646   20.5458 F       1  UNL1       -0.2009
     18 C         -10.2056  -18.6591   21.4662 C.2     1  UNL1        0.1706
     19 C          -9.4465  -19.2872   22.5972 C.2     1  UNL1        0.0201
     20 C         -10.0975  -19.4490   23.9389 C.3     1  UNL1        0.0751
     21 C         -11.5075  -18.9826   24.1495 C.2     1  UNL1        0.0653
     22 N         -12.4046  -19.0094   25.3514 N.2     1  UNL1       -0.2536
     23 O          -3.8967  -19.4919   21.5676 O.3     1  UNL1       -0.4703
     24 C          -4.0397  -18.9009   22.9388 C.3     1  UNL1        0.2486
     25 C          -3.6408  -17.4763   23.1869 C.3     1  UNL1        0.2123
     26 C          -2.5836  -16.8348   22.3378 C.3     1  UNL1        0.0514
     27 O          -4.2990  -16.6933   24.2839 O.3     1  UNL1       -0.4475
     28 C          -5.0946  -15.4649   23.9553 C.2     1  UNL1        0.3311
     29 O          -4.6998  -14.6047   22.7917 O.2     1  UNL1       -0.2486
     30 C          -6.2850  -15.0967   24.7903 C.3     1  UNL1        0.1512
     31 C          -6.3329  -15.4819   26.2392 C.3     1  UNL1        0.0289
     32 N          -7.4276  -14.3432   24.1765 N.3     1  UNL1       -0.3134
     33 H          -8.1449  -14.1787   24.8827 H       1  UNL1        0.1193
     34 H          -7.8229  -14.8894   23.4111 H       1  UNL1        0.1193
@<TRIPOS>BOND
     1    12    13    1
     2    13    14    2
     3    14    15    1
     4    15    16    2
     5    16    17    1
     6    16    18    1
     7    18    11    1
     8    11     1    1
     9     1     2   ar
    10     2     3   ar
    11     3     4   ar
    12     4     5   ar
    13     5     6   ar
    14     6     7   ar
    15     7    23    1
    16    23    24    1
    17    24    25    1
    18    25    26    1
    19    25    27    1
    20    27    28    1
    21    28    29    2
    22    28    30    1
    23    30    31    1
    24    30    32    1
    25     7     8   ar
    26     8     9    1
    27     8    10   ar
    28    18    19    2
    29    19    20    1
    30    20    21    1
    31    21    22    2
    32    22    13    1
    33    21    15    1
    34    10     1   ar
    35    10     5   ar
    36    32    33    1
    37    32    34    1
@<TRIPOS>MOLECULE
*****
 34 37 0 0 0
SMALL
GASTEIGER

@<TRIPOS>ATOM
      1 C           7.8518   -4.8726   23.7866 C.ar    1  UNL1        0.2490
      2 N           8.4173   -5.8773   22.8271 N.ar    1  UNL1       -0.1863
      3 C           8.6474   -7.2915   23.2710 C.ar    1  UNL1        0.2225
      4 N           8.3121   -7.7010   24.6745 N.ar    1  UNL1       -0.1420
      5 N           7.7466   -6.6963   25.6341 N.ar    1  UNL1       -0.2193
      6 C           7.3231   -6.8065   27.0688 C.ar    1  UNL1        0.1371
      7 C           6.8312   -5.4604   27.5116 C.ar    1  UNL1        0.1554
      8 C           6.9508   -4.5183   26.3505 C.ar    1  UNL1        0.0359
      9 C           6.5712   -3.0671   26.3499 C.3     1  UNL1        0.0360
     10 C           7.5165   -5.2821   25.1901 C.ar    1  UNL1        0.1353
     11 O           7.6217   -3.4585   23.3427 O.3     1  UNL1       -0.4328
     12 C           3.7763   -1.0249   16.9463 C.3     1  UNL1        0.0521
     13 C           4.2486   -1.5541   18.2680 C.2     1  UNL1        0.0591
     14 C           5.6744   -1.6347   18.7269 C.2     1  UNL1        0.0182
     15 C           5.6850   -2.2260   20.1054 C.2     1  UNL1        0.0455
     16 C           6.8037   -2.5419   21.0534 C.2     1  UNL1        0.1752
     17 F           8.2229   -2.2570   20.6603 F       1  UNL1       -0.2009
     18 C           6.5031   -3.1426   22.3947 C.2     1  UNL1        0.1706
     19 C           5.0838   -3.4274   22.7878 C.2     1  UNL1        0.0201
     20 C           3.9651   -3.1115   21.8396 C.3     1  UNL1        0.0751
     21 C           4.2658   -2.5108   20.4985 C.2     1  UNL1        0.0653
     22 N           3.3780   -2.0956   19.3629 N.2     1  UNL1       -0.2536
     23 O           6.3111   -5.1168   28.8760 O.3     1  UNL1       -0.4703
     24 C           7.0030   -5.6452   30.0974 C.3     1  UNL1        0.2486
     25 C           7.4469   -4.7013   31.1754 C.3     1  UNL1        0.2123
     26 C           8.8409   -4.1476   31.1601 C.3     1  UNL1        0.0514
     27 O           6.4969   -4.3112   32.2686 O.3     1  UNL1       -0.4475
     28 C           5.7451   -3.0160   32.1821 C.2     1  UNL1        0.3311
     29 O           5.8402   -2.1748   30.9439 O.2     1  UNL1       -0.2486
     30 C           4.8982   -2.5621   33.3339 C.3     1  UNL1        0.1512
     31 C           5.2510   -1.3068   34.0754 C.3     1  UNL1        0.0289
     32 N           3.6985   -3.3635   33.7444 N.3     1  UNL1       -0.3134
     33 H           3.2436   -2.9125   34.5382 H       1  UNL1        0.1193
     34 H           3.9921   -4.3036   34.0099 H       1  UNL1        0.1193
@<TRIPOS>BOND
     1    12    13    1
     2    13    14    2
     3    14    15    1
     4    15    16    2
     5    16    17    1
     6    16    18    1
     7    18    11    1
     8    11     1    1
     9     1     2   ar
    10     2     3   ar
    11     3     4   ar
    12     4     5   ar
    13     5     6   ar
    14     6     7   ar
    15     7    23    1
    16    23    24    1
    17    24    25    1
    18    25    26    1
    19    25    27    1
    20    27    28    1
    21    28    29    2
    22    28    30    1
    23    30    31    1
    24    30    32    1
    25     7     8   ar
    26     8     9    1
    27     8    10   ar
    28    18    19    2
    29    19    20    1
    30    20    21    1
    31    21    22    2
    32    22    13    1
    33    21    15    1
    34    10     1   ar
    35    10     5   ar
    36    32    33    1
    37    32    34    1
@<TRIPOS>MOLECULE
*****
 34 37 0 0 0
SMALL
GASTEIGER

@<TRIPOS>ATOM
      1 C           7.6940   -4.8557   24.0380 C.ar    1  UNL1        0.2490
      2 N           8.2492   -5.8215   23.0336 N.ar    1  UNL1       -0.1863
      3 C           8.5407   -7.2369   23.4356 C.ar    1  UNL1        0.2225
      4 N           8.2770   -7.6865   24.8421 N.ar    1  UNL1       -0.1420
      5 N           7.7219   -6.7208   25.8465 N.ar    1  UNL1       -0.2193
      6 C           7.3623   -6.8747   27.2947 C.ar    1  UNL1        0.1371
      7 C           6.8486   -5.5544   27.7877 C.ar    1  UNL1        0.1554
      8 C           6.8906   -4.5845   26.6442 C.ar    1  UNL1        0.0359
      9 C           6.4673   -3.1463   26.6920 C.3     1  UNL1        0.0360
     10 C           7.4303   -5.3053   25.4445 C.ar    1  UNL1        0.1353
     11 O           7.4025   -3.4403   23.6360 O.3     1  UNL1       -0.4328
     12 C           1.0227   -0.5294   20.1078 C.3     1  UNL1        0.0521
     13 C           2.2870   -1.2173   20.5300 C.2     1  UNL1        0.0591
     14 C           2.9372   -1.1177   21.8781 C.2     1  UNL1        0.0182
     15 C           4.1752   -1.9645   21.8594 C.2     1  UNL1        0.0455
     16 C           5.2126   -2.2487   22.9048 C.2     1  UNL1        0.1752
     17 F           5.0977   -1.6257   24.2644 F       1  UNL1       -0.2009
     18 C           6.3651   -3.1561   22.5906 C.2     1  UNL1        0.1706
     19 C           6.4800   -3.7791   21.2310 C.2     1  UNL1        0.0201
     20 C           5.4425   -3.4948   20.1856 C.3     1  UNL1        0.0751
     21 C           4.2901   -2.5875   20.4998 C.2     1  UNL1        0.0653
     22 N           3.1232   -2.1258   19.6782 N.2     1  UNL1       -0.2536
     23 O           6.3758   -5.2564   29.1797 O.3     1  UNL1       -0.4703
     24 C           7.2696   -5.5363   30.3513 C.3     1  UNL1        0.2486
     25 C           7.5786   -4.4477   31.3358 C.3     1  UNL1        0.2123
     26 C           8.8808   -3.7077   31.2515 C.3     1  UNL1        0.0514
     27 O           6.5856   -4.0989   32.4046 O.3     1  UNL1       -0.4475
     28 C           5.6484   -2.9441   32.2096 C.2     1  UNL1        0.3311
     29 O           5.6917   -2.1495   30.9381 O.2     1  UNL1       -0.2486
     30 C           4.6680   -2.5838   33.2861 C.3     1  UNL1        0.1512
     31 C           4.7068   -1.2203   33.9101 C.3     1  UNL1        0.0289
     32 N           3.6488   -3.5870   33.7387 N.3     1  UNL1       -0.3134
     33 H           3.0692   -3.1764   34.4707 H       1  UNL1        0.1193
     34 H           4.1233   -4.4128   34.1039 H       1  UNL1        0.1193
@<TRIPOS>BOND
     1    12    13    1
     2    13    14    2
     3    14    15    1
     4    15    16    2
     5    16    17    1
     6    16    18    1
     7    18    11    1
     8    11     1    1
     9     1     2   ar
    10     2     3   ar
    11     3     4   ar
    12     4     5   ar
    13     5     6   ar
    14     6     7   ar
    15     7    23    1
    16    23    24    1
    17    24    25    1
    18    25    26    1
    19    25    27    1
    20    27    28    1
    21    28    29    2
    22    28    30    1
    23    30    31    1
    24    30    32    1
    25     7     8   ar
    26     8     9    1
    27     8    10   ar
    28    18    19    2
    29    19    20    1
    30    20    21    1
    31    21    22    2
    32    22    13    1
    33    21    15    1
    34    10     1   ar
    35    10     5   ar
    36    32    33    1
    37    32    34    1
@<TRIPOS>MOLECULE
*****
 34 37 0 0 0
SMALL
GASTEIGER

@<TRIPOS>ATOM
      1 C           2.2832    0.8120   25.7421 C.ar    1  UNL1        0.2490
      2 N           1.2081    1.3575   24.8496 N.ar    1  UNL1       -0.1863
      3 C          -0.1812    1.5511   25.3810 C.ar    1  UNL1        0.2225
      4 N          -0.4954    1.1993   26.8049 N.ar    1  UNL1       -0.1420
      5 N           0.5797    0.6538   27.6973 N.ar    1  UNL1       -0.2193
      6 C           0.5683    0.2209   29.1335 C.ar    1  UNL1        0.1371
      7 C           1.9505   -0.2403   29.4897 C.ar    1  UNL1        0.1554
      8 C           2.8162   -0.0924   28.2736 C.ar    1  UNL1        0.0359
      9 C           4.2732   -0.4366   28.1815 C.3     1  UNL1        0.0360
     10 C           1.9690    0.4602   27.1659 C.ar    1  UNL1        0.1353
     11 O           3.6725    0.6184   25.2107 O.3     1  UNL1       -0.4328
     12 C           4.1063   -4.2360   19.0568 C.3     1  UNL1        0.0521
     13 C           4.1676   -3.5157   20.3711 C.2     1  UNL1        0.0591
     14 C           3.5978   -2.1586   20.6602 C.2     1  UNL1        0.0182
     15 C           3.8876   -1.8301   22.0948 C.2     1  UNL1        0.0455
     16 C           3.5662   -0.6292   22.9342 C.2     1  UNL1        0.1752
     17 F           2.8172    0.5249   22.3366 F       1  UNL1       -0.2009
     18 C           3.9938   -0.5824   24.3713 C.2     1  UNL1        0.1706
     19 C           4.7428   -1.7365   24.9688 C.2     1  UNL1        0.0201
     20 C           5.0642   -2.9374   24.1294 C.3     1  UNL1        0.0751
     21 C           4.6365   -2.9842   22.6924 C.2     1  UNL1        0.0653
     22 N           4.8096   -4.0259   21.6271 N.2     1  UNL1       -0.2536
     23 O           2.3898   -0.7584   30.8270 O.3     1  UNL1       -0.4703
     24 C           3.0604    0.1611   31.8041 C.3     1  UNL1        0.2486
     25 C           4.4393   -0.1526   32.3044 C.3     1  UNL1        0.2123
     26 C           5.0721    0.7141   33.3525 C.3     1  UNL1        0.0514
     27 O           5.1854   -1.3329   31.7566 O.3     1  UNL1       -0.4475
     28 C           5.2380   -2.6140   32.5351 C.2     1  UNL1        0.3311
     29 O           4.1205   -2.9699   33.4701 O.2     1  UNL1       -0.2486
     30 C           6.4083   -3.5392   32.3785 C.3     1  UNL1        0.1512
     31 C           7.7569   -2.9887   32.0204 C.3     1  UNL1        0.0289
     32 N           6.2299   -5.0149   32.5801 N.3     1  UNL1       -0.3134
     33 H           7.1218   -5.4881   32.4353 H       1  UNL1        0.1193
     34 H           5.5449   -5.3689   31.9124 H       1  UNL1        0.1193
@<TRIPOS>BOND
     1    12    13    1
     2    13    14    2
     3    14    15    1
     4    15    16    2
     5    16    17    1
     6    16    18    1
     7    18    11    1
     8    11     1    1
     9     1     2   ar
    10     2     3   ar
    11     3     4   ar
    12     4     5   ar
    13     5     6   ar
    14     6     7   ar
    15     7    23    1
    16    23    24    1
    17    24    25    1
    18    25    26    1
    19    25    27    1
    20    27    28    1
    21    28    29    2
    22    28    30    1
    23    30    31    1
    24    30    32    1
    25     7     8   ar
    26     8     9    1
    27     8    10   ar
    28    18    19    2
    29    19    20    1
    30    20    21    1
    31    21    22    2
    32    22    13    1
    33    21    15    1
    34    10     1   ar
    35    10     5   ar
    36    32    33    1
    37    32    34    1
