@<TRIPOS>MOLECULE
*****
 35 38 0 0 0
SMALL
GASTEIGER

@<TRIPOS>ATOM
      1 C          -9.7214  -19.8196   22.2312 C.ar    1  UNL1        0.1311
      2 C          -8.6026  -20.2514   23.1322 C.ar    1  UNL1        0.0339
      3 C          -7.2062  -20.3591   22.5952 C.ar    1  UNL1        0.0027
      4 C          -6.9286  -20.0351   21.1572 C.ar    1  UNL1        0.0283
      5 C          -8.0474  -19.6032   20.2562 C.ar    1  UNL1        0.2196
      6 F          -7.7697  -19.2792   18.8181 F       1  UNL1       -0.1835
      7 N          -9.4437  -19.4955   20.7932 N.ar    1  UNL1       -0.2035
      8 N         -11.1178  -19.7118   22.7682 N.pl3   1  UNL1       -0.3144
      9 H         -11.5956  -20.5206   23.0629 H       1  UNL1        0.1485
     10 C         -11.7862  -18.3719   22.8563 C.3     1  UNL1        0.1166
     11 C         -10.1884  -16.4413   22.1708 C.ar    1  UNL1        0.0620
     12 C          -9.8060  -15.3482   21.2175 C.ar    1  UNL1        0.0156
     13 C         -10.6388  -15.0926   19.9964 C.ar    1  UNL1        0.0013
     14 C         -11.8541  -15.9301   19.7286 C.ar    1  UNL1       -0.0002
     15 C         -12.2366  -17.0232   20.6820 C.ar    1  UNL1       -0.0014
     16 C         -11.4037  -17.2788   21.9031 C.ar    1  UNL1        0.0120
     17 N          -9.3556  -16.6969   23.3919 N.pl3   1  UNL1       -0.2190
     18 H          -9.6527  -17.3546   24.0615 H       1  UNL1        0.1733
     19 S          -8.0702  -15.9505   23.5928 S.O2    1  UNL1        0.0539
     20 O          -8.7240  -15.1084   24.6479 O.2     1  UNL1       -0.1545
     21 O          -7.4163  -16.7926   22.5376 O.2     1  UNL1       -0.1545
     22 C          -5.5302  -15.9504   24.1394 C.3     1  UNL1        0.0292
     23 C          -6.7847  -15.2041   23.7937 C.3     1  UNL1        0.1724
     24 C          -5.5321  -20.1428   20.6201 C.3     1  UNL1        0.0582
     25 C          -4.4172  -19.3789   21.2709 C.ar    1  UNL1        0.0044
     26 C          -4.2465  -19.1515   22.7437 C.ar    1  UNL1        0.0966
     27 N          -3.0012  -18.3403   22.9462 N.ar    1  UNL1       -0.2273
     28 C          -2.4022  -18.0663   21.5985 C.ar    1  UNL1        0.1402
     29 N          -1.1730  -17.3153   21.1804 N.ar    1  UNL1       -0.3377
     30 C          -0.8189  -17.2061   19.7269 C.ar    1  UNL1        0.0691
     31 C          -1.6941  -17.8480   18.6915 C.ar    1  UNL1       -0.0047
     32 C          -1.3400  -17.7388   17.2380 C.3     1  UNL1        0.0326
     33 C          -2.9234  -18.5990   19.1096 C.ar    1  UNL1       -0.0001
     34 C          -3.2774  -18.7082   20.5631 C.ar    1  UNL1        0.0315
     35 H          -0.5985  -16.8940   21.8599 H       1  UNL1        0.1674
@<TRIPOS>BOND
     1    22    23    1
     2    23    19    1
     3    19    20    2
     4    19    21    2
     5    19    17    1
     6    17    11    1
     7    11    12   ar
     8    12    13   ar
     9    13    14   ar
    10    14    15   ar
    11    15    16   ar
    12    16    10    1
    13    10     8    1
    14     8     1    1
    15     1     2   ar
    16     2     3   ar
    17     3     4   ar
    18     4    24    1
    19    24    25    1
    20    25    26   ar
    21    26    27   ar
    22    27    28   ar
    23    28    29   ar
    24    29    30   ar
    25    30    31   ar
    26    31    32    1
    27    31    33   ar
    28    33    34   ar
    29     4     5   ar
    30     5     6    1
    31     5     7   ar
    32    16    11   ar
    33     7     1   ar
    34    34    25   ar
    35    34    28    1
    36    17    18    1
    37     8     9    1
    38    29    35    1
@<TRIPOS>MOLECULE
*****
 35 38 0 0 0
SMALL
GASTEIGER

@<TRIPOS>ATOM
      1 C          -8.0680  -15.8181   23.9949 C.ar    1  UNL1        0.1311
      2 C          -7.5368  -16.7657   22.9606 C.ar    1  UNL1        0.0339
      3 C          -6.0700  -17.0756   22.9104 C.ar    1  UNL1        0.0027
      4 C          -5.1345  -16.4379   23.8944 C.ar    1  UNL1        0.0283
      5 C          -5.6658  -15.4903   24.9287 C.ar    1  UNL1        0.2196
      6 F          -4.7303  -14.8526   25.9126 F       1  UNL1       -0.1835
      7 N          -7.1326  -15.1804   24.9789 N.ar    1  UNL1       -0.2035
      8 N          -9.5348  -15.5081   24.0452 N.pl3   1  UNL1       -0.3144
      9 H          -9.8508  -14.6956   24.5027 H       1  UNL1        0.1485
     10 C         -10.5201  -16.4360   23.3985 C.3     1  UNL1        0.1166
     11 C         -10.2696  -18.8301   22.4211 C.ar    1  UNL1        0.0620
     12 C         -10.1513  -20.3112   22.6265 C.ar    1  UNL1        0.0156
     13 C         -10.1654  -20.8794   24.0147 C.ar    1  UNL1        0.0013
     14 C         -10.2978  -19.9664   25.1974 C.ar    1  UNL1       -0.0002
     15 C         -10.4160  -18.4853   24.9920 C.ar    1  UNL1       -0.0014
     16 C         -10.4019  -17.9171   23.6038 C.ar    1  UNL1        0.0120
     17 N         -10.2554  -18.2620   21.0329 N.pl3   1  UNL1       -0.2190
     18 H         -10.7737  -17.4504   20.8279 H       1  UNL1        0.1733
     19 S          -9.4518  -18.9302   19.9571 S.O2    1  UNL1        0.0539
     20 O         -10.7151  -19.4452   19.3333 O.2     1  UNL1       -0.1545
     21 O          -8.1885  -18.4154   20.5808 O.2     1  UNL1       -0.1545
     22 C          -9.1863  -20.8163   18.1900 C.3     1  UNL1        0.0292
     23 C          -8.6482  -19.5986   18.8812 C.3     1  UNL1        0.1724
     24 C          -3.6677  -16.7479   23.8441 C.3     1  UNL1        0.0582
     25 C          -3.0025  -17.0158   22.5266 C.ar    1  UNL1        0.0044
     26 C          -1.8566  -16.2427   21.9442 C.ar    1  UNL1        0.0966
     27 N          -1.5123  -16.8530   20.6179 N.ar    1  UNL1       -0.2273
     28 C          -2.4454  -18.0033   20.3807 C.ar    1  UNL1        0.1402
     29 N          -2.5755  -18.9720   19.2429 N.ar    1  UNL1       -0.3377
     30 C          -3.6265  -20.0413   19.2848 C.ar    1  UNL1        0.0691
     31 C          -4.5475  -20.1419   20.4645 C.ar    1  UNL1       -0.0047
     32 C          -5.5985  -21.2114   20.5063 C.3     1  UNL1        0.0326
     33 C          -4.4174  -19.1732   21.6023 C.ar    1  UNL1       -0.0001
     34 C          -3.3664  -18.1039   21.5604 C.ar    1  UNL1        0.0315
     35 H          -1.9710  -18.9059   18.4686 H       1  UNL1        0.1674
@<TRIPOS>BOND
     1    22    23    1
     2    23    19    1
     3    19    20    2
     4    19    21    2
     5    19    17    1
     6    17    11    1
     7    11    12   ar
     8    12    13   ar
     9    13    14   ar
    10    14    15   ar
    11    15    16   ar
    12    16    10    1
    13    10     8    1
    14     8     1    1
    15     1     2   ar
    16     2     3   ar
    17     3     4   ar
    18     4    24    1
    19    24    25    1
    20    25    26   ar
    21    26    27   ar
    22    27    28   ar
    23    28    29   ar
    24    29    30   ar
    25    30    31   ar
    26    31    32    1
    27    31    33   ar
    28    33    34   ar
    29     4     5   ar
    30     5     6    1
    31     5     7   ar
    32    16    11   ar
    33     7     1   ar
    34    34    25   ar
    35    34    28    1
    36    17    18    1
    37     8     9    1
    38    29    35    1
@<TRIPOS>MOLECULE
*****
 35 38 0 0 0
SMALL
GASTEIGER

@<TRIPOS>ATOM
      1 C          -6.4465  -15.6442   25.2228 C.ar    1  UNL1        0.1311
      2 C          -6.0752  -15.2844   23.8148 C.ar    1  UNL1        0.0339
      3 C          -4.8098  -15.8195   23.2129 C.ar    1  UNL1        0.0027
      4 C          -3.9157  -16.7144   24.0190 C.ar    1  UNL1        0.0283
      5 C          -4.2871  -17.0742   25.4270 C.ar    1  UNL1        0.2196
      6 F          -3.3930  -17.9692   26.2331 F       1  UNL1       -0.1835
      7 N          -5.5525  -16.5391   26.0289 N.ar    1  UNL1       -0.2035
      8 N          -7.7120  -15.1091   25.8248 N.pl3   1  UNL1       -0.3144
      9 H          -7.6848  -14.6358   26.6876 H       1  UNL1        0.1485
     10 C          -9.0188  -15.2951   25.1122 C.3     1  UNL1        0.1166
     11 C         -10.4044  -16.9591   23.6766 C.ar    1  UNL1        0.0620
     12 C         -10.9430  -18.3400   23.4460 C.ar    1  UNL1        0.0156
     13 C         -10.6344  -19.4377   24.4206 C.ar    1  UNL1        0.0013
     14 C          -9.7873  -19.1546   25.6257 C.ar    1  UNL1       -0.0002
     15 C          -9.2488  -17.7737   25.8562 C.ar    1  UNL1       -0.0014
     16 C          -9.5573  -16.6760   24.8817 C.ar    1  UNL1        0.0120
     17 N         -10.7130  -15.8614   22.7020 N.pl3   1  UNL1       -0.2190
     18 H         -10.7032  -14.9227   22.9986 H       1  UNL1        0.1733
     19 S         -11.0365  -16.1938   21.2756 S.O2    1  UNL1        0.0539
     20 O         -12.5009  -16.0903   21.5836 O.2     1  UNL1       -0.1545
     21 O          -9.5721  -16.2973   20.9675 O.2     1  UNL1       -0.1545
     22 C         -11.7366  -15.4347   18.8915 C.3     1  UNL1        0.0292
     23 C         -11.3601  -16.5262   19.8491 C.3     1  UNL1        0.1724
     24 C          -2.6502  -17.2496   23.4170 C.3     1  UNL1        0.0582
     25 C          -2.7136  -18.1803   22.2424 C.ar    1  UNL1        0.0044
     26 C          -1.5970  -18.4654   21.2821 C.ar    1  UNL1        0.0966
     27 N          -2.0980  -19.4506   20.2681 N.ar    1  UNL1       -0.2273
     28 C          -3.5241  -19.7745   20.6016 C.ar    1  UNL1        0.1402
     29 N          -4.5255  -20.6828   19.9519 N.ar    1  UNL1       -0.3377
     30 C          -5.9072  -20.8061   20.5223 C.ar    1  UNL1        0.0691
     31 C          -6.2877  -20.0210   21.7425 C.ar    1  UNL1       -0.0047
     32 C          -7.6695  -20.1442   22.3130 C.3     1  UNL1        0.0326
     33 C          -5.2864  -19.1126   22.3922 C.ar    1  UNL1       -0.0001
     34 C          -3.9046  -18.9894   21.8218 C.ar    1  UNL1        0.0315
     35 H          -4.2758  -21.1981   19.1510 H       1  UNL1        0.1674
@<TRIPOS>BOND
     1    22    23    1
     2    23    19    1
     3    19    20    2
     4    19    21    2
     5    19    17    1
     6    17    11    1
     7    11    12   ar
     8    12    13   ar
     9    13    14   ar
    10    14    15   ar
    11    15    16   ar
    12    16    10    1
    13    10     8    1
    14     8     1    1
    15     1     2   ar
    16     2     3   ar
    17     3     4   ar
    18     4    24    1
    19    24    25    1
    20    25    26   ar
    21    26    27   ar
    22    27    28   ar
    23    28    29   ar
    24    29    30   ar
    25    30    31   ar
    26    31    32    1
    27    31    33   ar
    28    33    34   ar
    29     4     5   ar
    30     5     6    1
    31     5     7   ar
    32    16    11   ar
    33     7     1   ar
    34    34    25   ar
    35    34    28    1
    36    17    18    1
    37     8     9    1
    38    29    35    1
@<TRIPOS>MOLECULE
*****
 35 38 0 0 0
SMALL
GASTEIGER

@<TRIPOS>ATOM
      1 C           6.1944   -2.7871   24.6017 C.ar    1  UNL1        0.1311
      2 C           4.7983   -2.4376   24.1787 C.ar    1  UNL1        0.0339
      3 C           4.3081   -2.8268   22.8157 C.ar    1  UNL1        0.0027
      4 C           5.2138   -3.5656   21.8755 C.ar    1  UNL1        0.0283
      5 C           6.6099   -3.9151   22.2984 C.ar    1  UNL1        0.2196
      6 F           7.5156   -4.6539   21.3582 F       1  UNL1       -0.1835
      7 N           7.1001   -3.5259   23.6615 N.ar    1  UNL1       -0.2035
      8 N           6.6848   -2.3979   25.9648 N.pl3   1  UNL1       -0.3144
      9 H           7.6146   -2.0981   26.0863 H       1  UNL1        0.1485
     10 C           5.7585   -2.4655   27.1427 C.3     1  UNL1        0.1166
     11 C           6.4409   -4.6917   28.2951 C.ar    1  UNL1        0.0620
     12 C           6.8473   -5.4457   29.5265 C.ar    1  UNL1        0.0156
     13 C           6.9775   -4.7274   30.8369 C.ar    1  UNL1        0.0013
     14 C           6.7014   -3.2552   30.9159 C.ar    1  UNL1       -0.0002
     15 C           6.2951   -2.5012   29.6845 C.ar    1  UNL1       -0.0014
     16 C           6.1648   -3.2195   28.3741 C.ar    1  UNL1        0.0120
     17 N           6.3107   -5.4100   26.9847 N.pl3   1  UNL1       -0.2190
     18 H           5.4569   -5.3898   26.4950 H       1  UNL1        0.1733
     19 S           7.4812   -6.1591   26.4204 S.O2    1  UNL1        0.0539
     20 O           8.3130   -4.9128   26.4914 O.2     1  UNL1       -0.1545
     21 O           6.6495   -7.4054   26.3494 O.2     1  UNL1       -0.1545
     22 C           8.5485   -7.5550   24.5066 C.3     1  UNL1        0.0292
     23 C           8.6519   -6.9082   25.8561 C.3     1  UNL1        0.1724
     24 C           4.7234   -3.9548   20.5123 C.3     1  UNL1        0.0582
     25 C           4.6746   -2.9350   19.4134 C.ar    1  UNL1        0.0044
     26 C           5.6415   -2.8215   18.2722 C.ar    1  UNL1        0.0966
     27 N           5.2147   -1.6660   17.4163 N.ar    1  UNL1       -0.2273
     28 C           3.9840   -1.0654   18.0284 C.ar    1  UNL1        0.1402
     29 N           3.1243    0.0943   17.6213 N.ar    1  UNL1       -0.3377
     30 C           1.9307    0.4698   18.4486 C.ar    1  UNL1        0.0691
     31 C           1.5969   -0.3145   19.6828 C.ar    1  UNL1       -0.0047
     32 C           0.4032    0.0610   20.5101 C.3     1  UNL1        0.0326
     33 C           2.4566   -1.4742   20.0899 C.ar    1  UNL1       -0.0001
     34 C           3.6502   -1.8497   19.2627 C.ar    1  UNL1        0.0315
     35 H           3.3433    0.6091   16.8112 H       1  UNL1        0.1674
@<TRIPOS>BOND
     1    22    23    1
     2    23    19    1
     3    19    20    2
     4    19    21    2
     5    19    17    1
     6    17    11    1
     7    11    12   ar
     8    12    13   ar
     9    13    14   ar
    10    14    15   ar
    11    15    16   ar
    12    16    10    1
    13    10     8    1
    14     8     1    1
    15     1     2   ar
    16     2     3   ar
    17     3     4   ar
    18     4    24    1
    19    24    25    1
    20    25    26   ar
    21    26    27   ar
    22    27    28   ar
    23    28    29   ar
    24    29    30   ar
    25    30    31   ar
    26    31    32    1
    27    31    33   ar
    28    33    34   ar
    29     4     5   ar
    30     5     6    1
    31     5     7   ar
    32    16    11   ar
    33     7     1   ar
    34    34    25   ar
    35    34    28    1
    36    17    18    1
    37     8     9    1
    38    29    35    1
@<TRIPOS>MOLECULE
*****
 35 38 0 0 0
SMALL
GASTEIGER

@<TRIPOS>ATOM
      1 C           6.9515   -3.1910   24.2401 C.ar    1  UNL1        0.1311
      2 C           5.4708   -2.9515   24.2595 C.ar    1  UNL1        0.0339
      3 C           4.6526   -3.2134   23.0300 C.ar    1  UNL1        0.0027
      4 C           5.3150   -3.7148   21.7810 C.ar    1  UNL1        0.0283
      5 C           6.7956   -3.9542   21.7616 C.ar    1  UNL1        0.2196
      6 F           7.4580   -4.4556   20.5127 F       1  UNL1       -0.1835
      7 N           7.6138   -3.6923   22.9912 N.ar    1  UNL1       -0.2035
      8 N           7.7697   -2.9291   25.4697 N.pl3   1  UNL1       -0.3144
      9 H           7.5849   -2.1370   26.0245 H       1  UNL1        0.1485
     10 C           8.8696   -3.8739   25.8541 C.3     1  UNL1        0.1166
     11 C           8.4197   -5.7543   27.5894 C.ar    1  UNL1        0.0620
     12 C           8.1032   -7.1875   27.8992 C.ar    1  UNL1        0.0156
     13 C           7.9201   -8.1732   26.7835 C.ar    1  UNL1        0.0013
     14 C           8.0535   -7.7258   25.3580 C.ar    1  UNL1       -0.0002
     15 C           8.3700   -6.2927   25.0482 C.ar    1  UNL1       -0.0014
     16 C           8.5531   -5.3070   26.1639 C.ar    1  UNL1        0.0120
     17 N           8.6027   -4.7686   28.7051 N.pl3   1  UNL1       -0.2190
     18 H           9.2393   -4.0243   28.6049 H       1  UNL1        0.1733
     19 S           7.8160   -4.9168   29.9736 S.O2    1  UNL1        0.0539
     20 O           6.5808   -4.4501   29.2620 O.2     1  UNL1       -0.1545
     21 O           9.0512   -5.3836   30.6852 O.2     1  UNL1       -0.1545
     22 C           6.6514   -3.8501   32.0366 C.3     1  UNL1        0.0292
     23 C           7.0293   -5.0651   31.2420 C.3     1  UNL1        0.1724
     24 C           4.4967   -3.9767   20.5514 C.3     1  UNL1        0.0582
     25 C           4.4792   -2.9752   19.4347 C.ar    1  UNL1        0.0044
     26 C           5.4355   -2.9253   18.2802 C.ar    1  UNL1        0.0966
     27 N           5.0496   -1.7671   17.4086 N.ar    1  UNL1       -0.2273
     28 C           3.8550   -1.1012   18.0245 C.ar    1  UNL1        0.1402
     29 N           3.0426    0.0885   17.6068 N.ar    1  UNL1       -0.3377
     30 C           1.8777    0.5316   18.4414 C.ar    1  UNL1        0.0691
     31 C           1.5251   -0.2150   19.6937 C.ar    1  UNL1       -0.0047
     32 C           0.3602    0.2281   20.5283 C.3     1  UNL1        0.0326
     33 C           2.3375   -1.4048   20.1114 C.ar    1  UNL1       -0.0001
     34 C           3.5024   -1.8479   19.2767 C.ar    1  UNL1        0.0315
     35 H           3.2740    0.5786   16.7849 H       1  UNL1        0.1674
@<TRIPOS>BOND
     1    22    23    1
     2    23    19    1
     3    19    20    2
     4    19    21    2
     5    19    17    1
     6    17    11    1
     7    11    12   ar
     8    12    13   ar
     9    13    14   ar
    10    14    15   ar
    11    15    16   ar
    12    16    10    1
    13    10     8    1
    14     8     1    1
    15     1     2   ar
    16     2     3   ar
    17     3     4   ar
    18     4    24    1
    19    24    25    1
    20    25    26   ar
    21    26    27   ar
    22    27    28   ar
    23    28    29   ar
    24    29    30   ar
    25    30    31   ar
    26    31    32    1
    27    31    33   ar
    28    33    34   ar
    29     4     5   ar
    30     5     6    1
    31     5     7   ar
    32    16    11   ar
    33     7     1   ar
    34    34    25   ar
    35    34    28    1
    36    17    18    1
    37     8     9    1
    38    29    35    1
@<TRIPOS>MOLECULE
*****
 35 38 0 0 0
SMALL
GASTEIGER

@<TRIPOS>ATOM
      1 C          -0.6608    2.1690   20.2939 C.ar    1  UNL1        0.1311
      2 C          -0.0211    2.8797   19.1382 C.ar    1  UNL1        0.0339
      3 C           1.0663    2.2075   18.3535 C.ar    1  UNL1        0.0027
      4 C           1.5139    0.8247   18.7244 C.ar    1  UNL1        0.0283
      5 C           0.8742    0.1141   19.8802 C.ar    1  UNL1        0.2196
      6 F           1.3218   -1.2686   20.2512 F       1  UNL1       -0.1835
      7 N          -0.2132    0.7863   20.6649 N.ar    1  UNL1       -0.2035
      8 N          -1.7482    2.8411   21.0787 N.pl3   1  UNL1       -0.3144
      9 H          -2.0436    2.4596   21.9369 H       1  UNL1        0.1485
     10 C          -2.3855    4.0944   20.5560 C.3     1  UNL1        0.1166
     11 C          -4.8268    4.6633   21.2389 C.ar    1  UNL1        0.0620
     12 C          -6.2929    4.6835   20.9227 C.ar    1  UNL1        0.0156
     13 C          -6.7839    4.1552   19.6075 C.ar    1  UNL1        0.0013
     14 C          -5.8087    3.6067   18.6084 C.ar    1  UNL1       -0.0002
     15 C          -4.3425    3.5864   18.9246 C.ar    1  UNL1       -0.0014
     16 C          -3.8516    4.1147   20.2399 C.ar    1  UNL1        0.0120
     17 N          -4.3358    5.1916   22.5542 N.pl3   1  UNL1       -0.2190
     18 H          -3.7269    5.9648   22.5777 H       1  UNL1        0.1733
     19 S          -4.7726    4.5419   23.8336 S.O2    1  UNL1        0.0539
     20 O          -3.9127    3.3526   23.5231 O.2     1  UNL1       -0.1545
     21 O          -5.6324    5.7311   24.1441 O.2     1  UNL1       -0.1545
     22 C          -4.3316    3.9622   26.3275 C.3     1  UNL1        0.0292
     23 C          -5.2093    3.8920   25.1130 C.3     1  UNL1        0.1724
     24 C           2.6013    0.1526   17.9396 C.3     1  UNL1        0.0582
     25 C           3.9199   -0.1464   18.5892 C.ar    1  UNL1        0.0044
     26 C           4.9871    0.8546   18.9196 C.ar    1  UNL1        0.0966
     27 N           6.1295    0.1208   19.5570 N.ar    1  UNL1       -0.2273
     28 C           5.7685   -1.3337   19.6205 C.ar    1  UNL1        0.1402
     29 N           6.5068   -2.5291   20.1456 N.ar    1  UNL1       -0.3377
     30 C           5.8795   -3.8897   20.0726 C.ar    1  UNL1        0.0691
     31 C           4.5139   -4.0548   19.4745 C.ar    1  UNL1       -0.0047
     32 C           3.8866   -5.4154   19.4015 C.3     1  UNL1        0.0326
     33 C           3.7756   -2.8594   18.9493 C.ar    1  UNL1       -0.0001
     34 C           4.4029   -1.4989   19.0223 C.ar    1  UNL1        0.0315
     35 H           7.4031   -2.4207   20.5382 H       1  UNL1        0.1674
@<TRIPOS>BOND
     1    22    23    1
     2    23    19    1
     3    19    20    2
     4    19    21    2
     5    19    17    1
     6    17    11    1
     7    11    12   ar
     8    12    13   ar
     9    13    14   ar
    10    14    15   ar
    11    15    16   ar
    12    16    10    1
    13    10     8    1
    14     8     1    1
    15     1     2   ar
    16     2     3   ar
    17     3     4   ar
    18     4    24    1
    19    24    25    1
    20    25    26   ar
    21    26    27   ar
    22    27    28   ar
    23    28    29   ar
    24    29    30   ar
    25    30    31   ar
    26    31    32    1
    27    31    33   ar
    28    33    34   ar
    29     4     5   ar
    30     5     6    1
    31     5     7   ar
    32    16    11   ar
    33     7     1   ar
    34    34    25   ar
    35    34    28    1
    36    17    18    1
    37     8     9    1
    38    29    35    1
@<TRIPOS>MOLECULE
*****
 35 38 0 0 0
SMALL
GASTEIGER

@<TRIPOS>ATOM
      1 C           5.2093   -3.2011   23.6334 C.ar    1  UNL1        0.1311
      2 C           4.3610   -1.9654   23.5747 C.ar    1  UNL1        0.0339
      3 C           3.6825   -1.5818   22.2931 C.ar    1  UNL1        0.0027
      4 C           3.8522   -2.4338   21.0703 C.ar    1  UNL1        0.0283
      5 C           4.7005   -3.6695   21.1291 C.ar    1  UNL1        0.2196
      6 F           4.8703   -4.5215   19.9063 F       1  UNL1       -0.1835
      7 N           5.3790   -4.0531   22.4106 N.ar    1  UNL1       -0.2035
      8 N           5.8878   -3.5848   24.9149 N.pl3   1  UNL1       -0.3144
      9 H           5.3602   -3.6870   25.7398 H       1  UNL1        0.1485
     10 C           7.3702   -3.8128   24.9398 C.3     1  UNL1        0.1166
     11 C           8.3206   -5.6428   26.5202 C.ar    1  UNL1        0.0620
     12 C           8.8633   -7.0256   26.7281 C.ar    1  UNL1        0.0156
     13 C           8.9985   -7.9612   25.5634 C.ar    1  UNL1        0.0013
     14 C           8.5909   -7.5139   24.1909 C.ar    1  UNL1       -0.0002
     15 C           8.0482   -6.1311   23.9830 C.ar    1  UNL1       -0.0014
     16 C           7.9130   -5.1956   25.1477 C.ar    1  UNL1        0.0120
     17 N           8.1854   -4.7072   27.6849 N.pl3   1  UNL1       -0.2190
     18 H           8.5097   -3.7806   27.6121 H       1  UNL1        0.1733
     19 S           7.5560   -5.1835   28.9604 S.O2    1  UNL1        0.0539
     20 O           8.8876   -5.1053   29.6466 O.2     1  UNL1       -0.1545
     21 O           6.2244   -5.2616   28.2743 O.2     1  UNL1       -0.1545
     22 C           6.9959   -4.8092   31.4697 C.3     1  UNL1        0.0292
     23 C           6.9267   -5.6597   30.2360 C.3     1  UNL1        0.1724
     24 C           3.1737   -2.0501   19.7887 C.3     1  UNL1        0.0582
     25 C           2.3662   -0.7880   19.7162 C.ar    1  UNL1        0.0044
     26 C           0.9405   -0.6271   20.1538 C.ar    1  UNL1        0.0966
     27 N           0.5359    0.7950   19.9015 N.ar    1  UNL1       -0.2273
     28 C           1.7116    1.5131   19.3080 C.ar    1  UNL1        0.1402
     29 N           1.8982    2.9315   18.8570 N.ar    1  UNL1       -0.3377
     30 C           3.2160    3.3714   18.2915 C.ar    1  UNL1        0.0691
     31 C           4.3472    2.3930   18.1770 C.ar    1  UNL1       -0.0047
     32 C           5.6651    2.8330   17.6116 C.3     1  UNL1        0.0326
     33 C           4.1606    0.9747   18.6280 C.ar    1  UNL1       -0.0001
     34 C           2.8428    0.5347   19.1935 C.ar    1  UNL1        0.0315
     35 H           1.1557    3.5736   18.9321 H       1  UNL1        0.1674
@<TRIPOS>BOND
     1    22    23    1
     2    23    19    1
     3    19    20    2
     4    19    21    2
     5    19    17    1
     6    17    11    1
     7    11    12   ar
     8    12    13   ar
     9    13    14   ar
    10    14    15   ar
    11    15    16   ar
    12    16    10    1
    13    10     8    1
    14     8     1    1
    15     1     2   ar
    16     2     3   ar
    17     3     4   ar
    18     4    24    1
    19    24    25    1
    20    25    26   ar
    21    26    27   ar
    22    27    28   ar
    23    28    29   ar
    24    29    30   ar
    25    30    31   ar
    26    31    32    1
    27    31    33   ar
    28    33    34   ar
    29     4     5   ar
    30     5     6    1
    31     5     7   ar
    32    16    11   ar
    33     7     1   ar
    34    34    25   ar
    35    34    28    1
    36    17    18    1
    37     8     9    1
    38    29    35    1
@<TRIPOS>MOLECULE
*****
 35 38 0 0 0
SMALL
GASTEIGER

@<TRIPOS>ATOM
      1 C          -0.6216    2.2591   20.4690 C.ar    1  UNL1        0.1311
      2 C           0.0272    3.0075   19.3425 C.ar    1  UNL1        0.0339
      3 C           1.0731    2.3378   18.5013 C.ar    1  UNL1        0.0027
      4 C           1.4702    0.9198   18.7866 C.ar    1  UNL1        0.0283
      5 C           0.8215    0.1713   19.9131 C.ar    1  UNL1        0.2196
      6 F           1.2186   -1.2467   20.1984 F       1  UNL1       -0.1835
      7 N          -0.2244    0.8410   20.7543 N.ar    1  UNL1       -0.2035
      8 N          -1.6675    2.9287   21.3102 N.pl3   1  UNL1       -0.3144
      9 H          -2.6209    2.7421   21.1510 H       1  UNL1        0.1485
     10 C          -1.2608    3.8827   22.3940 C.3     1  UNL1        0.1166
     11 C          -2.4362    4.0122   24.7073 C.ar    1  UNL1        0.0620
     12 C          -2.5231    3.5947   26.1454 C.ar    1  UNL1        0.0156
     13 C          -1.5215    2.6303   26.7083 C.ar    1  UNL1        0.0013
     14 C          -0.4330    2.0834   25.8330 C.ar    1  UNL1       -0.0002
     15 C          -0.3461    2.5009   24.3949 C.ar    1  UNL1       -0.0014
     16 C          -1.3477    3.4653   23.8321 C.ar    1  UNL1        0.0120
     17 N          -3.4378    4.9765   24.1445 N.pl3   1  UNL1       -0.2190
     18 H          -3.1319    5.7865   23.6760 H       1  UNL1        0.1733
     19 S          -4.9056    4.7069   24.2955 S.O2    1  UNL1        0.0539
     20 O          -4.7765    3.5061   23.4058 O.2     1  UNL1       -0.1545
     21 O          -5.0347    5.9076   25.1852 O.2     1  UNL1       -0.1545
     22 C          -7.2578    4.4007   23.2354 C.3     1  UNL1        0.0292
     23 C          -6.3734    4.4371   24.4465 C.3     1  UNL1        0.1724
     24 C           2.5162    0.2501   17.9454 C.3     1  UNL1        0.0582
     25 C           3.8694   -0.0419   18.5230 C.ar    1  UNL1        0.0044
     26 C           4.9595    0.9596   18.7651 C.ar    1  UNL1        0.0966
     27 N           6.1338    0.2338   19.3516 N.ar    1  UNL1       -0.2273
     28 C           5.7696   -1.2164   19.4719 C.ar    1  UNL1        0.1402
     29 N           6.5314   -2.4037   19.9817 N.ar    1  UNL1       -0.3377
     30 C           5.8937   -3.7613   19.9793 C.ar    1  UNL1        0.0691
     31 C           4.4942   -3.9317   19.4671 C.ar    1  UNL1       -0.0047
     32 C           3.8565   -5.2895   19.4648 C.3     1  UNL1        0.0326
     33 C           3.7323   -2.7444   18.9574 C.ar    1  UNL1       -0.0001
     34 C           4.3700   -1.3867   18.9598 C.ar    1  UNL1        0.0315
     35 H           7.4500   -2.2918   20.3178 H       1  UNL1        0.1674
@<TRIPOS>BOND
     1    22    23    1
     2    23    19    1
     3    19    20    2
     4    19    21    2
     5    19    17    1
     6    17    11    1
     7    11    12   ar
     8    12    13   ar
     9    13    14   ar
    10    14    15   ar
    11    15    16   ar
    12    16    10    1
    13    10     8    1
    14     8     1    1
    15     1     2   ar
    16     2     3   ar
    17     3     4   ar
    18     4    24    1
    19    24    25    1
    20    25    26   ar
    21    26    27   ar
    22    27    28   ar
    23    28    29   ar
    24    29    30   ar
    25    30    31   ar
    26    31    32    1
    27    31    33   ar
    28    33    34   ar
    29     4     5   ar
    30     5     6    1
    31     5     7   ar
    32    16    11   ar
    33     7     1   ar
    34    34    25   ar
    35    34    28    1
    36    17    18    1
    37     8     9    1
    38    29    35    1
@<TRIPOS>MOLECULE
*****
 35 38 0 0 0
SMALL
GASTEIGER

@<TRIPOS>ATOM
      1 C          -0.6610    2.2715   20.4576 C.ar    1  UNL1        0.1311
      2 C           0.0389    3.0621   19.3922 C.ar    1  UNL1        0.0339
      3 C           1.1114    2.4191   18.5638 C.ar    1  UNL1        0.0027
      4 C           1.4840    0.9856   18.8008 C.ar    1  UNL1        0.0283
      5 C           0.7840    0.1950   19.8662 C.ar    1  UNL1        0.2196
      6 F           1.1566   -1.2386   20.1032 F       1  UNL1       -0.1835
      7 N          -0.2884    0.8380   20.6946 N.ar    1  UNL1       -0.2035
      8 N          -1.7336    2.9144   21.2861 N.pl3   1  UNL1       -0.3144
      9 H          -1.5609    3.1346   22.2300 H       1  UNL1        0.1485
     10 C          -3.0692    3.2219   20.6765 C.3     1  UNL1        0.1166
     11 C          -5.5621    3.9022   20.9458 C.ar    1  UNL1        0.0620
     12 C          -6.7264    4.2482   21.8259 C.ar    1  UNL1        0.0156
     13 C          -6.5621    4.2598   23.3168 C.ar    1  UNL1        0.0013
     14 C          -5.2335    3.9255   23.9276 C.ar    1  UNL1       -0.0002
     15 C          -4.0692    3.5795   23.0475 C.ar    1  UNL1       -0.0014
     16 C          -4.2335    3.5679   21.5565 C.ar    1  UNL1        0.0120
     17 N          -5.7264    3.8906   19.4548 N.pl3   1  UNL1       -0.2190
     18 H          -5.3122    3.1757   18.9195 H       1  UNL1        0.1733
     19 S          -6.5218    4.9681   18.7795 S.O2    1  UNL1        0.0539
     20 O          -7.5894    3.9694   18.4433 O.2     1  UNL1       -0.1545
     21 O          -5.4542    5.9668   19.1155 O.2     1  UNL1       -0.1545
     22 C          -8.4786    6.6769   18.8132 C.3     1  UNL1        0.0292
     23 C          -7.3172    6.0457   18.1041 C.3     1  UNL1        0.1724
     24 C           2.5565    0.3426   17.9723 C.3     1  UNL1        0.0582
     25 C           3.9008    0.0593   18.5746 C.ar    1  UNL1        0.0044
     26 C           4.9541    1.0770   18.8984 C.ar    1  UNL1        0.0966
     27 N           6.1320    0.3551   19.4827 N.ar    1  UNL1       -0.2273
     28 C           5.8067   -1.1087   19.5200 C.ar    1  UNL1        0.1402
     29 N           6.5881   -2.2987   19.9925 N.ar    1  UNL1       -0.3377
     30 C           5.9904   -3.6716   19.9037 C.ar    1  UNL1        0.0691
     31 C           4.6115   -3.8545   19.3424 C.ar    1  UNL1       -0.0047
     32 C           4.0138   -5.2275   19.2537 C.3     1  UNL1        0.0326
     33 C           3.8301   -2.6645   18.8699 C.ar    1  UNL1       -0.0001
     34 C           4.4278   -1.2916   18.9587 C.ar    1  UNL1        0.0315
     35 H           7.4931   -2.1787   20.3608 H       1  UNL1        0.1674
@<TRIPOS>BOND
     1    22    23    1
     2    23    19    1
     3    19    20    2
     4    19    21    2
     5    19    17    1
     6    17    11    1
     7    11    12   ar
     8    12    13   ar
     9    13    14   ar
    10    14    15   ar
    11    15    16   ar
    12    16    10    1
    13    10     8    1
    14     8     1    1
    15     1     2   ar
    16     2     3   ar
    17     3     4   ar
    18     4    24    1
    19    24    25    1
    20    25    26   ar
    21    26    27   ar
    22    27    28   ar
    23    28    29   ar
    24    29    30   ar
    25    30    31   ar
    26    31    32    1
    27    31    33   ar
    28    33    34   ar
    29     4     5   ar
    30     5     6    1
    31     5     7   ar
    32    16    11   ar
    33     7     1   ar
    34    34    25   ar
    35    34    28    1
    36    17    18    1
    37     8     9    1
    38    29    35    1
