@<TRIPOS>MOLECULE
*****
 23 25 0 0 0
SMALL
GASTEIGER

@<TRIPOS>ATOM
      1 C          -7.5589  -16.5695   23.4188 C.ar    1  UNL1        0.2035
      2 N          -6.4382  -17.2654   22.7048 N.ar    1  UNL1       -0.2147
      3 C          -5.0377  -17.1685   23.2330 C.ar    1  UNL1        0.0911
      4 C          -4.7578  -16.3756   24.4753 C.ar    1  UNL1        0.0801
      5 C          -5.8785  -15.6797   25.1893 C.ar    1  UNL1        0.2645
      6 O          -5.5987  -14.8869   26.4315 O.2     1  UNL1       -0.2668
      7 N          -7.2791  -15.7767   24.6610 N.ar    1  UNL1       -0.2667
      8 C          -8.3998  -15.0808   25.3750 C.3     1  UNL1        0.1363
      9 C          -9.5652  -18.3209   24.8000 C.3     1  UNL1        0.0241
     10 C          -9.9626  -17.5422   23.5811 C.3     1  UNL1        0.1027
     11 C         -11.3631  -17.6391   23.0528 C.3     1  UNL1        0.1334
     12 C         -12.3663  -18.5148   23.7434 C.3     1  UNL1        0.0338
     13 O         -11.7605  -16.8603   21.8340 O.3     1  UNL1       -0.3527
     14 C         -10.7575  -15.9847   21.1434 C.3     1  UNL1        0.1635
     15 C          -9.3569  -15.8877   21.6717 C.3     1  UNL1        0.1256
     16 N          -8.9595  -16.6665   22.8905 N.pl3   1  UNL1       -0.2761
     17 C          -3.9170  -17.8644   22.5191 C.ar    1  UNL1        0.0485
     18 C          -3.9610  -19.3508   22.3231 C.ar    1  UNL1        0.0244
     19 C          -2.8403  -20.0467   21.6092 C.ar    1  UNL1        0.0991
     20 N          -1.6756  -19.2562   21.0911 N.ar    1  UNL1       -0.2400
     21 C          -1.6315  -17.7696   21.2870 C.ar    1  UNL1        0.1285
     22 C          -2.7522  -17.0737   22.0010 C.ar    1  UNL1        0.1606
     23 F          -2.7082  -15.5872   22.1969 F       1  UNL1       -0.2025
@<TRIPOS>BOND
     1    10     9    1
     2    10    11    1
     3    11    12    1
     4    11    13    1
     5    13    14    1
     6    14    15    1
     7    15    16    1
     8    16     1    1
     9     1     2   ar
    10     2     3   ar
    11     3    17    1
    12    17    18   ar
    13    18    19   ar
    14    19    20   ar
    15    20    21   ar
    16    21    22   ar
    17    22    23    1
    18     3     4   ar
    19     4     5   ar
    20     5     6    2
    21     5     7   ar
    22     7     8    1
    23    16    10    1
    24     7     1   ar
    25    22    17   ar
@<TRIPOS>MOLECULE
*****
 23 25 0 0 0
SMALL
GASTEIGER

@<TRIPOS>ATOM
      1 C          -7.7837  -17.1687   23.3827 C.ar    1  UNL1        0.2035
      2 N          -6.6919  -17.9398   22.7021 N.ar    1  UNL1       -0.2147
      3 C          -5.2556  -17.5922   22.9594 C.ar    1  UNL1        0.0911
      4 C          -4.9111  -16.4735   23.8975 C.ar    1  UNL1        0.0801
      5 C          -6.0030  -15.7024   24.5782 C.ar    1  UNL1        0.2645
      6 O          -5.6586  -14.5838   25.5162 O.2     1  UNL1       -0.2668
      7 N          -7.4393  -16.0501   24.3208 N.ar    1  UNL1       -0.2667
      8 C          -8.5312  -15.2790   25.0014 C.3     1  UNL1        0.1363
      9 C          -9.3516  -15.6434   21.3296 C.3     1  UNL1        0.0241
     10 C         -10.0040  -16.7538   22.0988 C.3     1  UNL1        0.1027
     11 C         -11.4402  -17.1014   21.8415 C.3     1  UNL1        0.1334
     12 C         -12.2242  -16.3388   20.8149 C.3     1  UNL1        0.0338
     13 O         -12.0926  -18.2117   22.6107 O.3     1  UNL1       -0.3527
     14 C         -11.3086  -18.9744   23.6372 C.3     1  UNL1        0.1635
     15 C          -9.8724  -18.6267   23.8945 C.3     1  UNL1        0.1256
     16 N          -9.2201  -17.5164   23.1254 N.pl3   1  UNL1       -0.2761
     17 C          -4.1638  -18.3632   22.2787 C.ar    1  UNL1        0.0485
     18 C          -2.7272  -18.0356   22.5592 C.ar    1  UNL1        0.0244
     19 C          -1.6353  -18.8066   21.8785 C.ar    1  UNL1        0.0991
     20 N          -1.9801  -19.9054   20.9173 N.ar    1  UNL1       -0.2400
     21 C          -3.4167  -20.2331   20.6368 C.ar    1  UNL1        0.1285
     22 C          -4.5086  -19.4620   21.3175 C.ar    1  UNL1        0.1606
     23 F          -5.9452  -19.7897   21.0370 F       1  UNL1       -0.2025
@<TRIPOS>BOND
     1    10     9    1
     2    10    11    1
     3    11    12    1
     4    11    13    1
     5    13    14    1
     6    14    15    1
     7    15    16    1
     8    16     1    1
     9     1     2   ar
    10     2     3   ar
    11     3    17    1
    12    17    18   ar
    13    18    19   ar
    14    19    20   ar
    15    20    21   ar
    16    21    22   ar
    17    22    23    1
    18     3     4   ar
    19     4     5   ar
    20     5     6    2
    21     5     7   ar
    22     7     8    1
    23    16    10    1
    24     7     1   ar
    25    22    17   ar
@<TRIPOS>MOLECULE
*****
 23 25 0 0 0
SMALL
GASTEIGER

@<TRIPOS>ATOM
      1 C          -9.1080  -18.5888   21.1823 C.ar    1  UNL1        0.2035
      2 N          -7.7208  -18.4172   21.7267 N.ar    1  UNL1       -0.2147
      3 C          -6.5643  -19.1039   21.0628 C.ar    1  UNL1        0.0911
      4 C          -6.7949  -19.9623   19.8544 C.ar    1  UNL1        0.0801
      5 C          -8.1821  -20.1339   19.3100 C.ar    1  UNL1        0.2645
      6 O          -8.4127  -20.9922   18.1017 O.2     1  UNL1       -0.2668
      7 N          -9.3386  -19.4471   19.9740 N.ar    1  UNL1       -0.2667
      8 C         -10.7258  -19.6187   19.4296 C.3     1  UNL1        0.1363
      9 C         -10.6705  -20.0060   23.3154 C.3     1  UNL1        0.0241
     10 C         -11.0458  -18.6106   22.9128 C.3     1  UNL1        0.1027
     11 C         -12.2023  -17.9239   23.5768 C.3     1  UNL1        0.1334
     12 C         -12.9836  -18.6325   24.6433 C.3     1  UNL1        0.0338
     13 O         -12.5775  -16.5285   23.1742 O.3     1  UNL1       -0.3527
     14 C         -11.7963  -15.8198   22.1077 C.3     1  UNL1        0.1635
     15 C         -10.6398  -16.5066   21.4437 C.3     1  UNL1        0.1256
     16 N         -10.2646  -17.9020   21.8463 N.pl3   1  UNL1       -0.2761
     17 C          -5.1772  -18.9323   21.6072 C.ar    1  UNL1        0.0485
     18 C          -4.9388  -18.0310   22.7822 C.ar    1  UNL1        0.0244
     19 C          -3.5516  -17.8594   23.3266 C.ar    1  UNL1        0.0991
     20 N          -2.4029  -18.5891   22.6960 N.ar    1  UNL1       -0.2400
     21 C          -2.6412  -19.4905   21.5209 C.ar    1  UNL1        0.1285
     22 C          -4.0284  -19.6621   20.9765 C.ar    1  UNL1        0.1606
     23 F          -4.2667  -20.5634   19.8014 F       1  UNL1       -0.2025
@<TRIPOS>BOND
     1    10     9    1
     2    10    11    1
     3    11    12    1
     4    11    13    1
     5    13    14    1
     6    14    15    1
     7    15    16    1
     8    16     1    1
     9     1     2   ar
    10     2     3   ar
    11     3    17    1
    12    17    18   ar
    13    18    19   ar
    14    19    20   ar
    15    20    21   ar
    16    21    22   ar
    17    22    23    1
    18     3     4   ar
    19     4     5   ar
    20     5     6    2
    21     5     7   ar
    22     7     8    1
    23    16    10    1
    24     7     1   ar
    25    22    17   ar
@<TRIPOS>MOLECULE
*****
 23 25 0 0 0
SMALL
GASTEIGER

@<TRIPOS>ATOM
      1 C          -7.8416  -18.8199   21.9402 C.ar    1  UNL1        0.2035
      2 N          -6.3495  -18.7183   21.8251 N.ar    1  UNL1       -0.2147
      3 C          -5.6683  -19.0996   20.5442 C.ar    1  UNL1        0.0911
      4 C          -6.4793  -19.5825   19.3784 C.ar    1  UNL1        0.0801
      5 C          -7.9714  -19.6842   19.4935 C.ar    1  UNL1        0.2645
      6 O          -8.7824  -20.1671   18.3277 O.2     1  UNL1       -0.2668
      7 N          -8.6526  -19.3028   20.7744 N.ar    1  UNL1       -0.2667
      8 C         -10.1447  -19.4044   20.8895 C.3     1  UNL1        0.1363
      9 C          -7.5512  -16.0371   23.0228 C.3     1  UNL1        0.0241
     10 C          -8.3775  -17.0472   23.7624 C.3     1  UNL1        0.1027
     11 C          -9.0586  -16.6659   25.0433 C.3     1  UNL1        0.1334
     12 C          -8.9134  -15.2745   25.5846 C.3     1  UNL1        0.0338
     13 O          -9.8849  -17.6760   25.7828 O.3     1  UNL1       -0.3527
     14 C         -10.0301  -19.0673   25.2416 C.3     1  UNL1        0.1635
     15 C          -9.3490  -19.4486   23.9607 C.3     1  UNL1        0.1256
     16 N          -8.5227  -18.4385   23.2211 N.pl3   1  UNL1       -0.2761
     17 C          -4.1762  -18.9979   20.4291 C.ar    1  UNL1        0.0485
     18 C          -3.5544  -18.4936   19.1607 C.ar    1  UNL1        0.0244
     19 C          -2.0623  -18.3920   19.0456 C.ar    1  UNL1        0.0991
     20 N          -1.1920  -18.7947   20.1989 N.ar    1  UNL1       -0.2400
     21 C          -1.8137  -19.2990   21.4675 C.ar    1  UNL1        0.1285
     22 C          -3.3058  -19.4007   21.5826 C.ar    1  UNL1        0.1606
     23 F          -3.9276  -19.9050   22.8510 F       1  UNL1       -0.2025
@<TRIPOS>BOND
     1    10     9    1
     2    10    11    1
     3    11    12    1
     4    11    13    1
     5    13    14    1
     6    14    15    1
     7    15    16    1
     8    16     1    1
     9     1     2   ar
    10     2     3   ar
    11     3    17    1
    12    17    18   ar
    13    18    19   ar
    14    19    20   ar
    15    20    21   ar
    16    21    22   ar
    17    22    23    1
    18     3     4   ar
    19     4     5   ar
    20     5     6    2
    21     5     7   ar
    22     7     8    1
    23    16    10    1
    24     7     1   ar
    25    22    17   ar
@<TRIPOS>MOLECULE
*****
 23 25 0 0 0
SMALL
GASTEIGER

@<TRIPOS>ATOM
      1 C          -8.8752  -19.0134   21.5067 C.ar    1  UNL1        0.2035
      2 N          -7.4622  -18.8259   21.9738 N.ar    1  UNL1       -0.2147
      3 C          -6.3198  -19.2053   21.0788 C.ar    1  UNL1        0.0911
      4 C          -6.5905  -19.7723   19.7167 C.ar    1  UNL1        0.0801
      5 C          -8.0035  -19.9598   19.2496 C.ar    1  UNL1        0.2645
      6 O          -8.2742  -20.5267   17.8875 O.2     1  UNL1       -0.2668
      7 N          -9.1459  -19.5804   20.1446 N.ar    1  UNL1       -0.2667
      8 C         -10.5589  -19.7679   19.6775 C.3     1  UNL1        0.1363
      9 C         -10.3612  -16.4499   21.0374 C.3     1  UNL1        0.0241
     10 C         -10.7605  -17.3523   22.1671 C.3     1  UNL1        0.1027
     11 C         -11.9029  -16.9729   23.0621 C.3     1  UNL1        0.1334
     12 C         -12.6459  -15.6911   22.8275 C.3     1  UNL1        0.0338
     13 O         -12.3022  -17.8753   24.1918 O.3     1  UNL1       -0.3527
     14 C         -11.5593  -19.1570   24.4265 C.3     1  UNL1        0.1635
     15 C         -10.4170  -19.5364   23.5315 C.3     1  UNL1        0.1256
     16 N         -10.0176  -18.6340   22.4018 N.pl3   1  UNL1       -0.2761
     17 C          -4.9068  -19.0178   21.5459 C.ar    1  UNL1        0.0485
     18 C          -3.8012  -19.8264   20.9345 C.ar    1  UNL1        0.0244
     19 C          -2.3882  -19.6389   21.4016 C.ar    1  UNL1        0.0991
     20 N          -2.0807  -18.6428   22.4801 N.ar    1  UNL1       -0.2400
     21 C          -3.1863  -17.8341   23.0915 C.ar    1  UNL1        0.1285
     22 C          -4.5994  -18.0216   22.6244 C.ar    1  UNL1        0.1606
     23 F          -5.7049  -17.2130   23.2358 F       1  UNL1       -0.2025
@<TRIPOS>BOND
     1    10     9    1
     2    10    11    1
     3    11    12    1
     4    11    13    1
     5    13    14    1
     6    14    15    1
     7    15    16    1
     8    16     1    1
     9     1     2   ar
    10     2     3   ar
    11     3    17    1
    12    17    18   ar
    13    18    19   ar
    14    19    20   ar
    15    20    21   ar
    16    21    22   ar
    17    22    23    1
    18     3     4   ar
    19     4     5   ar
    20     5     6    2
    21     5     7   ar
    22     7     8    1
    23    16    10    1
    24     7     1   ar
    25    22    17   ar
@<TRIPOS>MOLECULE
*****
 23 25 0 0 0
SMALL
GASTEIGER

@<TRIPOS>ATOM
      1 C         -12.9536   -5.0036   18.0198 C.ar    1  UNL1        0.2035
      2 N         -13.2551   -3.5456   17.8370 N.ar    1  UNL1       -0.2147
      3 C         -12.2173   -2.5169   18.1756 C.ar    1  UNL1        0.0911
      4 C         -10.8779   -2.9462   18.6970 C.ar    1  UNL1        0.0801
      5 C         -10.5764   -4.4041   18.8799 C.ar    1  UNL1        0.2645
      6 O          -9.2370   -4.8334   19.4013 O.2     1  UNL1       -0.2668
      7 N         -11.6142   -5.4329   18.5413 N.ar    1  UNL1       -0.2667
      8 C         -11.3127   -6.8908   18.7241 C.3     1  UNL1        0.1363
      9 C         -15.0020   -5.7968   20.0631 C.3     1  UNL1        0.0241
     10 C         -15.0156   -6.4289   18.7028 C.3     1  UNL1        0.1027
     11 C         -16.0534   -7.4576   18.3642 C.3     1  UNL1        0.1334
     12 C         -17.0777   -7.8542   19.3858 C.3     1  UNL1        0.0338
     13 O         -16.0670   -8.0897   17.0039 O.3     1  UNL1       -0.3527
     14 C         -15.0429   -7.6931   15.9823 C.3     1  UNL1        0.1635
     15 C         -14.0051   -6.6644   16.3210 C.3     1  UNL1        0.1256
     16 N         -13.9914   -6.0323   17.6812 N.pl3   1  UNL1       -0.2761
     17 C         -12.5188   -1.0590   17.9927 C.ar    1  UNL1        0.0485
     18 C         -13.7811   -0.4776   18.5572 C.ar    1  UNL1        0.0244
     19 C         -14.0826    0.9804   18.3743 C.ar    1  UNL1        0.0991
     20 N         -13.1218    1.8570   17.6270 N.ar    1  UNL1       -0.2400
     21 C         -11.8595    1.2756   17.0625 C.ar    1  UNL1        0.1285
     22 C         -11.5580   -0.1824   17.2454 C.ar    1  UNL1        0.1606
     23 F         -10.2957   -0.7637   16.6809 F       1  UNL1       -0.2025
@<TRIPOS>BOND
     1    10     9    1
     2    10    11    1
     3    11    12    1
     4    11    13    1
     5    13    14    1
     6    14    15    1
     7    15    16    1
     8    16     1    1
     9     1     2   ar
    10     2     3   ar
    11     3    17    1
    12    17    18   ar
    13    18    19   ar
    14    19    20   ar
    15    20    21   ar
    16    21    22   ar
    17    22    23    1
    18     3     4   ar
    19     4     5   ar
    20     5     6    2
    21     5     7   ar
    22     7     8    1
    23    16    10    1
    24     7     1   ar
    25    22    17   ar
@<TRIPOS>MOLECULE
*****
 23 25 0 0 0
SMALL
GASTEIGER

@<TRIPOS>ATOM
      1 C         -13.2868   -3.4141   18.2055 C.ar    1  UNL1        0.2035
      2 N         -14.1378   -4.6485   18.2532 N.ar    1  UNL1       -0.2147
      3 C         -13.5357   -5.9590   18.6654 C.ar    1  UNL1        0.0911
      4 C         -12.0826   -6.0353   19.0299 C.ar    1  UNL1        0.0801
      5 C         -11.2316   -4.8009   18.9822 C.ar    1  UNL1        0.2645
      6 O          -9.7786   -4.8771   19.3467 O.2     1  UNL1       -0.2668
      7 N         -11.8338   -3.4903   18.5700 N.ar    1  UNL1       -0.2667
      8 C         -10.9828   -2.2560   18.5223 C.3     1  UNL1        0.1363
      9 C         -14.8749   -1.8063   20.1785 C.3     1  UNL1        0.0241
     10 C         -14.6830   -1.2996   18.7798 C.3     1  UNL1        0.1027
     11 C         -15.2850    0.0109   18.3676 C.3     1  UNL1        0.1334
     12 C         -16.0791    0.8148   19.3541 C.3     1  UNL1        0.0338
     13 O         -15.0931    0.5175   16.9688 O.3     1  UNL1       -0.3527
     14 C         -14.2991   -0.2864   15.9823 C.3     1  UNL1        0.1635
     15 C         -13.6970   -1.5969   16.3946 C.3     1  UNL1        0.1256
     16 N         -13.8889   -2.1035   17.7933 N.pl3   1  UNL1       -0.2761
     17 C         -14.3867   -7.1933   18.7131 C.ar    1  UNL1        0.0485
     18 C         -15.5752   -7.2501   19.6264 C.ar    1  UNL1        0.0244
     19 C         -16.4261   -8.4844   19.6741 C.ar    1  UNL1        0.0991
     20 N         -16.0886   -9.6620   18.8085 N.ar    1  UNL1       -0.2400
     21 C         -14.9000   -9.6053   17.8952 C.ar    1  UNL1        0.1285
     22 C         -14.0490   -8.3710   17.8475 C.ar    1  UNL1        0.1606
     23 F         -12.8605   -8.3142   16.9342 F       1  UNL1       -0.2025
@<TRIPOS>BOND
     1    10     9    1
     2    10    11    1
     3    11    12    1
     4    11    13    1
     5    13    14    1
     6    14    15    1
     7    15    16    1
     8    16     1    1
     9     1     2   ar
    10     2     3   ar
    11     3    17    1
    12    17    18   ar
    13    18    19   ar
    14    19    20   ar
    15    20    21   ar
    16    21    22   ar
    17    22    23    1
    18     3     4   ar
    19     4     5   ar
    20     5     6    2
    21     5     7   ar
    22     7     8    1
    23    16    10    1
    24     7     1   ar
    25    22    17   ar
@<TRIPOS>MOLECULE
*****
 23 25 0 0 0
SMALL
GASTEIGER

@<TRIPOS>ATOM
      1 C         -13.6404   -5.7956   18.7686 C.ar    1  UNL1        0.2035
      2 N         -14.5354   -6.9227   18.3461 N.ar    1  UNL1       -0.2147
      3 C         -16.0011   -6.8751   18.6615 C.ar    1  UNL1        0.0911
      4 C         -16.5717   -5.7005   19.3995 C.ar    1  UNL1        0.0801
      5 C         -15.6767   -4.5734   19.8221 C.ar    1  UNL1        0.2645
      6 O         -16.2473   -3.3988   20.5601 O.2     1  UNL1       -0.2668
      7 N         -14.2109   -4.6210   19.5066 N.ar    1  UNL1       -0.2667
      8 C         -13.3159   -3.4939   19.9292 C.3     1  UNL1        0.1363
      9 C         -12.5115   -4.0375   16.6158 C.3     1  UNL1        0.0241
     10 C         -11.6102   -4.9642   17.3767 C.3     1  UNL1        0.1027
     11 C         -10.1446   -5.0118   17.0613 C.3     1  UNL1        0.1334
     12 C          -9.5801   -4.1327   15.9849 C.3     1  UNL1        0.0338
     13 O          -9.2433   -5.9384   17.8223 O.3     1  UNL1       -0.3527
     14 C          -9.8077   -6.8174   18.8987 C.3     1  UNL1        0.1635
     15 C         -11.2734   -6.7698   19.2141 C.3     1  UNL1        0.1256
     16 N         -12.1746   -5.8432   18.4532 N.pl3   1  UNL1       -0.2761
     17 C         -16.8962   -8.0022   18.2389 C.ar    1  UNL1        0.0485
     18 C         -17.6916   -7.8936   16.9719 C.ar    1  UNL1        0.0244
     19 C         -18.5867   -9.0207   16.5493 C.ar    1  UNL1        0.0991
     20 N         -18.6863  -10.2563   17.3938 N.ar    1  UNL1       -0.2400
     21 C         -17.8908  -10.3650   18.6609 C.ar    1  UNL1        0.1285
     22 C         -16.9958   -9.2379   19.0835 C.ar    1  UNL1        0.1606
     23 F         -16.2003   -9.3465   20.3505 F       1  UNL1       -0.2025
@<TRIPOS>BOND
     1    10     9    1
     2    10    11    1
     3    11    12    1
     4    11    13    1
     5    13    14    1
     6    14    15    1
     7    15    16    1
     8    16     1    1
     9     1     2   ar
    10     2     3   ar
    11     3    17    1
    12    17    18   ar
    13    18    19   ar
    14    19    20   ar
    15    20    21   ar
    16    21    22   ar
    17    22    23    1
    18     3     4   ar
    19     4     5   ar
    20     5     6    2
    21     5     7   ar
    22     7     8    1
    23    16    10    1
    24     7     1   ar
    25    22    17   ar
@<TRIPOS>MOLECULE
*****
 23 25 0 0 0
SMALL
GASTEIGER

@<TRIPOS>ATOM
      1 C           4.0745   -1.1375   20.6763 C.ar    1  UNL1        0.2035
      2 N           4.2768   -0.9976   22.1560 N.ar    1  UNL1       -0.2147
      3 C           4.5711   -2.2088   22.9906 C.ar    1  UNL1        0.0911
      4 C           4.6632   -3.5599   22.3454 C.ar    1  UNL1        0.0801
      5 C           4.4609   -3.6997   20.8657 C.ar    1  UNL1        0.2645
      6 O           4.5529   -5.0507   20.2205 O.2     1  UNL1       -0.2668
      7 N           4.1665   -2.4885   20.0312 N.ar    1  UNL1       -0.2667
      8 C           3.9642   -2.6284   18.5515 C.3     1  UNL1        0.1363
      9 C           1.2335   -0.3870   20.0713 C.3     1  UNL1        0.0241
     10 C           2.3597    0.4489   19.5393 C.3     1  UNL1        0.1027
     11 C           2.0654    1.6601   18.7048 C.3     1  UNL1        0.1334
     12 C           0.6449    2.0353   18.4022 C.3     1  UNL1        0.0338
     13 O           3.1915    2.4960   18.1728 O.3     1  UNL1       -0.3527
     14 C           4.6119    2.1208   18.4753 C.3     1  UNL1        0.1635
     15 C           4.9062    0.9097   19.3098 C.3     1  UNL1        0.1256
     16 N           3.7801    0.0737   19.8418 N.pl3   1  UNL1       -0.2761
     17 C           4.7734   -2.0689   24.4703 C.ar    1  UNL1        0.0485
     18 C           5.9566   -2.7131   25.1297 C.ar    1  UNL1        0.0244
     19 C           6.1589   -2.5733   26.6094 C.ar    1  UNL1        0.0991
     20 N           5.1780   -1.7892   27.4297 N.ar    1  UNL1       -0.2400
     21 C           3.9947   -1.1449   26.7703 C.ar    1  UNL1        0.1285
     22 C           3.7924   -1.2847   25.2906 C.ar    1  UNL1        0.1606
     23 F           2.6092   -0.6405   24.6311 F       1  UNL1       -0.2025
@<TRIPOS>BOND
     1    10     9    1
     2    10    11    1
     3    11    12    1
     4    11    13    1
     5    13    14    1
     6    14    15    1
     7    15    16    1
     8    16     1    1
     9     1     2   ar
    10     2     3   ar
    11     3    17    1
    12    17    18   ar
    13    18    19   ar
    14    19    20   ar
    15    20    21   ar
    16    21    22   ar
    17    22    23    1
    18     3     4   ar
    19     4     5   ar
    20     5     6    2
    21     5     7   ar
    22     7     8    1
    23    16    10    1
    24     7     1   ar
    25    22    17   ar
