@<TRIPOS>MOLECULE
*****
 32 35 0 0 0
SMALL
GASTEIGER

@<TRIPOS>ATOM
      1 C          -7.0458  -19.1450   21.0145 C.2     1  UNL1        0.2459
      2 O          -6.5173  -18.9286   22.4016 O.2     1  UNL1       -0.2730
      3 N          -8.5252  -19.1422   20.7667 N.am    1  UNL1       -0.2781
      4 C          -9.0536  -19.3586   19.3796 C.3     1  UNL1        0.0935
      5 C         -10.5330  -19.3559   19.1318 C.3     1  UNL1        0.0219
      6 C         -11.4839  -19.1367   20.2710 C.3     1  UNL1        0.0078
      7 C         -10.9554  -18.9204   21.6580 C.3     1  UNL1        0.0419
      8 C          -9.4761  -18.9231   21.9059 C.3     1  UNL1        0.0953
      9 C         -11.9063  -18.7013   22.7972 C.ar    1  UNL1       -0.0209
     10 C         -13.1893  -17.9579   22.5709 C.ar    1  UNL1       -0.0042
     11 C         -14.1402  -17.7388   23.7101 C.ar    1  UNL1       -0.0003
     12 C         -13.8081  -18.2631   25.0756 C.ar    1  UNL1       -0.0000
     13 C         -12.5252  -19.0064   25.3020 C.ar    1  UNL1       -0.0003
     14 C         -11.5742  -19.2255   24.1628 C.ar    1  UNL1       -0.0042
     15 C          -6.0949  -19.3641   19.8753 C.3     1  UNL1        0.1773
     16 C          -4.9170  -21.6402   20.3017 C.3     1  UNL1        0.1126
     17 N          -4.8398  -20.1575   20.0880 N.pl3   1  UNL1       -0.2980
     18 C          -3.5075  -19.4683   20.0870 C.ar    1  UNL1        0.0491
     19 C          -2.6910  -19.4124   21.3441 C.ar    1  UNL1        0.0154
     20 C          -1.3588  -18.7232   21.3431 C.ar    1  UNL1        0.0135
     21 C          -0.8430  -18.0899   20.0851 C.ar    1  UNL1        0.0683
     22 CL          0.4894  -17.4006   20.0841 Cl      1  UNL1       -0.0814
     23 C          -1.6594  -18.1457   18.8280 C.ar    1  UNL1        0.0694
     24 CL         -1.1435  -17.5123   17.5699 Cl      1  UNL1       -0.0813
     25 C          -2.9917  -18.8349   18.8289 C.ar    1  UNL1        0.0268
     26 C          -8.9476  -18.7068   23.2929 C.3     1  UNL1        0.0926
     27 N          -8.5997  -17.3229   23.7556 N.3     1  UNL1       -0.2670
     28 C          -8.8320  -16.9292   25.1842 C.3     1  UNL1        0.1047
     29 C          -8.4841  -15.5454   25.6468 C.3     1  UNL1        0.1595
     30 O          -7.9040  -14.5553   24.6809 O.3     1  UNL1       -0.3508
     31 C          -7.6717  -14.9490   23.2522 C.3     1  UNL1        0.1595
     32 C          -8.0195  -16.3328   22.7895 C.3     1  UNL1        0.1047
@<TRIPOS>BOND
     1    16    17    1
     2    17    15    1
     3    15     1    1
     4     1     2    2
     5     1     3   am
     6     3     4    1
     7     4     5    1
     8     5     6    1
     9     6     7    1
    10     7     9    1
    11     9    10   ar
    12    10    11   ar
    13    11    12   ar
    14    12    13   ar
    15    13    14   ar
    16     7     8    1
    17     8    26    1
    18    26    27    1
    19    27    28    1
    20    28    29    1
    21    29    30    1
    22    30    31    1
    23    31    32    1
    24    17    18    1
    25    18    19   ar
    26    19    20   ar
    27    20    21   ar
    28    21    22    1
    29    21    23   ar
    30    23    24    1
    31    23    25   ar
    32     8     3    1
    33    32    27    1
    34    25    18   ar
    35    14     9   ar
@<TRIPOS>MOLECULE
*****
 32 35 0 0 0
SMALL
GASTEIGER

@<TRIPOS>ATOM
      1 C         -10.0302  -19.3987   23.2914 C.2     1  UNL1        0.2459
      2 O          -9.0824  -19.2468   24.4440 O.2     1  UNL1       -0.2730
      3 N          -9.4976  -19.5483   21.8971 N.am    1  UNL1       -0.2781
      4 C         -10.4454  -19.7002   20.7445 C.3     1  UNL1        0.0935
      5 C          -9.9128  -19.8498   19.3503 C.3     1  UNL1        0.0219
      6 C          -8.4324  -19.8476   19.1087 C.3     1  UNL1        0.0078
      7 C          -7.4846  -19.6957   20.2613 C.3     1  UNL1        0.0419
      8 C          -8.0172  -19.5461   21.6555 C.3     1  UNL1        0.0953
      9 C          -6.0042  -19.6934   20.0197 C.ar    1  UNL1       -0.0209
     10 C          -5.2159  -20.9592   20.1818 C.ar    1  UNL1       -0.0042
     11 C          -3.7355  -20.9569   19.9402 C.ar    1  UNL1       -0.0003
     12 C          -3.0434  -19.6889   19.5364 C.ar    1  UNL1       -0.0000
     13 C          -3.8317  -18.4232   19.3743 C.ar    1  UNL1       -0.0003
     14 C          -5.3121  -18.4254   19.6159 C.ar    1  UNL1       -0.0042
     15 C         -11.5106  -19.4009   23.5331 C.3     1  UNL1        0.1773
     16 C         -13.5429  -17.8567   24.0176 C.3     1  UNL1        0.1126
     17 N         -12.3260  -18.1855   23.2047 N.pl3   1  UNL1       -0.2980
     18 C         -11.9244  -17.2989   22.0633 C.ar    1  UNL1        0.0491
     19 C         -12.7542  -17.2620   20.8143 C.ar    1  UNL1        0.0154
     20 C         -12.3527  -16.3754   19.6730 C.ar    1  UNL1        0.0135
     21 C         -11.1213  -15.5256   19.7807 C.ar    1  UNL1        0.0683
     22 CL        -10.7198  -14.6390   18.6393 Cl      1  UNL1       -0.0814
     23 C         -10.2915  -15.5625   21.0297 C.ar    1  UNL1        0.0694
     24 CL         -9.0600  -14.7127   21.1373 Cl      1  UNL1       -0.0813
     25 C         -10.6930  -16.4491   22.1710 C.ar    1  UNL1        0.0268
     26 C          -7.0694  -19.3942   22.8082 C.3     1  UNL1        0.0926
     27 N          -6.3578  -18.0920   23.0275 N.3     1  UNL1       -0.2670
     28 C          -7.1452  -16.8283   23.2087 C.3     1  UNL1        0.1047
     29 C          -6.4336  -15.5262   23.4280 C.3     1  UNL1        0.1595
     30 O          -4.9346  -15.4878   23.4660 O.3     1  UNL1       -0.3508
     31 C          -4.1471  -16.7516   23.2848 C.3     1  UNL1        0.1595
     32 C          -4.8587  -18.0537   23.0655 C.3     1  UNL1        0.1047
@<TRIPOS>BOND
     1    16    17    1
     2    17    15    1
     3    15     1    1
     4     1     2    2
     5     1     3   am
     6     3     4    1
     7     4     5    1
     8     5     6    1
     9     6     7    1
    10     7     9    1
    11     9    10   ar
    12    10    11   ar
    13    11    12   ar
    14    12    13   ar
    15    13    14   ar
    16     7     8    1
    17     8    26    1
    18    26    27    1
    19    27    28    1
    20    28    29    1
    21    29    30    1
    22    30    31    1
    23    31    32    1
    24    17    18    1
    25    18    19   ar
    26    19    20   ar
    27    20    21   ar
    28    21    22    1
    29    21    23   ar
    30    23    24    1
    31    23    25   ar
    32     8     3    1
    33    32    27    1
    34    25    18   ar
    35    14     9   ar
@<TRIPOS>MOLECULE
*****
 32 35 0 0 0
SMALL
GASTEIGER

@<TRIPOS>ATOM
      1 C           6.7171   -2.7902   21.5592 C.2     1  UNL1        0.2459
      2 O           7.0371   -1.4772   22.2100 O.2     1  UNL1       -0.2730
      3 N           5.4779   -2.9321   20.7260 N.am    1  UNL1       -0.2781
      4 C           5.1579   -4.2451   20.0753 C.3     1  UNL1        0.0935
      5 C           3.9187   -4.3869   19.2421 C.3     1  UNL1        0.0219
      6 C           2.9994   -3.2157   19.0597 C.3     1  UNL1        0.0078
      7 C           3.3194   -1.9027   19.7105 C.3     1  UNL1        0.0419
      8 C           4.5586   -1.7609   20.5436 C.3     1  UNL1        0.0953
      9 C           2.4002   -0.7315   19.5281 C.ar    1  UNL1       -0.0209
     10 C           1.1519   -0.6223   20.3526 C.ar    1  UNL1       -0.0042
     11 C           0.2327    0.5489   20.1703 C.ar    1  UNL1       -0.0003
     12 C           0.5617    1.6109   19.1633 C.ar    1  UNL1       -0.0000
     13 C           1.8099    1.5016   18.3388 C.ar    1  UNL1       -0.0003
     14 C           2.7291    0.3304   18.5211 C.ar    1  UNL1       -0.0042
     15 C           7.6364   -3.9614   21.7416 C.3     1  UNL1        0.1773
     16 C           9.5353   -3.0726   23.2759 C.3     1  UNL1        0.1126
     17 N           8.4617   -4.0800   22.9885 N.pl3   1  UNL1       -0.2980
     18 C           8.2135   -5.2060   23.9480 C.ar    1  UNL1        0.0491
     19 C           8.7551   -6.5739   23.6553 C.ar    1  UNL1        0.0154
     20 C           8.5069   -7.6998   24.6148 C.ar    1  UNL1        0.0135
     21 C           7.7172   -7.4579   25.8668 C.ar    1  UNL1        0.0683
     22 CL          7.4690   -8.5839   26.8264 Cl      1  UNL1       -0.0814
     23 C           7.1757   -6.0901   26.1595 C.ar    1  UNL1        0.0694
     24 CL          6.3859   -5.8482   27.4117 Cl      1  UNL1       -0.0813
     25 C           7.4238   -4.9641   25.2001 C.ar    1  UNL1        0.0268
     26 C           4.8786   -0.4478   21.1944 C.3     1  UNL1        0.0926
     27 N           4.0686    0.0265   22.3644 N.3     1  UNL1       -0.2670
     28 C           3.5188    1.4219   22.3796 C.3     1  UNL1        0.1047
     29 C           2.7087    1.8962   23.5496 C.3     1  UNL1        0.1595
     30 O           2.4486    0.9750   24.7045 O.3     1  UNL1       -0.3508
     31 C           2.9985   -0.4205   24.6893 C.3     1  UNL1        0.1595
     32 C           3.8085   -0.8948   23.5193 C.3     1  UNL1        0.1047
@<TRIPOS>BOND
     1    16    17    1
     2    17    15    1
     3    15     1    1
     4     1     2    2
     5     1     3   am
     6     3     4    1
     7     4     5    1
     8     5     6    1
     9     6     7    1
    10     7     9    1
    11     9    10   ar
    12    10    11   ar
    13    11    12   ar
    14    12    13   ar
    15    13    14   ar
    16     7     8    1
    17     8    26    1
    18    26    27    1
    19    27    28    1
    20    28    29    1
    21    29    30    1
    22    30    31    1
    23    31    32    1
    24    17    18    1
    25    18    19   ar
    26    19    20   ar
    27    20    21   ar
    28    21    22    1
    29    21    23   ar
    30    23    24    1
    31    23    25   ar
    32     8     3    1
    33    32    27    1
    34    25    18   ar
    35    14     9   ar
@<TRIPOS>MOLECULE
*****
 32 35 0 0 0
SMALL
GASTEIGER

@<TRIPOS>ATOM
      1 C           0.1189    1.5529   20.2511 C.2     1  UNL1        0.2459
      2 O          -0.1909    0.2238   20.8736 O.2     1  UNL1       -0.2730
      3 N           1.4477    1.7817   19.5936 N.am    1  UNL1       -0.2781
      4 C           1.7575    3.1108   18.9711 C.3     1  UNL1        0.0935
      5 C           3.0861    3.3396   18.3138 C.3     1  UNL1        0.0219
      6 C           4.1051    2.2393   18.2789 C.3     1  UNL1        0.0078
      7 C           3.7953    0.9102   18.9014 C.3     1  UNL1        0.0419
      8 C           2.4666    0.6815   19.5588 C.3     1  UNL1        0.0953
      9 C           4.8142   -0.1900   18.8665 C.ar    1  UNL1       -0.0209
     10 C           4.6260   -1.3575   17.9438 C.ar    1  UNL1       -0.0042
     11 C           5.6449   -2.4578   17.9089 C.ar    1  UNL1       -0.0003
     12 C           6.8520   -2.3906   18.7968 C.ar    1  UNL1       -0.0000
     13 C           7.0401   -1.2232   19.7196 C.ar    1  UNL1       -0.0003
     14 C           6.0212   -0.1229   19.7545 C.ar    1  UNL1       -0.0042
     15 C          -0.9000    2.6532   20.2859 C.3     1  UNL1        0.1773
     16 C          -0.3003    3.6117   22.6251 C.3     1  UNL1        0.1126
     17 N          -1.3287    3.2370   21.5994 N.pl3   1  UNL1       -0.2980
     18 C          -2.7859    3.4462   21.8873 C.ar    1  UNL1        0.0491
     19 C          -3.7790    3.4537   20.7631 C.ar    1  UNL1        0.0154
     20 C          -5.2361    3.6629   21.0509 C.ar    1  UNL1        0.0135
     21 C          -5.7002    3.8646   22.4630 C.ar    1  UNL1        0.0683
     22 CL         -7.1575    4.0738   22.7509 Cl      1  UNL1       -0.0814
     23 C          -4.7072    3.8571   23.5872 C.ar    1  UNL1        0.0694
     24 CL         -5.1714    4.0589   24.9993 Cl      1  UNL1       -0.0813
     25 C          -3.2500    3.6479   23.2993 C.ar    1  UNL1        0.0268
     26 C           2.1567   -0.6477   20.1813 C.3     1  UNL1        0.0926
     27 N           2.8654   -1.0730   21.4331 N.3     1  UNL1       -0.2670
     28 C           3.6665   -2.3411   21.4474 C.3     1  UNL1        0.1047
     29 C           4.3752   -2.7664   22.6991 C.3     1  UNL1        0.1595
     30 O           4.2829   -1.9237   23.9365 O.3     1  UNL1       -0.3508
     31 C           3.4818   -0.6555   23.9222 C.3     1  UNL1        0.1595
     32 C           2.7731   -0.2302   22.6705 C.3     1  UNL1        0.1047
@<TRIPOS>BOND
     1    16    17    1
     2    17    15    1
     3    15     1    1
     4     1     2    2
     5     1     3   am
     6     3     4    1
     7     4     5    1
     8     5     6    1
     9     6     7    1
    10     7     9    1
    11     9    10   ar
    12    10    11   ar
    13    11    12   ar
    14    12    13   ar
    15    13    14   ar
    16     7     8    1
    17     8    26    1
    18    26    27    1
    19    27    28    1
    20    28    29    1
    21    29    30    1
    22    30    31    1
    23    31    32    1
    24    17    18    1
    25    18    19   ar
    26    19    20   ar
    27    20    21   ar
    28    21    22    1
    29    21    23   ar
    30    23    24    1
    31    23    25   ar
    32     8     3    1
    33    32    27    1
    34    25    18   ar
    35    14     9   ar
@<TRIPOS>MOLECULE
*****
 32 35 0 0 0
SMALL
GASTEIGER

@<TRIPOS>ATOM
      1 C           0.7319    2.9603   22.3934 C.2     1  UNL1        0.2459
      2 O           0.2396    4.1216   21.5816 O.2     1  UNL1       -0.2730
      3 N           0.1486    2.6919   23.7490 N.am    1  UNL1       -0.2781
      4 C           0.6409    1.5306   24.5608 C.3     1  UNL1        0.0935
      5 C           0.0576    1.2623   25.9164 C.3     1  UNL1        0.0219
      6 C          -1.0181    2.1552   26.4602 C.3     1  UNL1        0.0078
      7 C          -1.5104    3.3164   25.6484 C.3     1  UNL1        0.0419
      8 C          -0.9271    3.5848   24.2928 C.3     1  UNL1        0.0953
      9 C          -2.5860    4.2094   26.1922 C.ar    1  UNL1       -0.0209
     10 C          -4.0282    3.8294   26.0323 C.ar    1  UNL1       -0.0042
     11 C          -5.1039    4.7223   26.5761 C.ar    1  UNL1       -0.0003
     12 C          -4.7373    5.9952   27.2798 C.ar    1  UNL1       -0.0000
     13 C          -3.2951    6.3752   27.4398 C.ar    1  UNL1       -0.0003
     14 C          -2.2195    5.4823   26.8960 C.ar    1  UNL1       -0.0042
     15 C           1.8075    2.0674   21.8496 C.3     1  UNL1        0.1773
     16 C           0.1637    0.6747   20.3976 C.3     1  UNL1        0.1126
     17 N           1.4424    0.7784   21.1749 N.pl3   1  UNL1       -0.2980
     18 C           2.3559   -0.4069   21.2776 C.ar    1  UNL1        0.0491
     19 C           3.0299   -0.7237   22.5797 C.ar    1  UNL1        0.0154
     20 C           3.9434   -1.9090   22.6824 C.ar    1  UNL1        0.0135
     21 C           4.1828   -2.7775   21.4831 C.ar    1  UNL1        0.0683
     22 CL          5.0963   -3.9629   21.5858 Cl      1  UNL1       -0.0814
     23 C           3.5087   -2.4607   20.1811 C.ar    1  UNL1        0.0694
     24 CL          3.7482   -3.3293   18.9817 Cl      1  UNL1       -0.0813
     25 C           2.5953   -1.2754   20.0783 C.ar    1  UNL1        0.0268
     26 C          -1.4194    4.7461   23.4810 C.3     1  UNL1        0.0926
     27 N          -2.7734    4.6912   22.8378 N.3     1  UNL1       -0.2670
     28 C          -3.7197    5.8460   22.9822 C.3     1  UNL1        0.1047
     29 C          -5.0737    5.7911   22.3391 C.3     1  UNL1        0.1595
     30 O          -5.4814    4.5815   21.5515 O.3     1  UNL1       -0.3508
     31 C          -4.5351    3.4266   21.4070 C.3     1  UNL1        0.1595
     32 C          -3.1811    3.4814   22.0502 C.3     1  UNL1        0.1047
@<TRIPOS>BOND
     1    16    17    1
     2    17    15    1
     3    15     1    1
     4     1     2    2
     5     1     3   am
     6     3     4    1
     7     4     5    1
     8     5     6    1
     9     6     7    1
    10     7     9    1
    11     9    10   ar
    12    10    11   ar
    13    11    12   ar
    14    12    13   ar
    15    13    14   ar
    16     7     8    1
    17     8    26    1
    18    26    27    1
    19    27    28    1
    20    28    29    1
    21    29    30    1
    22    30    31    1
    23    31    32    1
    24    17    18    1
    25    18    19   ar
    26    19    20   ar
    27    20    21   ar
    28    21    22    1
    29    21    23   ar
    30    23    24    1
    31    23    25   ar
    32     8     3    1
    33    32    27    1
    34    25    18   ar
    35    14     9   ar
@<TRIPOS>MOLECULE
*****
 32 35 0 0 0
SMALL
GASTEIGER

@<TRIPOS>ATOM
      1 C           6.2898   -1.3088   24.0901 C.2     1  UNL1        0.2459
      2 O           6.2052    0.1589   24.3878 O.2     1  UNL1       -0.2730
      3 N           5.4899   -1.8928   22.9635 N.am    1  UNL1       -0.2781
      4 C           5.5744   -3.3605   22.6658 C.3     1  UNL1        0.0935
      5 C           4.7745   -3.9445   21.5393 C.3     1  UNL1        0.0219
      6 C           3.8902   -3.0608   20.7105 C.3     1  UNL1        0.0078
      7 C           3.8056   -1.5931   21.0082 C.3     1  UNL1        0.0419
      8 C           4.6055   -1.0091   22.1347 C.3     1  UNL1        0.0953
      9 C           2.9212   -0.7094   20.1794 C.ar    1  UNL1       -0.0209
     10 C           3.4919    0.0398   19.0119 C.ar    1  UNL1       -0.0042
     11 C           2.6075    0.9235   18.1831 C.ar    1  UNL1       -0.0003
     12 C           1.1525    1.0579   18.5217 C.ar    1  UNL1       -0.0000
     13 C           0.5818    0.3087   19.6892 C.ar    1  UNL1       -0.0003
     14 C           1.4662   -0.5750   20.5180 C.ar    1  UNL1       -0.0042
     15 C           7.1741   -2.1924   24.9190 C.3     1  UNL1        0.1773
     16 C           5.6524   -2.2335   27.0243 C.3     1  UNL1        0.1126
     17 N           6.6078   -2.9261   26.0984 N.pl3   1  UNL1       -0.2980
     18 C           6.9970   -4.3524   26.3519 C.ar    1  UNL1        0.0491
     19 C           6.9928   -4.8936   27.7508 C.ar    1  UNL1        0.0154
     20 C           7.3819   -6.3199   28.0044 C.ar    1  UNL1        0.0135
     21 C           7.7753   -7.2049   26.8590 C.ar    1  UNL1        0.0683
     22 CL          8.1645   -8.6312   27.1126 Cl      1  UNL1       -0.0814
     23 C           7.7795   -6.6637   25.4601 C.ar    1  UNL1        0.0694
     24 CL          8.1729   -7.5488   24.3147 Cl      1  UNL1       -0.0813
     25 C           7.3904   -5.2374   25.2065 C.ar    1  UNL1        0.0268
     26 C           4.5210    0.4586   22.4325 C.3     1  UNL1        0.0926
     27 N           3.2512    1.0412   22.9786 N.3     1  UNL1       -0.2670
     28 C           2.5185    0.3396   24.0835 C.3     1  UNL1        0.1047
     29 C           1.2488    0.9222   24.6296 C.3     1  UNL1        0.1595
     30 O           0.7116    2.2064   24.0708 O.3     1  UNL1       -0.3508
     31 C           1.4443    2.9080   22.9658 C.3     1  UNL1        0.1595
     32 C           2.7141    2.3255   22.4197 C.3     1  UNL1        0.1047
@<TRIPOS>BOND
     1    16    17    1
     2    17    15    1
     3    15     1    1
     4     1     2    2
     5     1     3   am
     6     3     4    1
     7     4     5    1
     8     5     6    1
     9     6     7    1
    10     7     9    1
    11     9    10   ar
    12    10    11   ar
    13    11    12   ar
    14    12    13   ar
    15    13    14   ar
    16     7     8    1
    17     8    26    1
    18    26    27    1
    19    27    28    1
    20    28    29    1
    21    29    30    1
    22    30    31    1
    23    31    32    1
    24    17    18    1
    25    18    19   ar
    26    19    20   ar
    27    20    21   ar
    28    21    22    1
    29    21    23   ar
    30    23    24    1
    31    23    25   ar
    32     8     3    1
    33    32    27    1
    34    25    18   ar
    35    14     9   ar
@<TRIPOS>MOLECULE
*****
 32 35 0 0 0
SMALL
GASTEIGER

@<TRIPOS>ATOM
      1 C           5.3675    0.8918   34.3841 C.2     1  UNL1        0.2459
      2 O           3.9744    0.5629   33.9359 O.2     1  UNL1       -0.2730
      3 N           6.5263    0.0772   33.8904 N.am    1  UNL1       -0.2781
      4 C           7.9194    0.4061   34.3386 C.3     1  UNL1        0.0935
      5 C           9.0781   -0.4085   33.8448 C.3     1  UNL1        0.0219
      6 C           8.8436   -1.5520   32.9028 C.3     1  UNL1        0.0078
      7 C           7.4505   -1.8809   32.4546 C.3     1  UNL1        0.0419
      8 C           6.2918   -1.0663   32.9484 C.3     1  UNL1        0.0953
      9 C           7.2160   -3.0245   31.5126 C.ar    1  UNL1       -0.0209
     10 C           7.1419   -2.7760   30.0352 C.ar    1  UNL1       -0.0042
     11 C           6.9074   -3.9196   29.0932 C.ar    1  UNL1       -0.0003
     12 C           6.7471   -5.3115   29.6286 C.ar    1  UNL1       -0.0000
     13 C           6.8213   -5.5600   31.1060 C.ar    1  UNL1       -0.0003
     14 C           7.0557   -4.4164   32.0480 C.ar    1  UNL1       -0.0042
     15 C           5.6020    2.0354   35.3262 C.3     1  UNL1        0.1773
     16 C           6.5982    1.4609   37.6559 C.3     1  UNL1        0.1126
     17 N           5.4240    1.8394   36.8026 N.pl3   1  UNL1       -0.2980
     18 C           4.0718    2.0220   37.4258 C.ar    1  UNL1        0.0491
     19 C           3.3463    3.3262   37.2747 C.ar    1  UNL1        0.0154
     20 C           1.9942    3.5088   37.8979 C.ar    1  UNL1        0.0135
     21 C           1.3676    2.3873   38.6721 C.ar    1  UNL1        0.0683
     22 CL          0.0154    2.5699   39.2954 Cl      1  UNL1       -0.0814
     23 C           2.0931    1.0831   38.8232 C.ar    1  UNL1        0.0694
     24 CL          1.4664   -0.0384   39.5975 Cl      1  UNL1       -0.0813
     25 C           3.4452    0.9005   38.2000 C.ar    1  UNL1        0.0268
     26 C           4.8986   -1.3952   32.5001 C.3     1  UNL1        0.0926
     27 N           4.3212   -0.7215   31.2907 N.3     1  UNL1       -0.2670
     28 C           5.1613    0.2267   30.4876 C.3     1  UNL1        0.1047
     29 C           4.5839    0.9005   29.2782 C.3     1  UNL1        0.1595
     30 O           3.1663    0.6259   28.8719 O.3     1  UNL1       -0.3508
     31 C           2.3261   -0.3224   29.6750 C.3     1  UNL1        0.1595
     32 C           2.9036   -0.9961   30.8844 C.3     1  UNL1        0.1047
@<TRIPOS>BOND
     1    16    17    1
     2    17    15    1
     3    15     1    1
     4     1     2    2
     5     1     3   am
     6     3     4    1
     7     4     5    1
     8     5     6    1
     9     6     7    1
    10     7     9    1
    11     9    10   ar
    12    10    11   ar
    13    11    12   ar
    14    12    13   ar
    15    13    14   ar
    16     7     8    1
    17     8    26    1
    18    26    27    1
    19    27    28    1
    20    28    29    1
    21    29    30    1
    22    30    31    1
    23    31    32    1
    24    17    18    1
    25    18    19   ar
    26    19    20   ar
    27    20    21   ar
    28    21    22    1
    29    21    23   ar
    30    23    24    1
    31    23    25   ar
    32     8     3    1
    33    32    27    1
    34    25    18   ar
    35    14     9   ar
@<TRIPOS>MOLECULE
*****
 32 35 0 0 0
SMALL
GASTEIGER

@<TRIPOS>ATOM
      1 C          -6.2839  -20.3007   20.9273 C.2     1  UNL1        0.2459
      2 O          -6.0740  -19.4216   22.1244 O.2     1  UNL1       -0.2730
      3 N          -7.5506  -20.1938   20.1310 N.am    1  UNL1       -0.2781
      4 C          -7.7605  -21.0729   18.9339 C.3     1  UNL1        0.0935
      5 C          -9.0272  -20.9659   18.1377 C.3     1  UNL1        0.0219
      6 C         -10.0840  -19.9798   18.5386 C.3     1  UNL1        0.0078
      7 C          -9.8742  -19.1007   19.7356 C.3     1  UNL1        0.0419
      8 C          -8.6075  -19.2077   20.5318 C.3     1  UNL1        0.0953
      9 C         -10.9310  -18.1146   20.1365 C.ar    1  UNL1       -0.0209
     10 C         -11.0105  -16.7814   19.4537 C.ar    1  UNL1       -0.0042
     11 C         -12.0673  -15.7953   19.8546 C.ar    1  UNL1       -0.0003
     12 C         -13.0447  -16.1424   20.9382 C.ar    1  UNL1       -0.0000
     13 C         -12.9652  -17.4756   21.6210 C.ar    1  UNL1       -0.0003
     14 C         -11.9083  -18.4617   21.2201 C.ar    1  UNL1       -0.0042
     15 C          -5.2271  -21.2869   20.5264 C.3     1  UNL1        0.1773
     16 C          -3.3594  -21.6168   18.7508 C.3     1  UNL1        0.1126
     17 N          -3.9718  -20.8105   19.8575 N.pl3   1  UNL1       -0.2980
     18 C          -3.3290  -19.5279   20.2953 C.ar    1  UNL1        0.0491
     19 C          -2.9144  -18.5101   19.2743 C.ar    1  UNL1        0.0154
     20 C          -2.2715  -17.2275   19.7120 C.ar    1  UNL1        0.0135
     21 C          -2.0433  -16.9626   21.1707 C.ar    1  UNL1        0.0683
     22 CL         -1.4005  -15.6800   21.6085 Cl      1  UNL1       -0.0814
     23 C          -2.4580  -17.9804   22.1916 C.ar    1  UNL1        0.0694
     24 CL         -2.2297  -17.7154   23.6503 Cl      1  UNL1       -0.0813
     25 C          -3.1008  -19.2630   21.7539 C.ar    1  UNL1        0.0268
     26 C          -8.3976  -18.3285   21.7290 C.3     1  UNL1        0.0926
     27 N          -8.9546  -18.7313   23.0622 N.3     1  UNL1       -0.2670
     28 C          -9.2723  -20.1710   23.3383 C.3     1  UNL1        0.1047
     29 C          -9.8293  -20.5739   24.6715 C.3     1  UNL1        0.1595
     30 O         -10.0686  -19.5370   25.7287 O.3     1  UNL1       -0.3508
     31 C          -9.7509  -18.0972   25.4526 C.3     1  UNL1        0.1595
     32 C          -9.1939  -17.6944   24.1194 C.3     1  UNL1        0.1047
@<TRIPOS>BOND
     1    16    17    1
     2    17    15    1
     3    15     1    1
     4     1     2    2
     5     1     3   am
     6     3     4    1
     7     4     5    1
     8     5     6    1
     9     6     7    1
    10     7     9    1
    11     9    10   ar
    12    10    11   ar
    13    11    12   ar
    14    12    13   ar
    15    13    14   ar
    16     7     8    1
    17     8    26    1
    18    26    27    1
    19    27    28    1
    20    28    29    1
    21    29    30    1
    22    30    31    1
    23    31    32    1
    24    17    18    1
    25    18    19   ar
    26    19    20   ar
    27    20    21   ar
    28    21    22    1
    29    21    23   ar
    30    23    24    1
    31    23    25   ar
    32     8     3    1
    33    32    27    1
    34    25    18   ar
    35    14     9   ar
@<TRIPOS>MOLECULE
*****
 32 35 0 0 0
SMALL
GASTEIGER

@<TRIPOS>ATOM
      1 C          -6.4311  -20.6407   21.5344 C.2     1  UNL1        0.2459
      2 O          -6.2696  -20.3568   22.9983 O.2     1  UNL1       -0.2730
      3 N          -7.6353  -20.1305   20.7997 N.am    1  UNL1       -0.2781
      4 C          -7.7967  -20.4145   19.3358 C.3     1  UNL1        0.0935
      5 C          -9.0009  -19.9042   18.6012 C.3     1  UNL1        0.0219
      6 C         -10.0436  -19.1100   19.3306 C.3     1  UNL1        0.0078
      7 C          -9.8821  -18.8260   20.7945 C.3     1  UNL1        0.0419
      8 C          -8.6780  -19.3363   21.5291 C.3     1  UNL1        0.0953
      9 C         -10.9248  -18.0318   21.5239 C.ar    1  UNL1       -0.0209
     10 C         -11.9034  -18.7265   22.4237 C.ar    1  UNL1       -0.0042
     11 C         -12.9461  -17.9323   23.1531 C.ar    1  UNL1       -0.0003
     12 C         -13.0102  -16.4434   22.9827 C.ar    1  UNL1       -0.0000
     13 C         -12.0316  -15.7487   22.0830 C.ar    1  UNL1       -0.0003
     14 C         -10.9889  -16.5429   21.3536 C.ar    1  UNL1       -0.0042
     15 C          -5.3884  -21.4349   20.8050 C.3     1  UNL1        0.1773
     16 C          -3.9732  -21.2935   18.6308 C.3     1  UNL1        0.1126
     17 N          -4.3611  -20.7332   19.9670 N.pl3   1  UNL1       -0.2980
     18 C          -3.7216  -19.4711   20.4654 C.ar    1  UNL1        0.0491
     19 C          -2.9939  -18.5716   19.5108 C.ar    1  UNL1        0.0154
     20 C          -2.3544  -17.3095   20.0090 C.ar    1  UNL1        0.0135
     21 C          -2.4427  -16.9470   21.4618 C.ar    1  UNL1        0.0683
     22 CL         -1.8032  -15.6849   21.9602 Cl      1  UNL1       -0.0814
     23 C          -3.1704  -17.8466   22.4164 C.ar    1  UNL1        0.0694
     24 CL         -3.2587  -17.4840   23.8693 Cl      1  UNL1       -0.0813
     25 C          -3.8099  -19.1086   21.9182 C.ar    1  UNL1        0.0268
     26 C          -8.5165  -19.0523   22.9932 C.3     1  UNL1        0.0926
     27 N          -8.2592  -17.6507   23.4613 N.3     1  UNL1       -0.2670
     28 C          -9.1505  -17.0300   24.4958 C.3     1  UNL1        0.1047
     29 C          -8.8932  -15.6283   24.9640 C.3     1  UNL1        0.1595
     30 O          -7.7446  -14.8474   24.3977 O.3     1  UNL1       -0.3508
     31 C          -6.8532  -15.4681   23.3631 C.3     1  UNL1        0.1595
     32 C          -7.1105  -16.8697   22.8950 C.3     1  UNL1        0.1047
@<TRIPOS>BOND
     1    16    17    1
     2    17    15    1
     3    15     1    1
     4     1     2    2
     5     1     3   am
     6     3     4    1
     7     4     5    1
     8     5     6    1
     9     6     7    1
    10     7     9    1
    11     9    10   ar
    12    10    11   ar
    13    11    12   ar
    14    12    13   ar
    15    13    14   ar
    16     7     8    1
    17     8    26    1
    18    26    27    1
    19    27    28    1
    20    28    29    1
    21    29    30    1
    22    30    31    1
    23    31    32    1
    24    17    18    1
    25    18    19   ar
    26    19    20   ar
    27    20    21   ar
    28    21    22    1
    29    21    23   ar
    30    23    24    1
    31    23    25   ar
    32     8     3    1
    33    32    27    1
    34    25    18   ar
    35    14     9   ar
