@<TRIPOS>MOLECULE
*****
 33 37 0 0 0
SMALL
GASTEIGER

@<TRIPOS>ATOM
      1 O           5.0737   -0.8565   29.9157 O.2     1  UNL1       -0.2666
      2 C           5.9571   -2.0684   29.9497 C.ar    1  UNL1        0.2648
      3 C           6.2773   -2.7990   28.6794 C.ar    1  UNL1        0.0611
      4 C           7.1606   -4.0109   28.7134 C.ar    1  UNL1        0.0062
      5 C           7.7238   -4.4921   30.0178 C.ar    1  UNL1        0.0192
      6 C           7.4036   -3.7614   31.2881 C.ar    1  UNL1        0.0829
      7 N           6.5202   -2.5496   31.2540 N.ar    1  UNL1       -0.2731
      8 C           6.2000   -1.8189   32.5244 C.ar    1  UNL1        0.0670
      9 C           4.8921   -2.0591   33.2184 C.ar    1  UNL1        0.0191
     10 C           4.5720   -1.3285   34.4887 C.ar    1  UNL1        0.0203
     11 C           5.5597   -0.3576   35.0649 C.ar    1  UNL1        0.0795
     12 C           6.8675   -0.1175   34.3708 C.ar    1  UNL1        0.0396
     13 C           7.6382    0.8910   35.1702 C.ar    1  UNL1        0.1216
     14 N           6.8066    1.2741   36.3584 N.ar    1  UNL1       -0.1677
     15 N           5.5220    0.5024   36.2933 N.ar    1  UNL1       -0.2494
     16 C           7.1877   -0.8481   33.1006 C.ar    1  UNL1        0.0207
     17 C           4.3972    0.5776   37.2828 C.3     1  UNL1        0.1447
     18 C           3.3590    1.6530   37.1580 C.3     1  UNL1        0.0988
     19 N           2.1992    1.6899   38.1084 N.3     1  UNL1       -0.2710
     20 C           1.7503    0.5669   38.9957 C.3     1  UNL1        0.0722
     21 C           0.5583    1.0392   39.7740 C.3     1  UNL1        0.0188
     22 C           0.2704    2.4541   39.3678 C.3     1  UNL1        0.0188
     23 C           1.2845    2.8563   38.3383 C.3     1  UNL1        0.0722
     24 C           7.4808   -4.7415   27.4431 C.ar    1  UNL1        0.0002
     25 C           7.0318   -6.1610   27.2608 C.ar    1  UNL1       -0.0001
     26 C           7.3520   -6.8917   25.9905 C.ar    1  UNL1        0.0039
     27 C           8.1212   -6.2027   24.9025 C.ar    1  UNL1        0.0714
     28 C           8.5702   -4.7831   25.0849 C.ar    1  UNL1        0.0039
     29 C           8.2500   -4.0525   26.3552 C.ar    1  UNL1       -0.0001
     30 C           8.4414   -6.9333   23.6322 C.3     1  UNL1        0.4186
     31 F           8.7616   -7.6639   22.3620 F       1  UNL1       -0.1659
     32 F           7.9993   -5.7418   22.8355 F       1  UNL1       -0.1659
     33 F           8.8835   -8.1248   24.4290 F       1  UNL1       -0.1659
@<TRIPOS>BOND
     1     1     2    2
     2     2     3   ar
     3     3     4   ar
     4     4    24    1
     5    24    25   ar
     6    25    26   ar
     7    26    27   ar
     8    27    30    1
     9    30    31    1
    10    30    32    1
    11    30    33    1
    12    27    28   ar
    13    28    29   ar
    14     4     5   ar
    15     5     6   ar
    16     6     7   ar
    17     7     8    1
    18     8     9   ar
    19     9    10   ar
    20    10    11   ar
    21    11    12   ar
    22    12    13   ar
    23    13    14   ar
    24    14    15   ar
    25    15    17    1
    26    17    18    1
    27    18    19    1
    28    19    20    1
    29    20    21    1
    30    21    22    1
    31    22    23    1
    32    12    16   ar
    33     7     2   ar
    34    16     8   ar
    35    29    24   ar
    36    15    11   ar
    37    23    19    1
@<TRIPOS>MOLECULE
*****
 33 37 0 0 0
SMALL
GASTEIGER

@<TRIPOS>ATOM
      1 O           5.4965    0.4216   30.1786 O.2     1  UNL1       -0.2666
      2 C           5.8432   -1.0149   30.4359 C.ar    1  UNL1        0.2648
      3 C           6.1741   -1.9236   29.2893 C.ar    1  UNL1        0.0611
      4 C           6.5208   -3.3602   29.5466 C.ar    1  UNL1        0.0062
      5 C           6.5365   -3.8880   30.9506 C.ar    1  UNL1        0.0192
      6 C           6.2056   -2.9792   32.0972 C.ar    1  UNL1        0.0829
      7 N           5.8590   -1.5428   31.8399 N.ar    1  UNL1       -0.2731
      8 C           5.5281   -0.6340   32.9865 C.ar    1  UNL1        0.0670
      9 C           6.4944   -0.4784   34.1232 C.ar    1  UNL1        0.0191
     10 C           6.1634    0.4304   35.2698 C.ar    1  UNL1        0.0203
     11 C           4.8662    1.1834   35.2797 C.ar    1  UNL1        0.0795
     12 C           3.8999    1.0278   34.1430 C.ar    1  UNL1        0.0396
     13 C           2.7074    1.8922   34.4268 C.ar    1  UNL1        0.1216
     14 N           2.9366    2.5821   35.7389 N.ar    1  UNL1       -0.1677
     15 N           4.2708    2.1441   36.2660 N.ar    1  UNL1       -0.2494
     16 C           4.2309    0.1191   32.9965 C.ar    1  UNL1        0.0207
     17 C           4.8994    2.5886   37.5534 C.3     1  UNL1        0.1447
     18 C           4.4002    2.0442   38.8589 C.3     1  UNL1        0.0988
     19 N           2.9354    1.7855   39.0527 N.3     1  UNL1       -0.2710
     20 C           2.2667    0.4430   39.0303 C.3     1  UNL1        0.0722
     21 C           0.8003    0.6516   39.2667 C.3     1  UNL1        0.0188
     22 C           0.5626    2.1230   39.4351 C.3     1  UNL1        0.0188
     23 C           1.8823    2.8238   39.3029 C.3     1  UNL1        0.0722
     24 C           6.8516   -4.2688   28.4000 C.ar    1  UNL1        0.0002
     25 C           7.3210   -5.6688   28.6638 C.ar    1  UNL1       -0.0001
     26 C           7.6519   -6.5776   27.5172 C.ar    1  UNL1        0.0039
     27 C           7.5134   -6.0863   26.1067 C.ar    1  UNL1        0.0714
     28 C           7.0440   -4.6862   25.8429 C.ar    1  UNL1        0.0039
     29 C           6.7132   -3.7775   26.9895 C.ar    1  UNL1       -0.0001
     30 C           7.8443   -6.9949   24.9601 C.3     1  UNL1        0.4186
     31 F           8.1752   -7.9036   23.8134 F       1  UNL1       -0.1659
     32 F           7.4986   -5.9012   23.9936 F       1  UNL1       -0.1659
     33 F           8.1900   -8.0887   25.9266 F       1  UNL1       -0.1659
@<TRIPOS>BOND
     1     1     2    2
     2     2     3   ar
     3     3     4   ar
     4     4    24    1
     5    24    25   ar
     6    25    26   ar
     7    26    27   ar
     8    27    30    1
     9    30    31    1
    10    30    32    1
    11    30    33    1
    12    27    28   ar
    13    28    29   ar
    14     4     5   ar
    15     5     6   ar
    16     6     7   ar
    17     7     8    1
    18     8     9   ar
    19     9    10   ar
    20    10    11   ar
    21    11    12   ar
    22    12    13   ar
    23    13    14   ar
    24    14    15   ar
    25    15    17    1
    26    17    18    1
    27    18    19    1
    28    19    20    1
    29    20    21    1
    30    21    22    1
    31    22    23    1
    32    12    16   ar
    33     7     2   ar
    34    16     8   ar
    35    29    24   ar
    36    15    11   ar
    37    23    19    1
@<TRIPOS>MOLECULE
*****
 33 37 0 0 0
SMALL
GASTEIGER

@<TRIPOS>ATOM
      1 O          -0.2803    0.0588   29.5820 O.2     1  UNL1       -0.2666
      2 C          -0.2388    1.4046   28.9207 C.ar    1  UNL1        0.2648
      3 C          -0.9373    1.6185   27.6107 C.ar    1  UNL1        0.0611
      4 C          -0.8958    2.9643   26.9495 C.ar    1  UNL1        0.0062
      5 C          -0.1557    4.0962   27.5984 C.ar    1  UNL1        0.0192
      6 C           0.5429    3.8823   28.9085 C.ar    1  UNL1        0.0829
      7 N           0.5014    2.5365   29.5696 N.ar    1  UNL1       -0.2731
      8 C           1.2000    2.3226   30.8797 C.ar    1  UNL1        0.0670
      9 C           0.9537    3.2616   32.0231 C.ar    1  UNL1        0.0191
     10 C           1.6523    3.0477   33.3331 C.ar    1  UNL1        0.0203
     11 C           2.5972    1.8946   33.4997 C.ar    1  UNL1        0.0795
     12 C           2.8434    0.9555   32.3563 C.ar    1  UNL1        0.0396
     13 C           3.8219   -0.0853   32.8138 C.ar    1  UNL1        0.1216
     14 N           4.1804    0.2106   34.2400 N.ar    1  UNL1       -0.1677
     15 N           3.4235    1.4342   34.6639 N.ar    1  UNL1       -0.2494
     16 C           2.1448    1.1695   31.0463 C.ar    1  UNL1        0.0207
     17 C           3.4825    2.0835   36.0148 C.3     1  UNL1        0.1447
     18 C           3.3980    1.2437   37.2549 C.3     1  UNL1        0.0988
     19 N           2.2579    1.4311   38.2114 N.3     1  UNL1       -0.2710
     20 C           1.6853    0.3816   39.1172 C.3     1  UNL1        0.0722
     21 C           0.5637    1.0028   39.8957 C.3     1  UNL1        0.0188
     22 C           0.4431    2.4364   39.4710 C.3     1  UNL1        0.0188
     23 C           1.4902    2.7011   38.4300 C.3     1  UNL1        0.0722
     24 C          -1.5944    3.1782   25.6395 C.ar    1  UNL1        0.0002
     25 C          -0.8105    3.1658   24.3608 C.ar    1  UNL1       -0.0001
     26 C          -1.5090    3.3797   23.0506 C.ar    1  UNL1        0.0039
     27 C          -2.9915    3.6060   23.0194 C.ar    1  UNL1        0.0714
     28 C          -3.7755    3.6184   24.2982 C.ar    1  UNL1        0.0039
     29 C          -3.0769    3.4045   25.6082 C.ar    1  UNL1       -0.0001
     30 C          -3.6901    3.8199   21.7094 C.3     1  UNL1        0.4186
     31 F          -4.3887    4.0338   20.3993 F       1  UNL1       -0.1659
     32 F          -4.7086    4.6828   22.3934 F       1  UNL1       -0.1659
     33 F          -2.6716    2.9569   21.0253 F       1  UNL1       -0.1659
@<TRIPOS>BOND
     1     1     2    2
     2     2     3   ar
     3     3     4   ar
     4     4    24    1
     5    24    25   ar
     6    25    26   ar
     7    26    27   ar
     8    27    30    1
     9    30    31    1
    10    30    32    1
    11    30    33    1
    12    27    28   ar
    13    28    29   ar
    14     4     5   ar
    15     5     6   ar
    16     6     7   ar
    17     7     8    1
    18     8     9   ar
    19     9    10   ar
    20    10    11   ar
    21    11    12   ar
    22    12    13   ar
    23    13    14   ar
    24    14    15   ar
    25    15    17    1
    26    17    18    1
    27    18    19    1
    28    19    20    1
    29    20    21    1
    30    21    22    1
    31    22    23    1
    32    12    16   ar
    33     7     2   ar
    34    16     8   ar
    35    29    24   ar
    36    15    11   ar
    37    23    19    1
@<TRIPOS>MOLECULE
*****
 33 37 0 0 0
SMALL
GASTEIGER

@<TRIPOS>ATOM
      1 O          -0.5032   -0.5816   29.4759 O.2     1  UNL1       -0.2666
      2 C          -0.2364    0.6906   28.7274 C.ar    1  UNL1        0.2648
      3 C          -1.3045    1.2891   27.8608 C.ar    1  UNL1        0.0611
      4 C          -1.0376    2.5614   27.1123 C.ar    1  UNL1        0.0062
      5 C           0.2974    3.2350   27.2303 C.ar    1  UNL1        0.0192
      6 C           1.3656    2.6364   28.0969 C.ar    1  UNL1        0.0829
      7 N           1.0987    1.3643   28.8454 N.ar    1  UNL1       -0.2731
      8 C           2.1668    0.7657   29.7120 C.ar    1  UNL1        0.0670
      9 C           3.1941   -0.1482   29.1126 C.ar    1  UNL1        0.0191
     10 C           4.2622   -0.7468   29.9792 C.ar    1  UNL1        0.0203
     11 C           4.3029   -0.4314   31.4451 C.ar    1  UNL1        0.0795
     12 C           3.2756    0.4826   32.0444 C.ar    1  UNL1        0.0396
     13 C           3.5669    0.6095   33.5103 C.ar    1  UNL1        0.1216
     14 N           4.7744   -0.2260   33.8170 N.ar    1  UNL1       -0.1677
     15 N           5.2293   -0.8693   32.5406 N.ar    1  UNL1       -0.2494
     16 C           2.2075    1.0811   31.1779 C.ar    1  UNL1        0.0207
     17 C           6.4042   -1.7890   32.3867 C.3     1  UNL1        0.1447
     18 C           6.1967   -3.2745   32.3713 C.3     1  UNL1        0.0988
     19 N           6.6036   -4.0762   31.1706 N.3     1  UNL1       -0.2710
     20 C           6.9898   -5.5256   31.1677 C.3     1  UNL1        0.0722
     21 C           7.3205   -5.9144   29.7573 C.3     1  UNL1        0.0188
     22 C           7.1387   -4.7053   28.8884 C.3     1  UNL1        0.0188
     23 C           6.6956   -3.5692   29.7619 C.3     1  UNL1        0.0722
     24 C          -2.1057    3.1599   26.2458 C.ar    1  UNL1        0.0002
     25 C          -3.3561    3.7076   26.8673 C.ar    1  UNL1       -0.0001
     26 C          -4.4243    4.3061   26.0008 C.ar    1  UNL1        0.0039
     27 C          -4.2420    4.3570   24.5127 C.ar    1  UNL1        0.0714
     28 C          -2.9914    3.8092   23.8913 C.ar    1  UNL1        0.0039
     29 C          -1.9233    3.2107   24.7578 C.ar    1  UNL1       -0.0001
     30 C          -5.3101    4.9555   23.6462 C.3     1  UNL1        0.4186
     31 F          -6.3782    5.5540   22.7797 F       1  UNL1       -0.1659
     32 F          -4.2579    5.6145   22.8045 F       1  UNL1       -0.1659
     33 F          -6.3622    4.2964   24.4880 F       1  UNL1       -0.1659
@<TRIPOS>BOND
     1     1     2    2
     2     2     3   ar
     3     3     4   ar
     4     4    24    1
     5    24    25   ar
     6    25    26   ar
     7    26    27   ar
     8    27    30    1
     9    30    31    1
    10    30    32    1
    11    30    33    1
    12    27    28   ar
    13    28    29   ar
    14     4     5   ar
    15     5     6   ar
    16     6     7   ar
    17     7     8    1
    18     8     9   ar
    19     9    10   ar
    20    10    11   ar
    21    11    12   ar
    22    12    13   ar
    23    13    14   ar
    24    14    15   ar
    25    15    17    1
    26    17    18    1
    27    18    19    1
    28    19    20    1
    29    20    21    1
    30    21    22    1
    31    22    23    1
    32    12    16   ar
    33     7     2   ar
    34    16     8   ar
    35    29    24   ar
    36    15    11   ar
    37    23    19    1
@<TRIPOS>MOLECULE
*****
 33 37 0 0 0
SMALL
GASTEIGER

@<TRIPOS>ATOM
      1 O           0.3025    4.8047   27.5834 O.2     1  UNL1       -0.2666
      2 C           0.1740    3.3911   28.0684 C.ar    1  UNL1        0.2648
      3 C           1.0655    2.8907   29.1659 C.ar    1  UNL1        0.0611
      4 C           0.9370    1.4770   29.6509 C.ar    1  UNL1        0.0062
      5 C          -0.0832    0.5638   29.0382 C.ar    1  UNL1        0.0192
      6 C          -0.9749    1.0643   27.9407 C.ar    1  UNL1        0.0829
      7 N          -0.8463    2.4779   27.4557 N.ar    1  UNL1       -0.2731
      8 C          -1.7379    2.9784   26.3582 C.ar    1  UNL1        0.0670
      9 C          -1.2468    2.9931   24.9409 C.ar    1  UNL1        0.0191
     10 C          -2.1384    3.4935   23.8435 C.ar    1  UNL1        0.0203
     11 C          -3.5211    3.9793   24.1632 C.ar    1  UNL1        0.0795
     12 C          -4.0122    3.9646   25.5804 C.ar    1  UNL1        0.0396
     13 C          -5.4127    4.5016   25.5913 C.ar    1  UNL1        0.1216
     14 N          -5.7872    4.8482   24.1807 N.ar    1  UNL1       -0.1677
     15 N          -4.6181    4.5254   23.2981 N.ar    1  UNL1       -0.2494
     16 C          -3.1206    3.4641   26.6779 C.ar    1  UNL1        0.0207
     17 C          -4.5568    4.7153   21.8114 C.3     1  UNL1        0.1447
     18 C          -4.4906    3.5220   20.9050 C.3     1  UNL1        0.0988
     19 N          -4.1628    3.7009   19.4523 N.3     1  UNL1       -0.2710
     20 C          -5.1276    3.5830   18.3097 C.3     1  UNL1        0.0722
     21 C          -4.3737    3.8383   17.0383 C.3     1  UNL1        0.0188
     22 C          -2.9431    4.1141   17.3950 C.3     1  UNL1        0.0188
     23 C          -2.8128    4.0292   18.8870 C.3     1  UNL1        0.0722
     24 C           1.8285    0.9766   30.7484 C.ar    1  UNL1        0.0002
     25 C           1.9652    1.7607   32.0198 C.ar    1  UNL1       -0.0001
     26 C           2.8569    1.2603   33.1174 C.ar    1  UNL1        0.0039
     27 C           3.6118   -0.0242   32.9435 C.ar    1  UNL1        0.0714
     28 C           3.4750   -0.8083   31.6720 C.ar    1  UNL1        0.0039
     29 C           2.5834   -0.3079   30.5745 C.ar    1  UNL1       -0.0001
     30 C           4.5034   -0.5246   34.0410 C.3     1  UNL1        0.4186
     31 F           5.3950   -1.0250   35.1386 F       1  UNL1       -0.1659
     32 F           3.9368   -1.9033   33.8727 F       1  UNL1       -0.1659
     33 F           5.0699    0.8540   34.2094 F       1  UNL1       -0.1659
@<TRIPOS>BOND
     1     1     2    2
     2     2     3   ar
     3     3     4   ar
     4     4    24    1
     5    24    25   ar
     6    25    26   ar
     7    26    27   ar
     8    27    30    1
     9    30    31    1
    10    30    32    1
    11    30    33    1
    12    27    28   ar
    13    28    29   ar
    14     4     5   ar
    15     5     6   ar
    16     6     7   ar
    17     7     8    1
    18     8     9   ar
    19     9    10   ar
    20    10    11   ar
    21    11    12   ar
    22    12    13   ar
    23    13    14   ar
    24    14    15   ar
    25    15    17    1
    26    17    18    1
    27    18    19    1
    28    19    20    1
    29    20    21    1
    30    21    22    1
    31    22    23    1
    32    12    16   ar
    33     7     2   ar
    34    16     8   ar
    35    29    24   ar
    36    15    11   ar
    37    23    19    1
@<TRIPOS>MOLECULE
*****
 33 37 0 0 0
SMALL
GASTEIGER

@<TRIPOS>ATOM
      1 O          -0.3184   -0.3879   29.7138 O.2     1  UNL1       -0.2666
      2 C          -0.2087    0.9766   29.1006 C.ar    1  UNL1        0.2648
      3 C          -1.0946    1.3556   27.9510 C.ar    1  UNL1        0.0611
      4 C          -0.9849    2.7202   27.3377 C.ar    1  UNL1        0.0062
      5 C           0.0106    3.7057   27.8741 C.ar    1  UNL1        0.0192
      6 C           0.8965    3.3266   29.0238 C.ar    1  UNL1        0.0829
      7 N           0.7868    1.9621   29.6370 N.ar    1  UNL1       -0.2731
      8 C           1.6727    1.5831   30.7866 C.ar    1  UNL1        0.0670
      9 C           1.7957    2.4950   31.9711 C.ar    1  UNL1        0.0191
     10 C           2.6815    2.1159   33.1207 C.ar    1  UNL1        0.0203
     11 C           3.4444    0.8249   33.0857 C.ar    1  UNL1        0.0795
     12 C           3.3214   -0.0871   31.9012 C.ar    1  UNL1        0.0396
     13 C           4.1887   -1.2859   32.1472 C.ar    1  UNL1        0.1216
     14 N           4.8477   -1.1149   33.4838 N.ar    1  UNL1       -0.1677
     15 N           4.3877    0.1896   34.0639 N.ar    1  UNL1       -0.2494
     16 C           2.4355    0.2920   30.7516 C.ar    1  UNL1        0.0207
     17 C           4.7988    0.7590   35.3893 C.3     1  UNL1        0.1447
     18 C           4.0954    0.3271   36.6417 C.3     1  UNL1        0.0988
     19 N           3.1773    1.2771   37.3520 N.3     1  UNL1       -0.2710
     20 C           2.4453    1.0045   38.6325 C.3     1  UNL1        0.0722
     21 C           1.6456    2.2255   38.9783 C.3     1  UNL1        0.0188
     22 C           1.8832    3.2527   37.9114 C.3     1  UNL1        0.0188
     23 C           2.8299    2.6666   36.9063 C.3     1  UNL1        0.0722
     24 C          -1.8708    3.0992   26.1882 C.ar    1  UNL1        0.0002
     25 C          -3.3116    3.4381   26.4316 C.ar    1  UNL1       -0.0001
     26 C          -4.1975    3.8172   25.2820 C.ar    1  UNL1        0.0039
     27 C          -3.6426    3.8573   23.8890 C.ar    1  UNL1        0.0714
     28 C          -2.2018    3.5183   23.6456 C.ar    1  UNL1        0.0039
     29 C          -1.3159    3.1393   24.7952 C.ar    1  UNL1       -0.0001
     30 C          -4.5285    4.2363   22.7394 C.3     1  UNL1        0.4186
     31 F          -5.4143    4.6153   21.5898 F       1  UNL1       -0.1659
     32 F          -5.0943    2.8473   22.7175 F       1  UNL1       -0.1659
     33 F          -3.9626    5.6252   22.7613 F       1  UNL1       -0.1659
@<TRIPOS>BOND
     1     1     2    2
     2     2     3   ar
     3     3     4   ar
     4     4    24    1
     5    24    25   ar
     6    25    26   ar
     7    26    27   ar
     8    27    30    1
     9    30    31    1
    10    30    32    1
    11    30    33    1
    12    27    28   ar
    13    28    29   ar
    14     4     5   ar
    15     5     6   ar
    16     6     7   ar
    17     7     8    1
    18     8     9   ar
    19     9    10   ar
    20    10    11   ar
    21    11    12   ar
    22    12    13   ar
    23    13    14   ar
    24    14    15   ar
    25    15    17    1
    26    17    18    1
    27    18    19    1
    28    19    20    1
    29    20    21    1
    30    21    22    1
    31    22    23    1
    32    12    16   ar
    33     7     2   ar
    34    16     8   ar
    35    29    24   ar
    36    15    11   ar
    37    23    19    1
@<TRIPOS>MOLECULE
*****
 33 37 0 0 0
SMALL
GASTEIGER

@<TRIPOS>ATOM
      1 O           2.5389    2.7217   27.8541 O.2     1  UNL1       -0.2666
      2 C           2.9828    1.3302   27.5121 C.ar    1  UNL1        0.2648
      3 C           3.0172    0.8846   26.0802 C.ar    1  UNL1        0.0611
      4 C           3.4611   -0.5069   25.7382 C.ar    1  UNL1        0.0062
      5 C           3.8705   -1.4526   26.8281 C.ar    1  UNL1        0.0192
      6 C           3.8360   -1.0070   28.2600 C.ar    1  UNL1        0.0829
      7 N           3.3922    0.3844   28.6020 N.ar    1  UNL1       -0.2731
      8 C           3.3577    0.8301   30.0339 C.ar    1  UNL1        0.0670
      9 C           2.0420    1.0642   30.7150 C.ar    1  UNL1        0.0191
     10 C           2.0076    1.5098   32.1468 C.ar    1  UNL1        0.0203
     11 C           3.2889    1.7214   32.8975 C.ar    1  UNL1        0.0795
     12 C           4.6046    1.4873   32.2163 C.ar    1  UNL1        0.0396
     13 C           5.6958    1.7759   33.2043 C.ar    1  UNL1        0.1216
     14 N           5.0544    2.1883   34.4960 N.ar    1  UNL1       -0.1677
     15 N           3.5669    2.1546   34.3065 N.ar    1  UNL1       -0.2494
     16 C           4.6390    1.0417   30.7845 C.ar    1  UNL1        0.0207
     17 C           2.5380    2.4945   35.3437 C.3     1  UNL1        0.1447
     18 C           2.9516    2.7026   36.7704 C.3     1  UNL1        0.0988
     19 N           2.1257    2.1269   37.8824 N.3     1  UNL1       -0.2710
     20 C           1.0026    2.8191   38.5960 C.3     1  UNL1        0.0722
     21 C           0.4608    1.8779   39.6306 C.3     1  UNL1        0.0188
     22 C           1.2491    0.6039   39.5564 C.3     1  UNL1        0.0188
     23 C           2.2781    0.7578   38.4759 C.3     1  UNL1        0.0722
     24 C           3.4955   -0.9525   24.3064 C.ar    1  UNL1        0.0002
     25 C           2.6896   -0.2215   23.2739 C.ar    1  UNL1       -0.0001
     26 C           2.7240   -0.6671   21.8420 C.ar    1  UNL1        0.0039
     27 C           3.5644   -1.8436   21.4426 C.ar    1  UNL1        0.0714
     28 C           4.3704   -2.5746   22.4752 C.ar    1  UNL1        0.0039
     29 C           4.3360   -2.1290   23.9070 C.ar    1  UNL1       -0.0001
     30 C           3.5989   -2.2892   20.0108 C.3     1  UNL1        0.4186
     31 F           3.6333   -2.7348   18.5789 F       1  UNL1       -0.1659
     32 F           3.3027   -0.8873   19.5673 F       1  UNL1       -0.1659
     33 F           3.8951   -3.6912   20.4542 F       1  UNL1       -0.1659
@<TRIPOS>BOND
     1     1     2    2
     2     2     3   ar
     3     3     4   ar
     4     4    24    1
     5    24    25   ar
     6    25    26   ar
     7    26    27   ar
     8    27    30    1
     9    30    31    1
    10    30    32    1
    11    30    33    1
    12    27    28   ar
    13    28    29   ar
    14     4     5   ar
    15     5     6   ar
    16     6     7   ar
    17     7     8    1
    18     8     9   ar
    19     9    10   ar
    20    10    11   ar
    21    11    12   ar
    22    12    13   ar
    23    13    14   ar
    24    14    15   ar
    25    15    17    1
    26    17    18    1
    27    18    19    1
    28    19    20    1
    29    20    21    1
    30    21    22    1
    31    22    23    1
    32    12    16   ar
    33     7     2   ar
    34    16     8   ar
    35    29    24   ar
    36    15    11   ar
    37    23    19    1
@<TRIPOS>MOLECULE
*****
 33 37 0 0 0
SMALL
GASTEIGER

@<TRIPOS>ATOM
      1 O           4.2992    2.3539   28.2319 O.2     1  UNL1       -0.2666
      2 C           2.9784    1.9577   27.6415 C.ar    1  UNL1        0.2648
      3 C           2.8504    1.7503   26.1615 C.ar    1  UNL1        0.0611
      4 C           1.5296    1.3540   25.5710 C.ar    1  UNL1        0.0062
      5 C           0.3368    1.1652   26.4607 C.ar    1  UNL1        0.0192
      6 C           0.4648    1.3727   27.9409 C.ar    1  UNL1        0.0829
      7 N           1.7856    1.7689   28.5312 N.ar    1  UNL1       -0.2731
      8 C           1.9136    1.9763   30.0113 C.ar    1  UNL1        0.0670
      9 C           2.6508    0.9733   30.8482 C.ar    1  UNL1        0.0191
     10 C           2.7788    1.1808   32.3282 C.ar    1  UNL1        0.0203
     11 C           2.1696    2.3913   32.9714 C.ar    1  UNL1        0.0795
     12 C           1.4324    3.3943   32.1344 C.ar    1  UNL1        0.0396
     13 C           0.9404    4.4828   33.0417 C.ar    1  UNL1        0.1216
     14 N           1.3735    4.1525   34.4393 N.ar    1  UNL1       -0.1677
     15 N           2.1332    2.8599   34.3959 N.ar    1  UNL1       -0.2494
     16 C           1.3044    3.1868   30.6544 C.ar    1  UNL1        0.0207
     17 C           2.7485    2.1589   35.5706 C.3     1  UNL1        0.1447
     18 C           2.6961    2.7882   36.9312 C.3     1  UNL1        0.0988
     19 N           1.9887    2.0893   38.0542 N.3     1  UNL1       -0.2710
     20 C           2.2058    0.6688   38.4845 C.3     1  UNL1        0.0722
     21 C           1.2913    0.3898   39.6403 C.3     1  UNL1        0.0188
     22 C           0.5090    1.6377   39.9242 C.3     1  UNL1        0.0188
     23 C           0.9400    2.6881   38.9439 C.3     1  UNL1        0.0722
     24 C           1.4017    1.1466   24.0910 C.ar    1  UNL1        0.0002
     25 C           0.3585    1.8958   23.3162 C.ar    1  UNL1       -0.0001
     26 C           0.2305    1.6884   21.8360 C.ar    1  UNL1        0.0039
     27 C           1.1457    0.7318   21.1308 C.ar    1  UNL1        0.0714
     28 C           2.1890   -0.0174   21.9058 C.ar    1  UNL1        0.0039
     29 C           2.3169    0.1901   23.3858 C.ar    1  UNL1       -0.0001
     30 C           1.0177    0.5244   19.6508 C.3     1  UNL1        0.4186
     31 F           0.8898    0.3170   18.1708 F       1  UNL1       -0.1659
     32 F           1.8210   -0.7378   19.7582 F       1  UNL1       -0.1659
     33 F           0.2145    1.7866   19.5434 F       1  UNL1       -0.1659
@<TRIPOS>BOND
     1     1     2    2
     2     2     3   ar
     3     3     4   ar
     4     4    24    1
     5    24    25   ar
     6    25    26   ar
     7    26    27   ar
     8    27    30    1
     9    30    31    1
    10    30    32    1
    11    30    33    1
    12    27    28   ar
    13    28    29   ar
    14     4     5   ar
    15     5     6   ar
    16     6     7   ar
    17     7     8    1
    18     8     9   ar
    19     9    10   ar
    20    10    11   ar
    21    11    12   ar
    22    12    13   ar
    23    13    14   ar
    24    14    15   ar
    25    15    17    1
    26    17    18    1
    27    18    19    1
    28    19    20    1
    29    20    21    1
    30    21    22    1
    31    22    23    1
    32    12    16   ar
    33     7     2   ar
    34    16     8   ar
    35    29    24   ar
    36    15    11   ar
    37    23    19    1
@<TRIPOS>MOLECULE
*****
 33 37 0 0 0
SMALL
GASTEIGER

@<TRIPOS>ATOM
      1 O           6.1922   -2.4567   29.0928 O.2     1  UNL1       -0.2666
      2 C           5.1880   -1.6562   28.3175 C.ar    1  UNL1        0.2648
      3 C           5.0346   -1.8730   26.8412 C.ar    1  UNL1        0.0611
      4 C           4.0304   -1.0724   26.0660 C.ar    1  UNL1        0.0062
      5 C           3.1798   -0.0552   26.7671 C.ar    1  UNL1        0.0192
      6 C           3.3333    0.1616   28.2434 C.ar    1  UNL1        0.0829
      7 N           4.3374   -0.6389   29.0186 N.ar    1  UNL1       -0.2731
      8 C           4.4909   -0.4222   30.4950 C.ar    1  UNL1        0.0670
      9 C           3.8096   -1.3433   31.4631 C.ar    1  UNL1        0.0191
     10 C           3.9631   -1.1266   32.9393 C.ar    1  UNL1        0.0203
     11 C           4.7979    0.0114   33.4475 C.ar    1  UNL1        0.0795
     12 C           5.4792    0.9326   32.4794 C.ar    1  UNL1        0.0396
     13 C           6.2323    1.9611   33.2699 C.ar    1  UNL1        0.1216
     14 N           6.0165    1.6755   34.7266 N.ar    1  UNL1       -0.1677
     15 N           5.1300    0.4706   34.8364 N.ar    1  UNL1       -0.2494
     16 C           5.3256    0.7158   31.0031 C.ar    1  UNL1        0.0207
     17 C           4.6584   -0.1638   36.1112 C.3     1  UNL1        0.1447
     18 C           4.6787    0.6188   37.3906 C.3     1  UNL1        0.0988
     19 N           3.4861    1.4368   37.7886 N.3     1  UNL1       -0.2710
     20 C           3.0789    2.7508   37.1907 C.3     1  UNL1        0.0722
     21 C           1.8324    3.2104   37.8870 C.3     1  UNL1        0.0188
     22 C           1.4691    2.1805   38.9152 C.3     1  UNL1        0.0188
     23 C           2.4912    1.0843   38.8544 C.3     1  UNL1        0.0722
     24 C           3.8770   -1.2892   24.5897 C.ar    1  UNL1        0.0002
     25 C           2.9396   -0.4261   23.7984 C.ar    1  UNL1       -0.0001
     26 C           2.7861   -0.6428   22.3221 C.ar    1  UNL1        0.0039
     27 C           3.5700   -1.7227   21.6371 C.ar    1  UNL1        0.0714
     28 C           4.5075   -2.5859   22.4285 C.ar    1  UNL1        0.0039
     29 C           4.6610   -2.3691   23.9048 C.ar    1  UNL1       -0.0001
     30 C           3.4166   -1.9395   20.1608 C.3     1  UNL1        0.4186
     31 F           3.2632   -2.1563   18.6846 F       1  UNL1       -0.1659
     32 F           4.7749   -2.5741   20.1128 F       1  UNL1       -0.1659
     33 F           2.0583   -1.3050   20.2088 F       1  UNL1       -0.1659
@<TRIPOS>BOND
     1     1     2    2
     2     2     3   ar
     3     3     4   ar
     4     4    24    1
     5    24    25   ar
     6    25    26   ar
     7    26    27   ar
     8    27    30    1
     9    30    31    1
    10    30    32    1
    11    30    33    1
    12    27    28   ar
    13    28    29   ar
    14     4     5   ar
    15     5     6   ar
    16     6     7   ar
    17     7     8    1
    18     8     9   ar
    19     9    10   ar
    20    10    11   ar
    21    11    12   ar
    22    12    13   ar
    23    13    14   ar
    24    14    15   ar
    25    15    17    1
    26    17    18    1
    27    18    19    1
    28    19    20    1
    29    20    21    1
    30    21    22    1
    31    22    23    1
    32    12    16   ar
    33     7     2   ar
    34    16     8   ar
    35    29    24   ar
    36    15    11   ar
    37    23    19    1
