@<TRIPOS>MOLECULE
*****
 34 37 0 0 0
SMALL
GASTEIGER

@<TRIPOS>ATOM
      1 N           8.5163   -7.5346   25.5976 N.3     1  UNL1       -0.2673
      2 C           9.2565   -7.7470   24.3104 C.3     1  UNL1        0.1035
      3 C           9.0053   -6.8399   23.1425 C.3     1  UNL1        0.1470
      4 C           8.7542   -5.9329   21.9744 C.3     1  UNL1        0.1037
      5 N           7.7629   -4.8135   22.0937 N.3     1  UNL1       -0.2647
      6 C           7.0227   -4.6012   23.3810 C.3     1  UNL1        0.1037
      7 C           7.2738   -5.5082   24.5490 C.3     1  UNL1        0.1470
      8 C           7.5250   -6.4152   25.7169 C.3     1  UNL1        0.1035
      9 O           8.0140   -5.7206   23.2618 O.3     1  UNL1       -0.3530
     10 C           8.7674   -8.4417   26.7657 C.3     1  UNL1        0.0913
     11 C           7.6171   -9.1165   27.4521 C.3     1  UNL1        0.1087
     12 N           7.7091  -10.5684   27.8180 N.3     1  UNL1       -0.1780
     13 H           8.3233  -11.0066   27.1317 H       1  UNL1        0.1488
     14 S           6.4662  -11.4055   27.8836 S.O2    1  UNL1        0.0603
     15 O           7.2431  -12.5075   28.5409 O.2     1  UNL1       -0.1530
     16 O           5.6892  -10.3035   27.2264 O.2     1  UNL1       -0.1530
     17 C           2.7373  -13.9169   28.0806 C.ar    1  UNL1        0.0685
     18 C           3.7081  -14.1029   26.9524 C.ar    1  UNL1        0.0116
     19 C           4.9511  -13.2658   26.8867 C.ar    1  UNL1        0.0206
     20 C           5.2233  -12.2426   27.9493 C.ar    1  UNL1        0.1220
     21 C           4.2524  -12.0566   29.0775 C.ar    1  UNL1        0.0206
     22 C           3.0095  -12.8937   29.1432 C.ar    1  UNL1        0.0116
     23 N           0.2514  -15.5911   28.2119 N.1     1  UNL1       -0.1908
     24 C           1.4944  -14.7540   28.1463 C.1     1  UNL1        0.1004
     25 C           7.5117   -3.9064   20.9258 C.3     1  UNL1        0.1015
     26 C           6.1860   -3.2197   20.7809 C.ar    1  UNL1        0.0214
     27 C           5.9609   -1.8812   21.4195 C.ar    1  UNL1       -0.0000
     28 C           4.6353   -1.1945   21.2746 C.ar    1  UNL1        0.0101
     29 C           3.5347   -1.8463   20.4912 C.ar    1  UNL1        0.0707
     30 C           3.7597   -3.1848   19.8526 C.ar    1  UNL1        0.0396
     31 C           5.0854   -3.8715   19.9975 C.ar    1  UNL1        0.1381
     32 F           5.3104   -5.2100   19.3589 F       1  UNL1       -0.2044
     33 C           2.2089   -1.1596   20.3463 C.1     1  UNL1        0.1005
     34 N           0.8832   -0.4730   20.2015 N.1     1  UNL1       -0.1908
@<TRIPOS>BOND
     1    23    24    3
     2    24    17    1
     3    17    18   ar
     4    18    19   ar
     5    19    20   ar
     6    20    14    1
     7    14    15    2
     8    14    16    2
     9    14    12    1
    10    12    11    1
    11    11    10    1
    12    10     1    1
    13     1     2    1
    14     2     3    1
    15     3     4    1
    16     4     5    1
    17     5    25    1
    18    25    26    1
    19    26    27   ar
    20    27    28   ar
    21    28    29   ar
    22    29    33    1
    23    33    34    3
    24    29    30   ar
    25    30    31   ar
    26    31    32    1
    27     5     6    1
    28     6     7    1
    29     7     8    1
    30     7     9    1
    31    20    21   ar
    32    21    22   ar
    33    22    17   ar
    34     8     1    1
    35     9     3    1
    36    31    26   ar
    37    12    13    1
@<TRIPOS>MOLECULE
*****
 34 37 0 0 0
SMALL
GASTEIGER

@<TRIPOS>ATOM
      1 N           8.3372   -7.0467   28.4991 N.3     1  UNL1       -0.2673
      2 C           8.3254   -6.4497   29.8751 C.3     1  UNL1        0.1035
      3 C           7.8540   -5.0401   30.0770 C.3     1  UNL1        0.1470
      4 C           7.3825   -3.6305   30.2789 C.3     1  UNL1        0.1037
      5 N           6.9230   -2.8179   29.1048 N.3     1  UNL1       -0.2647
      6 C           6.9348   -3.4150   27.7287 C.3     1  UNL1        0.1037
      7 C           7.4062   -4.8246   27.5269 C.3     1  UNL1        0.1470
      8 C           7.8776   -6.2342   27.3250 C.3     1  UNL1        0.1035
      9 O           7.3944   -4.2276   28.9028 O.3     1  UNL1       -0.3530
     10 C           8.8086   -8.4564   28.2972 C.3     1  UNL1        0.0913
     11 C           7.9578   -9.4301   27.5370 C.3     1  UNL1        0.1087
     12 N           7.9357  -10.8764   27.9344 N.3     1  UNL1       -0.1780
     13 H           8.5345  -11.3724   27.2742 H       1  UNL1        0.1488
     14 S           6.6346  -11.6212   27.9826 S.O2    1  UNL1        0.0603
     15 O           7.3396  -12.8159   28.5531 O.2     1  UNL1       -0.1530
     16 O           5.9296  -10.4264   27.4121 O.2     1  UNL1       -0.1530
     17 C           2.7311  -13.8554   28.1272 C.ar    1  UNL1        0.0685
     18 C           3.0810  -12.8856   29.2168 C.ar    1  UNL1        0.0116
     19 C           4.3822  -12.1409   29.1686 C.ar    1  UNL1        0.0206
     20 C           5.3334  -12.3659   28.0308 C.ar    1  UNL1        0.1220
     21 C           4.9835  -13.3357   26.9413 C.ar    1  UNL1        0.0206
     22 C           3.6824  -14.0805   26.9895 C.ar    1  UNL1        0.0116
     23 N           0.1288  -15.3449   28.2237 N.1     1  UNL1       -0.1908
     24 C           1.4300  -14.6002   28.1755 C.1     1  UNL1        0.1004
     25 C           6.4515   -1.4083   29.3066 C.3     1  UNL1        0.1015
     26 C           4.9833   -1.1011   29.3059 C.ar    1  UNL1        0.0214
     27 C           4.2451   -0.9703   28.0067 C.ar    1  UNL1       -0.0000
     28 C           2.7769   -0.6631   28.0059 C.ar    1  UNL1        0.0101
     29 C           2.0469   -0.4868   29.3043 C.ar    1  UNL1        0.0707
     30 C           2.7851   -0.6176   30.6036 C.ar    1  UNL1        0.0396
     31 C           4.2533   -0.9248   30.6043 C.ar    1  UNL1        0.1381
     32 F           4.9915   -1.0556   31.9035 F       1  UNL1       -0.2044
     33 C           0.5787   -0.1796   29.3036 C.1     1  UNL1        0.1005
     34 N          -0.8895    0.1277   29.3029 N.1     1  UNL1       -0.1908
@<TRIPOS>BOND
     1    23    24    3
     2    24    17    1
     3    17    18   ar
     4    18    19   ar
     5    19    20   ar
     6    20    14    1
     7    14    15    2
     8    14    16    2
     9    14    12    1
    10    12    11    1
    11    11    10    1
    12    10     1    1
    13     1     2    1
    14     2     3    1
    15     3     4    1
    16     4     5    1
    17     5    25    1
    18    25    26    1
    19    26    27   ar
    20    27    28   ar
    21    28    29   ar
    22    29    33    1
    23    33    34    3
    24    29    30   ar
    25    30    31   ar
    26    31    32    1
    27     5     6    1
    28     6     7    1
    29     7     8    1
    30     7     9    1
    31    20    21   ar
    32    21    22   ar
    33    22    17   ar
    34     8     1    1
    35     9     3    1
    36    31    26   ar
    37    12    13    1
@<TRIPOS>MOLECULE
*****
 34 37 0 0 0
SMALL
GASTEIGER

@<TRIPOS>ATOM
      1 N           8.4590   -7.1373   28.5313 N.3     1  UNL1       -0.2673
      2 C           8.2736   -6.3191   27.2879 C.3     1  UNL1        0.1035
      3 C           7.8159   -4.8942   27.3890 C.3     1  UNL1        0.1470
      4 C           7.3582   -3.4693   27.4901 C.3     1  UNL1        0.1037
      5 N           7.0859   -2.8626   28.8346 N.3     1  UNL1       -0.2647
      6 C           7.2713   -3.6809   30.0781 C.3     1  UNL1        0.1037
      7 C           7.7290   -5.1058   29.9770 C.3     1  UNL1        0.1470
      8 C           8.1866   -6.5306   29.8758 C.3     1  UNL1        0.1035
      9 O           7.5436   -4.2876   28.7336 O.3     1  UNL1       -0.3530
     10 C           8.9167   -8.5622   28.4302 C.3     1  UNL1        0.0913
     11 C           8.1663   -9.5314   27.5657 C.3     1  UNL1        0.1087
     12 N           8.0944  -10.9796   27.9502 N.3     1  UNL1       -0.1780
     13 H           8.6775  -11.4897   27.2867 H       1  UNL1        0.1488
     14 S           6.7687  -11.6802   27.9897 S.O2    1  UNL1        0.0603
     15 O           6.0905  -10.4225   27.5336 O.2     1  UNL1       -0.1530
     16 O           7.4470  -12.9379   28.4458 O.2     1  UNL1       -0.1530
     17 C           2.7916  -13.7821   28.1081 C.ar    1  UNL1        0.0685
     18 C           3.7588  -14.0693   26.9982 C.ar    1  UNL1        0.0116
     19 C           5.0846  -13.3686   26.9587 C.ar    1  UNL1        0.0206
     20 C           5.4431  -12.3808   28.0292 C.ar    1  UNL1        0.1220
     21 C           4.4757  -12.0937   29.1391 C.ar    1  UNL1        0.0206
     22 C           3.1500  -12.7943   29.1785 C.ar    1  UNL1        0.0116
     23 N           0.1401  -15.1834   28.1870 N.1     1  UNL1       -0.1908
     24 C           1.4659  -14.4827   28.1476 C.1     1  UNL1        0.1004
     25 C           6.6282   -1.4378   28.9358 C.3     1  UNL1        0.1015
     26 C           5.1642   -1.1253   29.0314 C.ar    1  UNL1        0.0214
     27 C           4.5512   -0.8038   30.3621 C.ar    1  UNL1       -0.0000
     28 C           3.0873   -0.4913   30.4577 C.ar    1  UNL1        0.0101
     29 C           2.2363   -0.5002   29.2226 C.ar    1  UNL1        0.0707
     30 C           2.8492   -0.8217   27.8918 C.ar    1  UNL1        0.0396
     31 C           4.3132   -1.1342   27.7962 C.ar    1  UNL1        0.1381
     32 F           4.9261   -1.4557   26.4654 F       1  UNL1       -0.2044
     33 C           0.7723   -0.1877   29.3181 C.1     1  UNL1        0.1005
     34 N          -0.6916    0.1248   29.4137 N.1     1  UNL1       -0.1908
@<TRIPOS>BOND
     1    23    24    3
     2    24    17    1
     3    17    18   ar
     4    18    19   ar
     5    19    20   ar
     6    20    14    1
     7    14    15    2
     8    14    16    2
     9    14    12    1
    10    12    11    1
    11    11    10    1
    12    10     1    1
    13     1     2    1
    14     2     3    1
    15     3     4    1
    16     4     5    1
    17     5    25    1
    18    25    26    1
    19    26    27   ar
    20    27    28   ar
    21    28    29   ar
    22    29    33    1
    23    33    34    3
    24    29    30   ar
    25    30    31   ar
    26    31    32    1
    27     5     6    1
    28     6     7    1
    29     7     8    1
    30     7     9    1
    31    20    21   ar
    32    21    22   ar
    33    22    17   ar
    34     8     1    1
    35     9     3    1
    36    31    26   ar
    37    12    13    1
@<TRIPOS>MOLECULE
*****
 34 37 0 0 0
SMALL
GASTEIGER

@<TRIPOS>ATOM
      1 N          -4.4169  -19.3888   21.0394 N.3     1  UNL1       -0.2673
      2 C          -5.0825  -19.6801   19.7272 C.3     1  UNL1        0.1035
      3 C          -6.5617  -19.4822   19.5764 C.3     1  UNL1        0.1470
      4 C          -8.0410  -19.2844   19.4256 C.3     1  UNL1        0.1037
      5 N          -8.8545  -18.7953   20.5870 N.3     1  UNL1       -0.2647
      6 C          -8.1888  -18.5040   21.8993 C.3     1  UNL1        0.1037
      7 C          -6.7096  -18.7019   22.0501 C.3     1  UNL1        0.1470
      8 C          -5.2304  -18.8997   22.2008 C.3     1  UNL1        0.1035
      9 O          -7.3753  -18.9931   20.7378 O.3     1  UNL1       -0.3530
     10 C          -2.9376  -19.5866   21.1902 C.3     1  UNL1        0.0913
     11 C          -1.9961  -18.4559   20.8987 C.3     1  UNL1        0.1087
     12 N          -1.6965  -17.4372   21.9582 N.3     1  UNL1       -0.1780
     13 H          -0.9385  -17.8166   22.5255 H       1  UNL1        0.1488
     14 S          -2.7735  -17.0042   22.9083 S.O2    1  UNL1        0.0603
     15 O          -2.4326  -18.1485   23.8162 O.2     1  UNL1       -0.1530
     16 O          -3.1143  -15.8599   22.0003 O.2     1  UNL1       -0.1530
     17 C          -6.0044  -15.7053   25.7584 C.ar    1  UNL1        0.0685
     18 C          -5.9342  -15.1109   24.3831 C.ar    1  UNL1        0.0116
     19 C          -4.8572  -15.5439   23.4329 C.ar    1  UNL1        0.0206
     20 C          -3.8504  -16.5712   23.8583 C.ar    1  UNL1        0.1220
     21 C          -3.9207  -17.1656   25.2338 C.ar    1  UNL1        0.0206
     22 C          -4.9976  -16.7326   26.1838 C.ar    1  UNL1        0.0116
     23 N          -8.1584  -14.8392   27.6585 N.1     1  UNL1       -0.1908
     24 C          -7.0814  -15.2723   26.7085 C.1     1  UNL1        0.1004
     25 C         -10.3337  -18.5975   20.4363 C.3     1  UNL1        0.1015
     26 C         -11.2162  -18.5847   21.6492 C.ar    1  UNL1        0.0214
     27 C         -10.9102  -19.4855   22.8089 C.ar    1  UNL1       -0.0000
     28 C         -11.7926  -19.4728   24.0218 C.ar    1  UNL1        0.0101
     29 C         -12.9810  -18.5592   24.0750 C.ar    1  UNL1        0.0707
     30 C         -13.2871  -17.6583   22.9153 C.ar    1  UNL1        0.0396
     31 C         -12.4047  -17.6711   21.7024 C.ar    1  UNL1        0.1381
     32 F         -12.7107  -16.7703   20.5427 F       1  UNL1       -0.2044
     33 C         -13.8635  -18.5464   25.2879 C.1     1  UNL1        0.1005
     34 N         -14.7460  -18.5336   26.5008 N.1     1  UNL1       -0.1908
@<TRIPOS>BOND
     1    23    24    3
     2    24    17    1
     3    17    18   ar
     4    18    19   ar
     5    19    20   ar
     6    20    14    1
     7    14    15    2
     8    14    16    2
     9    14    12    1
    10    12    11    1
    11    11    10    1
    12    10     1    1
    13     1     2    1
    14     2     3    1
    15     3     4    1
    16     4     5    1
    17     5    25    1
    18    25    26    1
    19    26    27   ar
    20    27    28   ar
    21    28    29   ar
    22    29    33    1
    23    33    34    3
    24    29    30   ar
    25    30    31   ar
    26    31    32    1
    27     5     6    1
    28     6     7    1
    29     7     8    1
    30     7     9    1
    31    20    21   ar
    32    21    22   ar
    33    22    17   ar
    34     8     1    1
    35     9     3    1
    36    31    26   ar
    37    12    13    1
@<TRIPOS>MOLECULE
*****
 34 37 0 0 0
SMALL
GASTEIGER

@<TRIPOS>ATOM
      1 N           8.6417   -7.4518   28.5142 N.3     1  UNL1       -0.2673
      2 C           7.7611   -6.3704   27.9621 C.3     1  UNL1        0.1035
      3 C           7.5819   -5.0888   28.7206 C.3     1  UNL1        0.1470
      4 C           7.4027   -3.8071   29.4792 C.3     1  UNL1        0.1037
      5 N           8.1043   -3.6070   30.7899 N.3     1  UNL1       -0.2647
      6 C           8.9850   -4.6886   31.3420 C.3     1  UNL1        0.1037
      7 C           9.1641   -5.9701   30.5834 C.3     1  UNL1        0.1470
      8 C           9.3432   -7.2517   29.8249 C.3     1  UNL1        0.1035
      9 O           8.2834   -4.8887   30.0313 O.3     1  UNL1       -0.3530
     10 C           8.8209   -8.7335   27.7556 C.3     1  UNL1        0.0913
     11 C           7.6371   -9.6112   27.4759 C.3     1  UNL1        0.1087
     12 N           7.5975  -11.0109   28.0139 N.3     1  UNL1       -0.1780
     13 H           8.2375  -11.5638   27.4436 H       1  UNL1        0.1488
     14 S           6.2992  -11.7608   28.0584 S.O2    1  UNL1        0.0603
     15 O           6.9880  -12.9136   28.7266 O.2     1  UNL1       -0.1530
     16 O           5.6104  -10.6080   27.3901 O.2     1  UNL1       -0.1530
     17 C           2.4043  -14.0106   28.1918 C.ar    1  UNL1        0.0685
     18 C           2.7258  -13.0041   29.2564 C.ar    1  UNL1        0.0116
     19 C           4.0242  -12.2541   29.2120 C.ar    1  UNL1        0.0206
     20 C           5.0009  -12.5107   28.1029 C.ar    1  UNL1        0.1220
     21 C           4.6793  -13.5173   27.0382 C.ar    1  UNL1        0.0206
     22 C           3.3810  -14.2672   27.0827 C.ar    1  UNL1        0.0116
     23 N          -0.1924  -15.5105   28.2808 N.1     1  UNL1       -0.1908
     24 C           1.1060  -14.7605   28.2363 C.1     1  UNL1        0.1004
     25 C           7.9251   -2.3255   31.5484 C.3     1  UNL1        0.1015
     26 C           6.6023   -1.6185   31.5247 C.ar    1  UNL1        0.0214
     27 C           6.4600   -0.3181   30.7908 C.ar    1  UNL1       -0.0000
     28 C           5.1373    0.3889   30.7671 C.ar    1  UNL1        0.0101
     29 C           3.9569   -0.2046   31.4773 C.ar    1  UNL1        0.0707
     30 C           4.0993   -1.5050   32.2112 C.ar    1  UNL1        0.0396
     31 C           5.4220   -2.2120   32.2349 C.ar    1  UNL1        0.1381
     32 F           5.5643   -3.5124   32.9688 F       1  UNL1       -0.2044
     33 C           2.6341    0.5024   31.4537 C.1     1  UNL1        0.1005
     34 N           1.3114    1.2094   31.4300 N.1     1  UNL1       -0.1908
@<TRIPOS>BOND
     1    23    24    3
     2    24    17    1
     3    17    18   ar
     4    18    19   ar
     5    19    20   ar
     6    20    14    1
     7    14    15    2
     8    14    16    2
     9    14    12    1
    10    12    11    1
    11    11    10    1
    12    10     1    1
    13     1     2    1
    14     2     3    1
    15     3     4    1
    16     4     5    1
    17     5    25    1
    18    25    26    1
    19    26    27   ar
    20    27    28   ar
    21    28    29   ar
    22    29    33    1
    23    33    34    3
    24    29    30   ar
    25    30    31   ar
    26    31    32    1
    27     5     6    1
    28     6     7    1
    29     7     8    1
    30     7     9    1
    31    20    21   ar
    32    21    22   ar
    33    22    17   ar
    34     8     1    1
    35     9     3    1
    36    31    26   ar
    37    12    13    1
@<TRIPOS>MOLECULE
*****
 34 37 0 0 0
SMALL
GASTEIGER

@<TRIPOS>ATOM
      1 N           3.0731    1.0054   18.6111 N.3     1  UNL1       -0.2673
      2 C           3.5517    2.1257   19.4861 C.3     1  UNL1        0.1035
      3 C           2.6346    2.7185   20.5144 C.3     1  UNL1        0.1470
      4 C           1.7174    3.3114   21.5427 C.3     1  UNL1        0.1037
      5 N           0.3216    2.7838   21.6960 N.3     1  UNL1       -0.2647
      6 C          -0.1570    1.6634   20.8209 C.3     1  UNL1        0.1037
      7 C           0.7602    1.0706   19.7926 C.3     1  UNL1        0.1470
      8 C           1.6774    0.4778   18.7644 C.3     1  UNL1        0.1035
      9 O           1.2388    2.1909   20.6676 O.3     1  UNL1       -0.3530
     10 C           3.9903    0.4125   17.5828 C.3     1  UNL1        0.0913
     11 C           3.6633   -0.9128   16.9612 C.3     1  UNL1        0.1087
     12 N           4.5790   -2.0833   17.1651 N.3     1  UNL1       -0.1780
     13 H           4.1351   -2.8858   16.7187 H       1  UNL1        0.1488
     14 S           4.9513   -2.5113   18.5536 S.O2    1  UNL1        0.0603
     15 O           6.4025   -2.3291   18.2207 O.2     1  UNL1       -0.1530
     16 O           3.5002   -2.6935   18.8865 O.2     1  UNL1       -0.1530
     17 C           6.0682   -3.7954   22.7194 C.ar    1  UNL1        0.0685
     18 C           7.1268   -3.6695   21.6642 C.ar    1  UNL1        0.0116
     19 C           6.7545   -3.2415   20.2756 C.ar    1  UNL1        0.0206
     20 C           5.3236   -2.9393   19.9422 C.ar    1  UNL1        0.1220
     21 C           4.2650   -3.0652   20.9974 C.ar    1  UNL1        0.0206
     22 C           4.6373   -3.4932   22.3860 C.ar    1  UNL1        0.0116
     23 N           6.8127   -4.6514   25.4966 N.1     1  UNL1       -0.1908
     24 C           6.4405   -4.2234   24.1080 C.1     1  UNL1        0.1004
     25 C          -0.5956    3.3766   22.7242 C.3     1  UNL1        0.1015
     26 C          -0.6324    2.8094   24.1124 C.ar    1  UNL1        0.0214
     27 C           0.2832    1.6816   24.4864 C.ar    1  UNL1       -0.0000
     28 C           0.2464    1.1145   25.8745 C.ar    1  UNL1        0.0101
     29 C          -0.7060    1.6751   26.8887 C.ar    1  UNL1        0.0707
     30 C          -1.6216    2.8028   26.5147 C.ar    1  UNL1        0.0396
     31 C          -1.5848    3.3700   25.1266 C.ar    1  UNL1        0.1381
     32 F          -2.5005    4.4977   24.7527 F       1  UNL1       -0.2044
     33 C          -0.7429    1.1079   28.2769 C.1     1  UNL1        0.1005
     34 N          -0.7797    0.5408   29.6650 N.1     1  UNL1       -0.1908
@<TRIPOS>BOND
     1    23    24    3
     2    24    17    1
     3    17    18   ar
     4    18    19   ar
     5    19    20   ar
     6    20    14    1
     7    14    15    2
     8    14    16    2
     9    14    12    1
    10    12    11    1
    11    11    10    1
    12    10     1    1
    13     1     2    1
    14     2     3    1
    15     3     4    1
    16     4     5    1
    17     5    25    1
    18    25    26    1
    19    26    27   ar
    20    27    28   ar
    21    28    29   ar
    22    29    33    1
    23    33    34    3
    24    29    30   ar
    25    30    31   ar
    26    31    32    1
    27     5     6    1
    28     6     7    1
    29     7     8    1
    30     7     9    1
    31    20    21   ar
    32    21    22   ar
    33    22    17   ar
    34     8     1    1
    35     9     3    1
    36    31    26   ar
    37    12    13    1
@<TRIPOS>MOLECULE
*****
 34 37 0 0 0
SMALL
GASTEIGER

@<TRIPOS>ATOM
      1 N          -4.2437    3.9113   19.2747 N.3     1  UNL1       -0.2673
      2 C          -3.2972    4.1989   18.1472 C.3     1  UNL1        0.1035
      3 C          -1.8353    3.9000   18.3005 C.3     1  UNL1        0.1470
      4 C          -0.3734    3.6011   18.4537 C.3     1  UNL1        0.1037
      5 N           0.1420    3.0145   19.7345 N.3     1  UNL1       -0.2647
      6 C          -0.8046    2.7269   20.8620 C.3     1  UNL1        0.1037
      7 C          -2.2665    3.0258   20.7087 C.3     1  UNL1        0.1470
      8 C          -3.7283    3.3247   20.5555 C.3     1  UNL1        0.1035
      9 O          -1.3200    3.3134   19.5812 O.3     1  UNL1       -0.3530
     10 C          -5.7057    4.2102   19.1215 C.3     1  UNL1        0.0913
     11 C          -6.4072    5.0632   20.1365 C.3     1  UNL1        0.1087
     12 N          -7.2864    4.4268   21.1720 N.3     1  UNL1       -0.1780
     13 H          -8.2498    4.5763   20.8723 H       1  UNL1        0.1488
     14 S          -7.2037    4.8718   22.6021 S.O2    1  UNL1        0.0603
     15 O          -6.2909    3.7214   22.9073 O.2     1  UNL1       -0.1530
     16 O          -8.1166    6.0222   22.2969 O.2     1  UNL1       -0.1530
     17 C          -6.9558    6.2067   26.8923 C.ar    1  UNL1        0.0685
     18 C          -5.8726    5.3477   26.3104 C.ar    1  UNL1        0.0116
     19 C          -5.9552    4.9027   24.8803 C.ar    1  UNL1        0.0206
     20 C          -7.1211    5.3168   24.0321 C.ar    1  UNL1        0.1220
     21 C          -8.2044    6.1758   24.6141 C.ar    1  UNL1        0.0206
     22 C          -8.1217    6.6208   26.0442 C.ar    1  UNL1        0.0116
     23 N          -6.7906    7.0966   29.7526 N.1     1  UNL1       -0.1908
     24 C          -6.8732    6.6517   28.3224 C.1     1  UNL1        0.1004
     25 C           1.6039    2.7156   19.8877 C.3     1  UNL1        0.1015
     26 C           2.1049    1.3126   19.7125 C.ar    1  UNL1        0.0214
     27 C           2.6753    0.8791   18.3946 C.ar    1  UNL1       -0.0000
     28 C           3.1764   -0.5238   18.2193 C.ar    1  UNL1        0.0101
     29 C           3.1071   -1.4932   19.3619 C.ar    1  UNL1        0.0707
     30 C           2.5367   -1.0596   20.6797 C.ar    1  UNL1        0.0396
     31 C           2.0357    0.3433   20.8550 C.ar    1  UNL1        0.1381
     32 F           1.4653    0.7768   22.1729 F       1  UNL1       -0.2044
     33 C           3.6081   -2.8962   19.1866 C.1     1  UNL1        0.1005
     34 N           4.1092   -4.2991   19.0114 N.1     1  UNL1       -0.1908
@<TRIPOS>BOND
     1    23    24    3
     2    24    17    1
     3    17    18   ar
     4    18    19   ar
     5    19    20   ar
     6    20    14    1
     7    14    15    2
     8    14    16    2
     9    14    12    1
    10    12    11    1
    11    11    10    1
    12    10     1    1
    13     1     2    1
    14     2     3    1
    15     3     4    1
    16     4     5    1
    17     5    25    1
    18    25    26    1
    19    26    27   ar
    20    27    28   ar
    21    28    29   ar
    22    29    33    1
    23    33    34    3
    24    29    30   ar
    25    30    31   ar
    26    31    32    1
    27     5     6    1
    28     6     7    1
    29     7     8    1
    30     7     9    1
    31    20    21   ar
    32    21    22   ar
    33    22    17   ar
    34     8     1    1
    35     9     3    1
    36    31    26   ar
    37    12    13    1
@<TRIPOS>MOLECULE
*****
 34 37 0 0 0
SMALL
GASTEIGER

@<TRIPOS>ATOM
      1 N          -0.7821    3.1994   20.8081 N.3     1  UNL1       -0.2673
      2 C          -2.1148    3.5952   21.3712 C.3     1  UNL1        0.1035
      3 C          -2.3357    3.5829   22.8547 C.3     1  UNL1        0.1470
      4 C          -2.5567    3.5706   24.3383 C.3     1  UNL1        0.1037
      5 N          -1.4449    3.1626   25.2588 N.3     1  UNL1       -0.2647
      6 C          -0.1121    2.7667   24.6957 C.3     1  UNL1        0.1037
      7 C           0.1088    2.7790   23.2122 C.3     1  UNL1        0.1470
      8 C           0.3298    2.7913   21.7286 C.3     1  UNL1        0.1035
      9 O          -1.2239    3.1748   23.7752 O.3     1  UNL1       -0.3530
     10 C          -0.5611    3.2117   19.3245 C.3     1  UNL1        0.0913
     11 C           0.6462    2.5399   18.7404 C.3     1  UNL1        0.1087
     12 N           0.6302    1.0627   18.4799 N.3     1  UNL1       -0.1780
     13 H          -0.3208    0.7420   18.6620 H       1  UNL1        0.1488
     14 S           1.5471    0.1561   19.2461 S.O2    1  UNL1        0.0603
     15 O           0.4187   -0.2094   20.1642 O.2     1  UNL1       -0.1530
     16 O           2.6756    0.5215   18.3280 O.2     1  UNL1       -0.1530
     17 C           4.2982   -2.5640   21.5445 C.ar    1  UNL1        0.0685
     18 C           3.4708   -1.5458   22.2715 C.ar    1  UNL1        0.0116
     19 C           2.5538   -0.6390   21.5054 C.ar    1  UNL1        0.0206
     20 C           2.4641   -0.7506   20.0122 C.ar    1  UNL1        0.1220
     21 C           3.2915   -1.7690   19.2852 C.ar    1  UNL1        0.0206
     22 C           4.2085   -2.6756   20.0514 C.ar    1  UNL1        0.0116
     23 N           6.1321   -4.3775   23.0768 N.1     1  UNL1       -0.1908
     24 C           5.2151   -3.4707   22.3107 C.1     1  UNL1        0.1004
     25 C          -1.6658    3.1503   26.7424 C.3     1  UNL1        0.1015
     26 C          -0.7763    2.3271   27.6264 C.ar    1  UNL1        0.0214
     27 C          -1.1509    0.9133   27.9594 C.ar    1  UNL1       -0.0000
     28 C          -0.2615    0.0901   28.8433 C.ar    1  UNL1        0.0101
     29 C           1.0024    0.6808   29.3942 C.ar    1  UNL1        0.0707
     30 C           1.3770    2.0946   29.0612 C.ar    1  UNL1        0.0396
     31 C           0.4876    2.9177   28.1773 C.ar    1  UNL1        0.1381
     32 F           0.8622    4.3315   27.8443 F       1  UNL1       -0.2044
     33 C           1.8919   -0.1424   30.2782 C.1     1  UNL1        0.1005
     34 N           2.7812   -0.9655   31.1621 N.1     1  UNL1       -0.1908
@<TRIPOS>BOND
     1    23    24    3
     2    24    17    1
     3    17    18   ar
     4    18    19   ar
     5    19    20   ar
     6    20    14    1
     7    14    15    2
     8    14    16    2
     9    14    12    1
    10    12    11    1
    11    11    10    1
    12    10     1    1
    13     1     2    1
    14     2     3    1
    15     3     4    1
    16     4     5    1
    17     5    25    1
    18    25    26    1
    19    26    27   ar
    20    27    28   ar
    21    28    29   ar
    22    29    33    1
    23    33    34    3
    24    29    30   ar
    25    30    31   ar
    26    31    32    1
    27     5     6    1
    28     6     7    1
    29     7     8    1
    30     7     9    1
    31    20    21   ar
    32    21    22   ar
    33    22    17   ar
    34     8     1    1
    35     9     3    1
    36    31    26   ar
    37    12    13    1
@<TRIPOS>MOLECULE
*****
 34 37 0 0 0
SMALL
GASTEIGER

@<TRIPOS>ATOM
      1 N           3.1169    0.5403   18.1617 N.3     1  UNL1       -0.2673
      2 C           1.6467    0.2653   18.2741 C.3     1  UNL1        0.1035
      3 C           0.8330    0.9558   19.3282 C.3     1  UNL1        0.1470
      4 C           0.0193    1.6464   20.3823 C.3     1  UNL1        0.1037
      5 N           0.6759    2.6119   21.3239 N.3     1  UNL1       -0.2647
      6 C           2.1463    2.8868   21.2114 C.3     1  UNL1        0.1037
      7 C           2.9599    2.1963   20.1573 C.3     1  UNL1        0.1470
      8 C           3.7735    1.5058   19.1033 C.3     1  UNL1        0.1035
      9 O           1.4897    1.9213   20.2698 O.3     1  UNL1       -0.3530
     10 C           3.9307   -0.1503   17.1075 C.3     1  UNL1        0.0913
     11 C           4.8437   -1.2790   17.4845 C.3     1  UNL1        0.1087
     12 N           4.3389   -2.3948   18.3508 N.3     1  UNL1       -0.1780
     13 H           3.3969   -2.6152   18.0278 H       1  UNL1        0.1488
     14 S           4.2551   -2.2111   19.8372 S.O2    1  UNL1        0.0603
     15 O           5.6961   -1.7958   19.8671 O.2     1  UNL1       -0.1530
     16 O           2.8141   -2.6265   19.8073 O.2     1  UNL1       -0.1530
     17 C           4.0037   -1.6603   24.2962 C.ar    1  UNL1        0.0685
     18 C           4.9168   -2.7012   23.7195 C.ar    1  UNL1        0.0116
     19 C           5.0006   -2.8849   22.2330 C.ar    1  UNL1        0.0206
     20 C           4.1713   -2.0275   21.3235 C.ar    1  UNL1        0.1220
     21 C           3.2583   -0.9865   21.9003 C.ar    1  UNL1        0.0206
     22 C           3.1745   -0.8029   23.3867 C.ar    1  UNL1        0.0116
     23 N           3.8361   -1.2931   27.2690 N.1     1  UNL1       -0.1908
     24 C           3.9200   -1.4767   25.7826 C.1     1  UNL1        0.1004
     25 C          -0.1377    3.3024   22.3780 C.3     1  UNL1        0.1015
     26 C          -0.2529    2.7038   23.7486 C.ar    1  UNL1        0.0214
     27 C           0.5664    1.5013   24.1130 C.ar    1  UNL1       -0.0000
     28 C           0.4513    0.9027   25.4835 C.ar    1  UNL1        0.0101
     29 C          -0.4830    1.5066   26.4896 C.ar    1  UNL1        0.0707
     30 C          -1.3023    2.7090   26.1252 C.ar    1  UNL1        0.0396
     31 C          -1.1872    3.3076   24.7546 C.ar    1  UNL1        0.1381
     32 F          -2.0065    4.5101   24.3902 F       1  UNL1       -0.2044
     33 C          -0.5982    0.9079   27.8602 C.1     1  UNL1        0.1005
     34 N          -0.7133    0.3093   29.2307 N.1     1  UNL1       -0.1908
@<TRIPOS>BOND
     1    23    24    3
     2    24    17    1
     3    17    18   ar
     4    18    19   ar
     5    19    20   ar
     6    20    14    1
     7    14    15    2
     8    14    16    2
     9    14    12    1
    10    12    11    1
    11    11    10    1
    12    10     1    1
    13     1     2    1
    14     2     3    1
    15     3     4    1
    16     4     5    1
    17     5    25    1
    18    25    26    1
    19    26    27   ar
    20    27    28   ar
    21    28    29   ar
    22    29    33    1
    23    33    34    3
    24    29    30   ar
    25    30    31   ar
    26    31    32    1
    27     5     6    1
    28     6     7    1
    29     7     8    1
    30     7     9    1
    31    20    21   ar
    32    21    22   ar
    33    22    17   ar
    34     8     1    1
    35     9     3    1
    36    31    26   ar
    37    12    13    1
