@<TRIPOS>MOLECULE
*****
 42 45 0 0 0
SMALL
GASTEIGER

@<TRIPOS>ATOM
      1 C           2.8599    0.8584   31.2425 C.ar    1  UNL1        0.1217
      2 C           2.5279    1.3781   29.8752 C.ar    1  UNL1        0.0196
      3 C           3.1601    0.7595   28.6637 C.ar    1  UNL1       -0.0011
      4 C           4.1243   -0.3789   28.8196 C.ar    1  UNL1        0.0022
      5 C           4.4563   -0.8986   30.1870 C.ar    1  UNL1       -0.0029
      6 C           3.8241   -0.2800   31.3984 C.ar    1  UNL1        0.0170
      7 C           5.4356   -2.0240   30.0300 C.3     1  UNL1        0.1207
      8 N           5.7087   -2.1998   28.5656 N.am    1  UNL1       -0.2635
      9 C           6.6305   -3.2143   27.9561 C.2     1  UNL1        0.2537
     10 O           6.8038   -3.2713   26.4673 O.2     1  UNL1       -0.2722
     11 C           4.8983   -1.1830   27.8176 C.3     1  UNL1        0.1751
     12 C           7.3788   -4.1716   28.8356 C.3     1  UNL1        0.1935
     13 C           7.0160   -5.4000   29.6162 C.3     1  UNL1        0.0711
     14 C           8.4372   -5.5255   30.0793 C.3     1  UNL1        0.1457
     15 O           8.8000   -4.2971   29.2986 O.3     1  UNL1       -0.3469
     16 C           4.8674   -1.0022   26.3288 C.2     1  UNL1        0.2485
     17 O           5.5281    0.1909   25.7043 O.2     1  UNL1       -0.2726
     18 N           4.1758   -2.0145   25.4645 N.am    1  UNL1       -0.2823
     19 H           3.7422   -2.7976   25.8744 H       1  UNL1        0.1549
     20 C           4.1449   -1.8336   23.9758 C.ar    1  UNL1        0.0503
     21 C           5.0638   -2.6365   23.1035 C.ar    1  UNL1        0.0144
     22 C           5.0329   -2.4556   21.6148 C.ar    1  UNL1       -0.0002
     23 C           4.0830   -1.4720   20.9983 C.ar    1  UNL1        0.0182
     24 C           3.1641   -0.6691   21.8706 C.ar    1  UNL1       -0.0002
     25 C           3.1950   -0.8500   23.3593 C.ar    1  UNL1        0.0144
     26 C           4.0521   -1.2911   19.5096 C.3     1  UNL1        0.2827
     27 O           4.6361    0.0819   19.6642 O.3     1  UNL1       -0.3692
     28 H           4.7808    0.2675   20.6052 H       1  UNL1        0.2112
     29 C           4.0212   -1.1103   18.0208 C.3     1  UNL1        0.4311
     30 F           3.9902   -0.9294   16.5321 F       1  UNL1       -0.1669
     31 F           5.5196   -1.1672   17.9828 F       1  UNL1       -0.1669
     32 F           3.1407   -1.0639   17.9360 F       1  UNL1       -0.1669
     33 C           3.4681   -2.6641   19.3549 C.3     1  UNL1        0.4311
     34 F           2.8842   -4.0371   19.2003 F       1  UNL1       -0.1669
     35 F           2.6814   -2.4888   19.7221 F       1  UNL1       -0.1669
     36 F           4.5597   -3.4501   18.6912 F       1  UNL1       -0.1669
     37 S           2.2276    1.4771   32.4539 S.O2    1  UNL1        0.0603
     38 O           3.5367    1.3910   33.1811 O.2     1  UNL1       -0.1530
     39 O           0.9185    1.5632   31.7267 O.2     1  UNL1       -0.1530
     40 C           2.4496    2.5205   34.8229 C.3     1  UNL1        0.1102
     41 N           1.5954    2.0957   33.6654 N.3     1  UNL1       -0.1779
     42 H           1.0980    2.9269   33.3459 H       1  UNL1        0.1488
@<TRIPOS>BOND
     1    40    41    1
     2    41    37    1
     3    37    38    2
     4    37    39    2
     5    37     1    1
     6     1     2   ar
     7     2     3   ar
     8     3     4   ar
     9     4     5   ar
    10     5     6   ar
    11     5     7    1
    12     7     8    1
    13     8     9   am
    14     9    10    2
    15     9    12    1
    16    12    13    1
    17    13    14    1
    18    14    15    1
    19     8    11    1
    20    11    16    1
    21    16    17    2
    22    16    18   am
    23    18    20    1
    24    20    21   ar
    25    21    22   ar
    26    22    23   ar
    27    23    26    1
    28    26    27    1
    29    26    29    1
    30    29    30    1
    31    29    31    1
    32    29    32    1
    33    26    33    1
    34    33    34    1
    35    33    35    1
    36    33    36    1
    37    23    24   ar
    38    24    25   ar
    39     6     1   ar
    40    15    12    1
    41    25    20   ar
    42    11     4    1
    43    41    42    1
    44    18    19    1
    45    27    28    1
@<TRIPOS>MOLECULE
*****
 42 45 0 0 0
SMALL
GASTEIGER

@<TRIPOS>ATOM
      1 C          -3.8823    4.4150   24.9949 C.ar    1  UNL1        0.1217
      2 C          -2.5777    3.6827   25.1032 C.ar    1  UNL1        0.0196
      3 C          -1.8093    3.3320   23.8636 C.ar    1  UNL1       -0.0011
      4 C          -2.3455    3.7135   22.5157 C.ar    1  UNL1        0.0022
      5 C          -3.6500    4.4459   22.4074 C.ar    1  UNL1       -0.0029
      6 C          -4.4184    4.7966   23.6470 C.ar    1  UNL1        0.0170
      7 C          -3.9257    4.6891   20.9531 C.3     1  UNL1        0.1207
      8 N          -2.7915    4.1071   20.1627 N.am    1  UNL1       -0.2635
      9 C          -2.6574    4.1249   18.6687 C.2     1  UNL1        0.2537
     10 O          -1.4606    3.4996   18.0156 O.2     1  UNL1       -0.2722
     11 C          -1.8149    3.5042   21.1284 C.3     1  UNL1        0.1751
     12 C          -3.7202    4.7680   17.8279 C.3     1  UNL1        0.1935
     13 C          -4.4692    4.3818   16.5871 C.3     1  UNL1        0.0711
     14 C          -5.2232    5.6775   16.6389 C.3     1  UNL1        0.1457
     15 O          -4.4741    6.0637   17.8798 O.3     1  UNL1       -0.3469
     16 C          -0.5327    2.8132   20.7698 C.2     1  UNL1        0.2485
     17 O           0.7733    3.5385   20.9045 O.2     1  UNL1       -0.2726
     18 N          -0.5566    1.3968   20.2766 N.am    1  UNL1       -0.2823
     19 H          -1.4137    0.9207   20.1881 H       1  UNL1        0.1549
     20 C           0.7256    0.7058   19.9180 C.ar    1  UNL1        0.0503
     21 C           1.4370   -0.1319   20.9388 C.ar    1  UNL1        0.0144
     22 C           2.7192   -0.8229   20.5802 C.ar    1  UNL1       -0.0002
     23 C           3.2900   -0.6762   19.2009 C.ar    1  UNL1        0.0182
     24 C           2.5786    0.1616   18.1801 C.ar    1  UNL1       -0.0002
     25 C           1.2964    0.8526   18.5387 C.ar    1  UNL1        0.0144
     26 C           4.5721   -1.3672   18.8423 C.3     1  UNL1        0.2827
     27 O           5.2248   -0.0365   18.6117 O.3     1  UNL1       -0.3692
     28 H           4.5838    0.6717   18.7806 H       1  UNL1        0.2112
     29 C           5.8543   -2.0582   18.4837 C.3     1  UNL1        0.4311
     30 F           7.1365   -2.7492   18.1252 F       1  UNL1       -0.1669
     31 F           6.5188   -1.4467   19.6814 F       1  UNL1       -0.1669
     32 F           5.5571   -2.4663   17.7560 F       1  UNL1       -0.1669
     33 C           3.9195   -2.6979   19.0729 C.3     1  UNL1        0.4311
     34 F           3.2668   -4.0286   19.3035 F       1  UNL1       -0.1669
     35 F           3.3786   -2.6759   18.3718 F       1  UNL1       -0.1669
     36 F           4.5792   -3.2151   20.3168 F       1  UNL1       -0.1669
     37 S          -4.6507    4.7658   26.2344 S.O2    1  UNL1        0.0603
     38 O          -3.8186    3.7990   27.0238 O.2     1  UNL1       -0.1530
     39 O          -5.4827    5.7326   25.4451 O.2     1  UNL1       -0.1530
     40 C          -6.4130    6.2396   27.4476 C.3     1  UNL1        0.1102
     41 N          -5.4191    5.1166   27.4740 N.3     1  UNL1       -0.1779
     42 H          -5.9295    4.2781   27.7512 H       1  UNL1        0.1488
@<TRIPOS>BOND
     1    40    41    1
     2    41    37    1
     3    37    38    2
     4    37    39    2
     5    37     1    1
     6     1     2   ar
     7     2     3   ar
     8     3     4   ar
     9     4     5   ar
    10     5     6   ar
    11     5     7    1
    12     7     8    1
    13     8     9   am
    14     9    10    2
    15     9    12    1
    16    12    13    1
    17    13    14    1
    18    14    15    1
    19     8    11    1
    20    11    16    1
    21    16    17    2
    22    16    18   am
    23    18    20    1
    24    20    21   ar
    25    21    22   ar
    26    22    23   ar
    27    23    26    1
    28    26    27    1
    29    26    29    1
    30    29    30    1
    31    29    31    1
    32    29    32    1
    33    26    33    1
    34    33    34    1
    35    33    35    1
    36    33    36    1
    37    23    24   ar
    38    24    25   ar
    39     6     1   ar
    40    15    12    1
    41    25    20   ar
    42    11     4    1
    43    41    42    1
    44    18    19    1
    45    27    28    1
@<TRIPOS>MOLECULE
*****
 42 45 0 0 0
SMALL
GASTEIGER

@<TRIPOS>ATOM
      1 C           3.3246   -1.9186   20.3301 C.ar    1  UNL1        0.1217
      2 C           3.8248   -1.8661   21.7433 C.ar    1  UNL1        0.0196
      3 C           3.2093   -0.9102   22.7218 C.ar    1  UNL1       -0.0011
      4 C           2.0936   -0.0068   22.2871 C.ar    1  UNL1        0.0022
      5 C           1.5934   -0.0593   20.8740 C.ar    1  UNL1       -0.0029
      6 C           2.2089   -1.0152   19.8955 C.ar    1  UNL1        0.0170
      7 C           0.4881    0.9454   20.7359 C.3     1  UNL1        0.1207
      8 N           0.3053    1.6188   22.0637 N.am    1  UNL1       -0.2635
      9 C          -0.6943    2.6924   22.3777 C.2     1  UNL1        0.2537
     10 O          -0.7608    3.2745   23.7585 O.2     1  UNL1       -0.2722
     11 C           1.2975    1.0303   23.0224 C.3     1  UNL1        0.1751
     12 C          -1.6273    3.1836   21.3108 C.3     1  UNL1        0.1935
     13 C          -1.5679    4.2521   20.2598 C.3     1  UNL1        0.0711
     14 C          -2.9467    3.8784   19.8021 C.3     1  UNL1        0.1457
     15 O          -3.0059    2.8100   20.8532 O.3     1  UNL1       -0.3469
     16 C           1.4644    1.4119   24.4634 C.2     1  UNL1        0.2485
     17 O           2.6733    2.1855   24.8992 O.2     1  UNL1       -0.2726
     18 N           0.4224    1.0199   25.4686 N.am    1  UNL1       -0.2823
     19 H          -0.3711    0.5122   25.1826 H       1  UNL1        0.1549
     20 C           0.5893    1.4015   26.9096 C.ar    1  UNL1        0.0503
     21 C           1.0433    0.3788   27.9086 C.ar    1  UNL1        0.0144
     22 C           1.2102    0.7604   29.3496 C.ar    1  UNL1       -0.0002
     23 C           0.9231    2.1647   29.7917 C.ar    1  UNL1        0.0182
     24 C           0.4691    3.1874   28.7927 C.ar    1  UNL1       -0.0002
     25 C           0.3022    2.8058   27.3517 C.ar    1  UNL1        0.0144
     26 C           1.0900    2.5463   31.2327 C.3     1  UNL1        0.2827
     27 O          -0.1154    1.7278   31.5891 O.3     1  UNL1       -0.3692
     28 H          -0.4770    1.3187   30.7873 H       1  UNL1        0.2112
     29 C           1.2569    2.9279   32.6737 C.3     1  UNL1        0.4311
     30 F           1.4238    3.3095   34.1147 F       1  UNL1       -0.1669
     31 F           0.0578    3.8237   32.5753 F       1  UNL1       -0.1669
     32 F           1.9717    2.4303   32.8351 F       1  UNL1       -0.1669
     33 C           2.2954    3.3648   30.8763 C.3     1  UNL1        0.4311
     34 F           3.5009    4.1833   30.5200 F       1  UNL1       -0.1669
     35 F           1.9145    4.1601   30.9597 F       1  UNL1       -0.1669
     36 F           3.3615    2.3438   30.6096 F       1  UNL1       -0.1669
     37 S           3.9401   -2.8745   19.3517 S.O2    1  UNL1        0.0603
     38 O           4.0047   -3.9259   20.4195 O.2     1  UNL1       -0.1530
     39 O           3.8755   -1.8230   18.2838 O.2     1  UNL1       -0.1530
     40 C           4.7269   -5.2742   18.7417 C.3     1  UNL1        0.1102
     41 N           4.5556   -3.8304   18.3732 N.3     1  UNL1       -0.1779
     42 H           3.9756   -3.8073   17.5344 H       1  UNL1        0.1488
@<TRIPOS>BOND
     1    40    41    1
     2    41    37    1
     3    37    38    2
     4    37    39    2
     5    37     1    1
     6     1     2   ar
     7     2     3   ar
     8     3     4   ar
     9     4     5   ar
    10     5     6   ar
    11     5     7    1
    12     7     8    1
    13     8     9   am
    14     9    10    2
    15     9    12    1
    16    12    13    1
    17    13    14    1
    18    14    15    1
    19     8    11    1
    20    11    16    1
    21    16    17    2
    22    16    18   am
    23    18    20    1
    24    20    21   ar
    25    21    22   ar
    26    22    23   ar
    27    23    26    1
    28    26    27    1
    29    26    29    1
    30    29    30    1
    31    29    31    1
    32    29    32    1
    33    26    33    1
    34    33    34    1
    35    33    35    1
    36    33    36    1
    37    23    24   ar
    38    24    25   ar
    39     6     1   ar
    40    15    12    1
    41    25    20   ar
    42    11     4    1
    43    41    42    1
    44    18    19    1
    45    27    28    1
@<TRIPOS>MOLECULE
*****
 42 45 0 0 0
SMALL
GASTEIGER

@<TRIPOS>ATOM
      1 C          -3.5460    4.0264   25.7372 C.ar    1  UNL1        0.1217
      2 C          -3.0029    3.7560   24.3654 C.ar    1  UNL1        0.0196
      3 C          -1.6807    3.0661   24.2048 C.ar    1  UNL1       -0.0011
      4 C          -0.9016    2.6466   25.4160 C.ar    1  UNL1        0.0022
      5 C          -1.4447    2.9171   26.7878 C.ar    1  UNL1       -0.0029
      6 C          -2.7669    3.6070   26.9484 C.ar    1  UNL1        0.0170
      7 C          -0.4587    2.3916   27.7887 C.3     1  UNL1        0.1207
      8 N           0.6938    1.7963   27.0354 N.am    1  UNL1       -0.2635
      9 C           1.9070    1.1558   27.6420 C.2     1  UNL1        0.2537
     10 O           2.9839    0.6013   26.7573 O.2     1  UNL1       -0.2722
     11 C           0.4200    1.9539   25.5690 C.3     1  UNL1        0.1751
     12 C           2.0432    1.0698   29.1333 C.3     1  UNL1        0.1935
     13 C           2.8370    1.8079   30.1702 C.3     1  UNL1        0.0711
     14 C           2.2359    0.9482   31.2424 C.3     1  UNL1        0.1457
     15 O           1.4422    0.2101   30.2054 O.3     1  UNL1       -0.3469
     16 C           1.3115    1.4988   24.4518 C.2     1  UNL1        0.2485
     17 O           1.9747    2.5085   23.5627 O.2     1  UNL1       -0.2726
     18 N           1.5397    0.0339   24.2237 N.am    1  UNL1       -0.2823
     19 H           1.1044   -0.6288   24.8073 H       1  UNL1        0.1549
     20 C           2.4311   -0.4212   23.1065 C.ar    1  UNL1        0.0503
     21 C           1.9811   -0.2792   21.6826 C.ar    1  UNL1        0.0144
     22 C           2.8726   -0.7343   20.5654 C.ar    1  UNL1       -0.0002
     23 C           4.2139   -1.3315   20.8719 C.ar    1  UNL1        0.0182
     24 C           4.6639   -1.4736   22.2958 C.ar    1  UNL1       -0.0002
     25 C           3.7725   -1.0184   23.4130 C.ar    1  UNL1        0.0144
     26 C           5.1054   -1.7867   19.7547 C.3     1  UNL1        0.2827
     27 O           6.1109   -0.7389   20.1302 O.3     1  UNL1       -0.3692
     28 H           5.7842   -0.2356   20.8923 H       1  UNL1        0.2112
     29 C           5.9968   -2.2418   18.6375 C.3     1  UNL1        0.4311
     30 F           6.8882   -2.6969   17.5203 F       1  UNL1       -0.1669
     31 F           5.7021   -0.9769   17.8871 F       1  UNL1       -0.1669
     32 F           6.2336   -3.0159   18.9969 F       1  UNL1       -0.1669
     33 C           4.0998   -2.8344   19.3792 C.3     1  UNL1        0.4311
     34 F           3.0942   -3.8822   19.0037 F       1  UNL1       -0.1669
     35 F           3.8329   -2.4613   18.6215 F       1  UNL1       -0.1669
     36 F           4.1784   -3.8304   20.4980 F       1  UNL1       -0.1669
     37 S          -4.8682    4.7163   25.8978 S.O2    1  UNL1        0.0603
     38 O          -4.7155    4.6620   27.3890 O.2     1  UNL1       -0.1530
     39 O          -5.0210    4.7707   24.4065 O.2     1  UNL1       -0.1530
     40 C          -6.5319    6.0809   27.3538 C.3     1  UNL1        0.1102
     41 N          -6.1904    5.4063   26.0583 N.3     1  UNL1       -0.1779
     42 H          -6.2398    6.1209   25.3322 H       1  UNL1        0.1488
@<TRIPOS>BOND
     1    40    41    1
     2    41    37    1
     3    37    38    2
     4    37    39    2
     5    37     1    1
     6     1     2   ar
     7     2     3   ar
     8     3     4   ar
     9     4     5   ar
    10     5     6   ar
    11     5     7    1
    12     7     8    1
    13     8     9   am
    14     9    10    2
    15     9    12    1
    16    12    13    1
    17    13    14    1
    18    14    15    1
    19     8    11    1
    20    11    16    1
    21    16    17    2
    22    16    18   am
    23    18    20    1
    24    20    21   ar
    25    21    22   ar
    26    22    23   ar
    27    23    26    1
    28    26    27    1
    29    26    29    1
    30    29    30    1
    31    29    31    1
    32    29    32    1
    33    26    33    1
    34    33    34    1
    35    33    35    1
    36    33    36    1
    37    23    24   ar
    38    24    25   ar
    39     6     1   ar
    40    15    12    1
    41    25    20   ar
    42    11     4    1
    43    41    42    1
    44    18    19    1
    45    27    28    1
@<TRIPOS>MOLECULE
*****
 42 45 0 0 0
SMALL
GASTEIGER

@<TRIPOS>ATOM
      1 C           7.7563   -4.0794   30.0531 C.ar    1  UNL1        0.1217
      2 C           8.0196   -4.1921   28.5807 C.ar    1  UNL1        0.0196
      3 C           7.2183   -3.3753   27.6108 C.ar    1  UNL1       -0.0011
      4 C           6.1536   -2.4458   28.1133 C.ar    1  UNL1        0.0022
      5 C           5.8903   -2.3331   29.5857 C.ar    1  UNL1       -0.0029
      6 C           6.6917   -3.1499   30.5556 C.ar    1  UNL1        0.0170
      7 C           4.7843   -1.3393   29.7841 C.3     1  UNL1        0.1207
      8 N           4.3641   -0.8379   28.4343 N.am    1  UNL1       -0.2635
      9 C           3.2867    0.1704   28.1644 C.2     1  UNL1        0.2537
     10 O           2.9761    0.5769   26.7544 O.2     1  UNL1       -0.2722
     11 C           5.2104   -1.5217   27.4017 C.3     1  UNL1        0.1751
     12 C           2.5200    0.7721   29.3046 C.3     1  UNL1        0.1935
     13 C           2.4632    2.1264   29.9470 C.3     1  UNL1        0.0711
     14 C           1.4358    1.6231   30.9171 C.3     1  UNL1        0.1457
     15 O           1.4927    0.2688   30.2747 O.3     1  UNL1       -0.3469
     16 C           5.1279   -1.3174   25.9180 C.2     1  UNL1        0.2485
     17 O           5.7927   -0.1304   25.2862 O.2     1  UNL1       -0.2726
     18 N           4.3806   -2.3000   25.0659 N.am    1  UNL1       -0.2823
     19 H           3.9442   -3.0790   25.4805 H       1  UNL1        0.1549
     20 C           4.2981   -2.0956   23.5822 C.ar    1  UNL1        0.0503
     21 C           3.3133   -1.1175   23.0134 C.ar    1  UNL1        0.0144
     22 C           3.2309   -0.9131   21.5297 C.ar    1  UNL1       -0.0002
     23 C           4.1331   -1.6868   20.6147 C.ar    1  UNL1        0.0182
     24 C           5.1179   -2.6650   21.1835 C.ar    1  UNL1       -0.0002
     25 C           5.2003   -2.8694   22.6672 C.ar    1  UNL1        0.0144
     26 C           4.0506   -1.4825   19.1310 C.3     1  UNL1        0.2827
     27 O           4.6093   -0.0996   19.2904 O.3     1  UNL1       -0.3692
     28 H           4.7800    0.0739   20.2294 H       1  UNL1        0.2112
     29 C           3.9682   -1.2781   17.6473 C.3     1  UNL1        0.4311
     30 F           3.8857   -1.0738   16.1636 F       1  UNL1       -0.1669
     31 F           2.7966   -0.3611   17.8387 F       1  UNL1       -0.1669
     32 F           4.6489   -1.8009   17.4283 F       1  UNL1       -0.1669
     33 C           3.4920   -2.8654   18.9716 C.3     1  UNL1        0.4311
     34 F           2.9333   -4.2483   18.8122 F       1  UNL1       -0.1669
     35 F           2.6708   -2.6828   19.2488 F       1  UNL1       -0.1669
     36 F           4.6497   -3.6672   18.4551 F       1  UNL1       -0.1669
     37 S           8.5576   -4.8962   31.0230 S.O2    1  UNL1        0.0603
     38 O           7.6050   -6.0412   30.8458 O.2     1  UNL1       -0.1530
     39 O           9.5103   -3.7512   31.2001 O.2     1  UNL1       -0.1530
     40 C           9.1875   -7.2024   32.0401 C.3     1  UNL1        0.1102
     41 N           9.3590   -5.7130   31.9928 N.3     1  UNL1       -0.1779
     42 H          10.3418   -5.5362   31.7851 H       1  UNL1        0.1488
@<TRIPOS>BOND
     1    40    41    1
     2    41    37    1
     3    37    38    2
     4    37    39    2
     5    37     1    1
     6     1     2   ar
     7     2     3   ar
     8     3     4   ar
     9     4     5   ar
    10     5     6   ar
    11     5     7    1
    12     7     8    1
    13     8     9   am
    14     9    10    2
    15     9    12    1
    16    12    13    1
    17    13    14    1
    18    14    15    1
    19     8    11    1
    20    11    16    1
    21    16    17    2
    22    16    18   am
    23    18    20    1
    24    20    21   ar
    25    21    22   ar
    26    22    23   ar
    27    23    26    1
    28    26    27    1
    29    26    29    1
    30    29    30    1
    31    29    31    1
    32    29    32    1
    33    26    33    1
    34    33    34    1
    35    33    35    1
    36    33    36    1
    37    23    24   ar
    38    24    25   ar
    39     6     1   ar
    40    15    12    1
    41    25    20   ar
    42    11     4    1
    43    41    42    1
    44    18    19    1
    45    27    28    1
@<TRIPOS>MOLECULE
*****
 42 45 0 0 0
SMALL
GASTEIGER

@<TRIPOS>ATOM
      1 C           1.6372    1.8555   30.8144 C.ar    1  UNL1        0.1217
      2 C           2.7533    1.2104   30.0474 C.ar    1  UNL1        0.0196
      3 C           2.7087    1.1714   28.5486 C.ar    1  UNL1       -0.0011
      4 C           1.5480    1.7773   27.8168 C.ar    1  UNL1        0.0022
      5 C           0.4320    2.4224   28.5837 C.ar    1  UNL1       -0.0029
      6 C           0.4766    2.4614   30.0826 C.ar    1  UNL1        0.0170
      7 C          -0.5748    2.9330   27.5959 C.3     1  UNL1        0.1207
      8 N          -0.0809    2.6035   26.2184 N.am    1  UNL1       -0.2635
      9 C          -0.7768    2.9308   24.9305 C.2     1  UNL1        0.2537
     10 O          -0.1582    2.5358   23.6224 O.2     1  UNL1       -0.2722
     11 C           1.2310    1.8893   26.3549 C.3     1  UNL1        0.1751
     12 C          -2.0913    3.6531   24.9508 C.3     1  UNL1        0.1935
     13 C          -2.5411    5.0257   25.3552 C.3     1  UNL1        0.0711
     14 C          -3.9503    4.6745   24.9795 C.3     1  UNL1        0.1457
     15 O          -3.5003    3.3020   24.5751 O.3     1  UNL1       -0.3469
     16 C           2.0775    1.3769   25.2275 C.2     1  UNL1        0.2485
     17 O           3.4108    2.0037   24.9458 O.2     1  UNL1       -0.2726
     18 N           1.5906    0.2377   24.3818 N.am    1  UNL1       -0.2823
     19 H           0.7155   -0.1737   24.5667 H       1  UNL1        0.1549
     20 C           2.4370   -0.2746   23.2544 C.ar    1  UNL1        0.0503
     21 C           2.2200    0.2369   21.8611 C.ar    1  UNL1        0.0144
     22 C           3.0664   -0.2754   20.7337 C.ar    1  UNL1       -0.0002
     23 C           4.1298   -1.2993   20.9995 C.ar    1  UNL1        0.0182
     24 C           4.3469   -1.8108   22.3928 C.ar    1  UNL1       -0.0002
     25 C           3.5005   -1.2985   23.5202 C.ar    1  UNL1        0.0144
     26 C           4.9763   -1.8116   19.8721 C.3     1  UNL1        0.2827
     27 O           5.8582   -0.6036   19.9852 O.3     1  UNL1       -0.3692
     28 H           5.5322   -0.0308   20.6969 H       1  UNL1        0.2112
     29 C           5.8227   -2.3240   18.7447 C.3     1  UNL1        0.4311
     30 F           6.6691   -2.8363   17.6173 F       1  UNL1       -0.1669
     31 F           6.9739   -2.5016   19.6897 F       1  UNL1       -0.1669
     32 F           5.2088   -2.2568   18.1096 F       1  UNL1       -0.1669
     33 C           4.0943   -3.0197   19.7590 C.3     1  UNL1        0.4311
     34 F           3.2124   -4.2278   19.6459 F       1  UNL1       -0.1669
     35 F           3.3881   -2.6065   19.4198 F       1  UNL1       -0.1669
     36 F           4.9450   -4.1401   20.2797 F       1  UNL1       -0.1669
     37 S           1.6819    1.8946   32.3132 S.O2    1  UNL1        0.0603
     38 O           2.6271    0.7298   32.3155 O.2     1  UNL1       -0.1530
     39 O           0.7367    3.0593   32.3110 O.2     1  UNL1       -0.1530
     40 C           3.0292    2.1674   34.5178 C.3     1  UNL1        0.1102
     41 N           1.7265    1.9337   33.8121 N.3     1  UNL1       -0.1779
     42 H           1.0945    2.6784   34.1061 H       1  UNL1        0.1488
@<TRIPOS>BOND
     1    40    41    1
     2    41    37    1
     3    37    38    2
     4    37    39    2
     5    37     1    1
     6     1     2   ar
     7     2     3   ar
     8     3     4   ar
     9     4     5   ar
    10     5     6   ar
    11     5     7    1
    12     7     8    1
    13     8     9   am
    14     9    10    2
    15     9    12    1
    16    12    13    1
    17    13    14    1
    18    14    15    1
    19     8    11    1
    20    11    16    1
    21    16    17    2
    22    16    18   am
    23    18    20    1
    24    20    21   ar
    25    21    22   ar
    26    22    23   ar
    27    23    26    1
    28    26    27    1
    29    26    29    1
    30    29    30    1
    31    29    31    1
    32    29    32    1
    33    26    33    1
    34    33    34    1
    35    33    35    1
    36    33    36    1
    37    23    24   ar
    38    24    25   ar
    39     6     1   ar
    40    15    12    1
    41    25    20   ar
    42    11     4    1
    43    41    42    1
    44    18    19    1
    45    27    28    1
@<TRIPOS>MOLECULE
*****
 42 45 0 0 0
SMALL
GASTEIGER

@<TRIPOS>ATOM
      1 C           4.1002   -1.8387   20.8043 C.ar    1  UNL1        0.1217
      2 C           3.3714   -0.7114   21.4734 C.ar    1  UNL1        0.0196
      3 C           3.4775   -0.5261   22.9581 C.ar    1  UNL1       -0.0011
      4 C           4.3125   -1.4682   23.7737 C.ar    1  UNL1        0.0022
      5 C           5.0413   -2.5956   23.1046 C.ar    1  UNL1       -0.0029
      6 C           4.9352   -2.7809   21.6198 C.ar    1  UNL1        0.0170
      7 C           5.7833   -3.3597   24.1609 C.3     1  UNL1        0.1207
      8 N           5.5130   -2.7045   25.4829 N.am    1  UNL1       -0.2635
      9 C           6.0564   -3.1415   26.8110 C.2     1  UNL1        0.2537
     10 O           5.6968   -2.3836   28.0545 O.2     1  UNL1       -0.2722
     11 C           4.6040   -1.5355   25.2436 C.3     1  UNL1        0.1751
     12 C           6.9592   -4.3363   26.8955 C.3     1  UNL1        0.1935
     13 C           6.7580   -5.8223   26.8603 C.3     1  UNL1        0.0711
     14 C           8.2361   -6.0261   27.0151 C.3     1  UNL1        0.1457
     15 O           8.4372   -4.5401   27.0503 O.3     1  UNL1       -0.3469
     16 C           4.0787   -0.5983   26.2904 C.2     1  UNL1        0.2485
     17 O           4.6756    0.7696   26.4399 O.2     1  UNL1       -0.2726
     18 N           2.9566   -1.0291   27.1877 N.am    1  UNL1       -0.2823
     19 H           2.5648   -1.9270   27.0895 H       1  UNL1        0.1549
     20 C           2.4313   -0.0919   28.2344 C.ar    1  UNL1        0.0503
     21 C           2.8540   -0.2521   29.6647 C.ar    1  UNL1        0.0144
     22 C           2.3288    0.6851   30.7115 C.ar    1  UNL1       -0.0002
     23 C           1.3808    1.7825   30.3281 C.ar    1  UNL1        0.0182
     24 C           0.9580    1.9426   28.8978 C.ar    1  UNL1       -0.0002
     25 C           1.4833    1.0054   27.8511 C.ar    1  UNL1        0.0144
     26 C           0.8555    2.7196   31.3749 C.3     1  UNL1        0.2827
     27 O          -0.1364    1.6808   31.8072 O.3     1  UNL1       -0.3692
     28 H          -0.0300    0.8855   31.2622 H       1  UNL1        0.2112
     29 C           0.3302    3.6568   32.4217 C.3     1  UNL1        0.4311
     30 F          -0.1950    4.5940   33.4685 F       1  UNL1       -0.1669
     31 F           1.2724    3.0627   33.4263 F       1  UNL1       -0.1669
     32 F          -0.2598    4.0725   31.9082 F       1  UNL1       -0.1669
     33 C           1.8474    3.7585   30.9425 C.3     1  UNL1        0.4311
     34 F           2.8393    4.7973   30.5102 F       1  UNL1       -0.1669
     35 F           2.5372    3.4474   31.4029 F       1  UNL1       -0.1669
     36 F           1.0637    4.6487   30.0243 F       1  UNL1       -0.1669
     37 S           3.9941   -2.0240   19.3195 S.O2    1  UNL1        0.0603
     38 O           3.5137   -3.4294   19.5292 O.2     1  UNL1       -0.1530
     39 O           4.4746   -0.6185   19.1099 O.2     1  UNL1       -0.1530
     40 C           3.8347   -1.0128   16.9316 C.3     1  UNL1        0.1102
     41 N           3.8880   -2.2092   17.8348 N.3     1  UNL1       -0.1779
     42 H           4.6980   -2.7588   17.5480 H       1  UNL1        0.1488
@<TRIPOS>BOND
     1    40    41    1
     2    41    37    1
     3    37    38    2
     4    37    39    2
     5    37     1    1
     6     1     2   ar
     7     2     3   ar
     8     3     4   ar
     9     4     5   ar
    10     5     6   ar
    11     5     7    1
    12     7     8    1
    13     8     9   am
    14     9    10    2
    15     9    12    1
    16    12    13    1
    17    13    14    1
    18    14    15    1
    19     8    11    1
    20    11    16    1
    21    16    17    2
    22    16    18   am
    23    18    20    1
    24    20    21   ar
    25    21    22   ar
    26    22    23   ar
    27    23    26    1
    28    26    27    1
    29    26    29    1
    30    29    30    1
    31    29    31    1
    32    29    32    1
    33    26    33    1
    34    33    34    1
    35    33    35    1
    36    33    36    1
    37    23    24   ar
    38    24    25   ar
    39     6     1   ar
    40    15    12    1
    41    25    20   ar
    42    11     4    1
    43    41    42    1
    44    18    19    1
    45    27    28    1
@<TRIPOS>MOLECULE
*****
 42 45 0 0 0
SMALL
GASTEIGER

@<TRIPOS>ATOM
      1 C           3.9376   -2.4028   20.8460 C.ar    1  UNL1        0.1217
      2 C           2.8376   -1.3881   20.7450 C.ar    1  UNL1        0.0196
      3 C           2.4643   -0.5650   21.9422 C.ar    1  UNL1       -0.0011
      4 C           3.1909   -0.7567   23.2403 C.ar    1  UNL1        0.0022
      5 C           4.2910   -1.7714   23.3413 C.ar    1  UNL1       -0.0029
      6 C           4.6643   -2.5945   22.1441 C.ar    1  UNL1        0.0170
      7 C           4.8250   -1.7384   24.7427 C.3     1  UNL1        0.1207
      8 N           4.0549   -0.7032   25.5078 N.am    1  UNL1       -0.2635
      9 C           4.2589   -0.3387   26.9485 C.2     1  UNL1        0.2537
     10 O           3.4082    0.7224   27.5814 O.2     1  UNL1       -0.2722
     11 C           3.0450   -0.0965   24.5793 C.3     1  UNL1        0.1751
     12 C           5.3136   -1.0352   27.7563 C.3     1  UNL1        0.1935
     13 C           6.8055   -0.9290   27.8694 C.3     1  UNL1        0.0711
     14 C           6.8051   -2.0202   28.8986 C.3     1  UNL1        0.1457
     15 O           5.3132   -2.1264   28.7854 O.3     1  UNL1       -0.3469
     16 C           2.0618    0.9812   24.9284 C.2     1  UNL1        0.2485
     17 O           2.5147    2.4081   25.0215 O.2     1  UNL1       -0.2726
     18 N           0.6257    0.6319   25.1846 N.am    1  UNL1       -0.2823
     19 H           0.3285   -0.3046   25.1235 H       1  UNL1        0.1549
     20 C          -0.3575    1.7096   25.5337 C.ar    1  UNL1        0.0503
     21 C          -0.8156    1.8760   26.9523 C.ar    1  UNL1        0.0144
     22 C          -1.7988    2.9537   27.3015 C.ar    1  UNL1       -0.0002
     23 C          -2.3239    3.8651   26.2321 C.ar    1  UNL1        0.0182
     24 C          -1.8657    3.6987   24.8135 C.ar    1  UNL1       -0.0002
     25 C          -0.8825    2.6210   24.4643 C.ar    1  UNL1        0.0144
     26 C          -3.3070    4.9428   26.5812 C.3     1  UNL1        0.2827
     27 O          -2.2198    5.7105   27.2729 O.3     1  UNL1       -0.3692
     28 H          -1.3860    5.2190   27.2092 H       1  UNL1        0.2112
     29 C          -4.2902    6.0204   26.9304 C.3     1  UNL1        0.4311
     30 F          -5.2734    7.0981   27.2795 F       1  UNL1       -0.1669
     31 F          -3.5416    6.9855   26.0596 F       1  UNL1       -0.1669
     32 F          -4.7997    5.5324   27.4659 F       1  UNL1       -0.1669
     33 C          -4.3943    4.1750   25.8896 C.3     1  UNL1        0.4311
     34 F          -5.4815    3.4072   25.1979 F       1  UNL1       -0.1669
     35 F          -4.4503    3.5142   26.4768 F       1  UNL1       -0.1669
     36 F          -4.6942    4.9915   24.6676 F       1  UNL1       -0.1669
     37 S           4.3110   -3.2258   19.6488 S.O2    1  UNL1        0.0603
     38 O           4.9406   -4.2481   20.5480 O.2     1  UNL1       -0.1530
     39 O           3.6814   -2.2035   18.7497 O.2     1  UNL1       -0.1530
     40 C           4.6983   -5.5458   18.5454 C.3     1  UNL1        0.1102
     41 N           4.6844   -4.0488   18.4517 N.3     1  UNL1       -0.1779
     42 H           4.0265   -3.8064   17.7108 H       1  UNL1        0.1488
@<TRIPOS>BOND
     1    40    41    1
     2    41    37    1
     3    37    38    2
     4    37    39    2
     5    37     1    1
     6     1     2   ar
     7     2     3   ar
     8     3     4   ar
     9     4     5   ar
    10     5     6   ar
    11     5     7    1
    12     7     8    1
    13     8     9   am
    14     9    10    2
    15     9    12    1
    16    12    13    1
    17    13    14    1
    18    14    15    1
    19     8    11    1
    20    11    16    1
    21    16    17    2
    22    16    18   am
    23    18    20    1
    24    20    21   ar
    25    21    22   ar
    26    22    23   ar
    27    23    26    1
    28    26    27    1
    29    26    29    1
    30    29    30    1
    31    29    31    1
    32    29    32    1
    33    26    33    1
    34    33    34    1
    35    33    35    1
    36    33    36    1
    37    23    24   ar
    38    24    25   ar
    39     6     1   ar
    40    15    12    1
    41    25    20   ar
    42    11     4    1
    43    41    42    1
    44    18    19    1
    45    27    28    1
@<TRIPOS>MOLECULE
*****
 42 45 0 0 0
SMALL
GASTEIGER

@<TRIPOS>ATOM
      1 C          -0.5044    2.6588   22.4881 C.ar    1  UNL1        0.1217
      2 C          -0.3960    2.9905   23.9469 C.ar    1  UNL1        0.0196
      3 C           0.6089    2.2806   24.8049 C.ar    1  UNL1       -0.0011
      4 C           1.5055    1.2390   24.2041 C.ar    1  UNL1        0.0022
      5 C           1.3971    0.9072   22.7453 C.ar    1  UNL1       -0.0029
      6 C           0.3922    1.6171   21.8873 C.ar    1  UNL1        0.0170
      7 C           2.4078   -0.1571   22.4356 C.3     1  UNL1        0.1207
      8 N           3.1408   -0.4831   23.7031 N.am    1  UNL1       -0.2635
      9 C           4.2387   -1.4944   23.8515 C.2     1  UNL1        0.2537
     10 O           4.8814   -1.7127   25.1891 O.2     1  UNL1       -0.2722
     11 C           2.5831    0.3797   24.7960 C.3     1  UNL1        0.1751
     12 C           4.6938   -2.2874   22.6624 C.3     1  UNL1        0.1935
     13 C           4.5542   -3.7147   22.2229 C.3     1  UNL1        0.0711
     14 C           5.3373   -3.4088   20.9807 C.3     1  UNL1        0.1457
     15 O           5.4769   -1.9815   21.4202 O.3     1  UNL1       -0.3469
     16 C           3.0254    0.3828   26.2293 C.2     1  UNL1        0.2485
     17 O           3.6555    1.6105   26.8172 O.2     1  UNL1       -0.2726
     18 N           2.8377   -0.8419   27.0748 N.am    1  UNL1       -0.2823
     19 H           2.4241   -1.6478   26.6890 H       1  UNL1        0.1549
     20 C           3.2800   -0.8389   28.5081 C.ar    1  UNL1        0.0503
     21 C           2.2865   -0.5688   29.5990 C.ar    1  UNL1        0.0144
     22 C           2.7288   -0.5657   31.0323 C.ar    1  UNL1       -0.0002
     23 C           4.1646   -0.8327   31.3748 C.ar    1  UNL1        0.0182
     24 C           5.1580   -1.1028   30.2838 C.ar    1  UNL1       -0.0002
     25 C           4.7157   -1.1058   28.8505 C.ar    1  UNL1        0.0144
     26 C           4.6069   -0.8297   32.8081 C.3     1  UNL1        0.2827
     27 O           4.0936    0.5712   32.9635 O.3     1  UNL1       -0.3692
     28 H           3.7133    0.8713   32.1231 H       1  UNL1        0.2112
     29 C           5.0492   -0.8266   34.2413 C.3     1  UNL1        0.4311
     30 F           5.4915   -0.8235   35.6746 F       1  UNL1       -0.1669
     31 F           6.0596    0.2366   33.9273 F       1  UNL1       -0.1669
     32 F           4.4888   -1.4495   34.5286 F       1  UNL1       -0.1669
     33 C           5.1201   -2.2305   32.6526 C.3     1  UNL1        0.4311
     34 F           5.6334   -3.6313   32.4972 F       1  UNL1       -0.1669
     35 F           4.3327   -2.6236   32.5528 F       1  UNL1       -0.1669
     36 F           6.6091   -2.0857   32.7619 F       1  UNL1       -0.1669
     37 S          -1.5094    3.3687   21.6302 S.O2    1  UNL1        0.0603
     38 O          -1.6379    4.4427   22.6694 O.2     1  UNL1       -0.1530
     39 O          -1.3808    2.2947   20.5909 O.2     1  UNL1       -0.1530
     40 C          -3.9811    3.8919   21.0246 C.3     1  UNL1        0.1102
     41 N          -2.5143    4.0785   20.7722 N.3     1  UNL1       -0.1779
     42 H          -2.3249    5.0768   20.8615 H       1  UNL1        0.1488
@<TRIPOS>BOND
     1    40    41    1
     2    41    37    1
     3    37    38    2
     4    37    39    2
     5    37     1    1
     6     1     2   ar
     7     2     3   ar
     8     3     4   ar
     9     4     5   ar
    10     5     6   ar
    11     5     7    1
    12     7     8    1
    13     8     9   am
    14     9    10    2
    15     9    12    1
    16    12    13    1
    17    13    14    1
    18    14    15    1
    19     8    11    1
    20    11    16    1
    21    16    17    2
    22    16    18   am
    23    18    20    1
    24    20    21   ar
    25    21    22   ar
    26    22    23   ar
    27    23    26    1
    28    26    27    1
    29    26    29    1
    30    29    30    1
    31    29    31    1
    32    29    32    1
    33    26    33    1
    34    33    34    1
    35    33    35    1
    36    33    36    1
    37    23    24   ar
    38    24    25   ar
    39     6     1   ar
    40    15    12    1
    41    25    20   ar
    42    11     4    1
    43    41    42    1
    44    18    19    1
    45    27    28    1
