@<TRIPOS>MOLECULE
*****
 35 40 0 0 0
SMALL
GASTEIGER

@<TRIPOS>ATOM
      1 C          -1.6890    2.8910   20.4275 C.ar    1  UNL1        0.2182
      2 N          -1.0838    4.1925   19.9920 N.ar    1  UNL1       -0.2122
      3 C           0.3972    4.2964   19.7777 C.ar    1  UNL1        0.1049
      4 C           1.2729    3.0988   19.9990 C.ar    1  UNL1        0.0582
      5 C           0.6676    1.7973   20.4345 C.ar    1  UNL1        0.1533
      6 N          -0.8133    1.6934   20.6487 N.ar    1  UNL1       -0.1960
      7 N           1.5433    0.5997   20.6557 N.ar    1  UNL1       -0.2739
      8 C           1.9158   -0.4229   19.6235 C.ar    1  UNL1        0.0974
      9 C           2.8029   -1.4402   20.2778 C.ar    1  UNL1        0.0778
     10 N           2.9788   -1.0462   21.7144 N.ar    1  UNL1       -0.2307
     11 C           2.2003    0.2145   21.9479 C.ar    1  UNL1        0.1484
     12 C           2.0970    0.9593   23.2459 C.ar    1  UNL1        0.0353
     13 C           3.2570    1.7731   23.7381 C.ar    1  UNL1        0.0031
     14 C           3.1537    2.5179   25.0360 C.ar    1  UNL1        0.0010
     15 C           1.8904    2.4488   25.8418 C.ar    1  UNL1        0.0114
     16 C           0.7304    1.6350   25.3497 C.ar    1  UNL1        0.0578
     17 CL         -0.5328    1.5659   26.1555 Cl      1  UNL1       -0.0822
     18 C           0.8338    0.8903   24.0517 C.ar    1  UNL1        0.0144
     19 C           3.4080   -2.6406   19.6124 C.3     1  UNL1        0.0419
     20 C           4.5406   -3.2776   18.8631 C.3     1  UNL1        0.0064
     21 C           3.3233   -4.0829   19.2090 C.3     1  UNL1        0.0064
     22 N          -3.1700    2.7870   20.6417 N.pl3   1  UNL1       -0.3028
     23 H          -3.7226    2.2654   20.0158 H       1  UNL1        0.1496
     24 O          -8.0680    4.2902   23.3202 O.2     1  UNL1       -0.2677
     25 C          -6.7856    4.7145   23.9723 C.2     1  UNL1        0.2730
     26 N          -5.4711    4.3638   23.3406 N.am    1  UNL1       -0.2727
     27 C          -4.1144    4.7179   23.8737 C.3     1  UNL1        0.0956
     28 C          -3.0873    4.1703   22.9275 C.3     1  UNL1        0.0428
     29 C          -3.8092    3.4778   21.8098 C.3     1  UNL1        0.0932
     30 C          -5.2824    3.5974   22.0651 C.3     1  UNL1        0.1133
     31 C          -6.8178    5.4896   25.2561 C.ar    1  UNL1        0.1643
     32 N          -5.9197    5.2751   26.4383 N.ar    1  UNL1       -0.2322
     33 C          -6.3005    6.2682   27.4959 C.ar    1  UNL1        0.1066
     34 C          -7.4340    7.0965   26.9675 C.ar    1  UNL1        0.0577
     35 S          -7.7536    6.6153   25.5832 S.2     1  UNL1       -0.0614
@<TRIPOS>BOND
     1    24    25    2
     2    25    31    1
     3    31    32   ar
     4    32    33   ar
     5    33    34   ar
     6    34    35   ar
     7    25    26   am
     8    26    27    1
     9    27    28    1
    10    28    29    1
    11    29    22    1
    12    22     1    1
    13     1     2   ar
    14     2     3   ar
    15     3     4   ar
    16     4     5   ar
    17     5     7    1
    18     7     8   ar
    19     8     9   ar
    20     9    19    1
    21    19    20    1
    22    20    21    1
    23     9    10   ar
    24    10    11   ar
    25    11    12    1
    26    12    13   ar
    27    13    14   ar
    28    14    15   ar
    29    15    16   ar
    30    16    17    1
    31    16    18   ar
    32     5     6   ar
    33    29    30    1
    34    35    31   ar
    35    30    26    1
    36     6     1   ar
    37    11     7   ar
    38    18    12   ar
    39    21    19    1
    40    22    23    1
@<TRIPOS>MOLECULE
*****
 35 40 0 0 0
SMALL
GASTEIGER

@<TRIPOS>ATOM
      1 C           3.9600   -0.4726   24.3990 C.ar    1  UNL1        0.2182
      2 N           5.1659    0.4189   24.3701 N.ar    1  UNL1       -0.2122
      3 C           5.2091    1.5921   23.4365 C.ar    1  UNL1        0.1049
      4 C           4.0463    1.8738   22.5318 C.ar    1  UNL1        0.0582
      5 C           2.8404    0.9824   22.5606 C.ar    1  UNL1        0.1533
      6 N           2.7972   -0.1909   23.4942 N.ar    1  UNL1       -0.1960
      7 N           1.6776    1.2641   21.6559 N.ar    1  UNL1       -0.2739
      8 C           0.5048    2.1431   21.9751 C.ar    1  UNL1        0.0974
      9 C          -0.4142    2.1385   20.7895 C.ar    1  UNL1        0.0778
     10 N           0.1906    1.2566   19.7376 N.ar    1  UNL1       -0.2307
     11 C           1.4834    0.7162   20.2731 C.ar    1  UNL1        0.1484
     12 C           2.4179   -0.2095   19.5522 C.ar    1  UNL1        0.0353
     13 C           3.0732    0.2301   18.2765 C.ar    1  UNL1        0.0031
     14 C           4.0078   -0.6957   17.5556 C.ar    1  UNL1        0.0010
     15 C           4.2870   -2.0610   18.1104 C.ar    1  UNL1        0.0114
     16 C           3.6318   -2.5006   19.3861 C.ar    1  UNL1        0.0578
     17 CL          3.9110   -3.8659   19.9409 Cl      1  UNL1       -0.0822
     18 C           2.6972   -1.5748   20.1069 C.ar    1  UNL1        0.0144
     19 C          -1.7104    2.8848   20.6759 C.3     1  UNL1        0.0419
     20 C          -2.7339    3.5903   19.8365 C.3     1  UNL1        0.0064
     21 C          -2.9321    3.4718   21.3186 C.3     1  UNL1        0.0064
     22 N           3.9168   -1.6458   25.3327 N.pl3   1  UNL1       -0.3028
     23 H           3.8376   -2.5587   24.9727 H       1  UNL1        0.1496
     24 O           1.1534   -0.1231   30.1771 O.2     1  UNL1       -0.2677
     25 C           2.6012   -0.4905   30.3141 C.2     1  UNL1        0.2730
     26 N           3.3895   -0.8971   29.1044 N.am    1  UNL1       -0.2727
     27 C           4.8373   -1.2894   29.0864 C.3     1  UNL1        0.0956
     28 C           5.2109   -1.6176   27.6713 C.3     1  UNL1        0.0428
     29 C           3.9942   -1.4282   26.8147 C.3     1  UNL1        0.0932
     30 C           2.8685   -0.9829   27.7005 C.3     1  UNL1        0.1133
     31 C           3.2608   -0.4512   31.6607 C.ar    1  UNL1        0.1643
     32 N           3.6681   -1.6411   32.4781 N.ar    1  UNL1       -0.2322
     33 C           4.2878   -1.1404   33.7490 C.ar    1  UNL1        0.1066
     34 C           4.2635    0.3591   33.7171 C.ar    1  UNL1        0.0577
     35 S           3.6288    0.7850   32.4265 S.2     1  UNL1       -0.0614
@<TRIPOS>BOND
     1    24    25    2
     2    25    31    1
     3    31    32   ar
     4    32    33   ar
     5    33    34   ar
     6    34    35   ar
     7    25    26   am
     8    26    27    1
     9    27    28    1
    10    28    29    1
    11    29    22    1
    12    22     1    1
    13     1     2   ar
    14     2     3   ar
    15     3     4   ar
    16     4     5   ar
    17     5     7    1
    18     7     8   ar
    19     8     9   ar
    20     9    19    1
    21    19    20    1
    22    20    21    1
    23     9    10   ar
    24    10    11   ar
    25    11    12    1
    26    12    13   ar
    27    13    14   ar
    28    14    15   ar
    29    15    16   ar
    30    16    17    1
    31    16    18   ar
    32     5     6   ar
    33    29    30    1
    34    35    31   ar
    35    30    26    1
    36     6     1   ar
    37    11     7   ar
    38    18    12   ar
    39    21    19    1
    40    22    23    1
@<TRIPOS>MOLECULE
*****
 35 40 0 0 0
SMALL
GASTEIGER

@<TRIPOS>ATOM
      1 C          -1.7186    3.0159   20.6256 C.ar    1  UNL1        0.2182
      2 N          -1.1537    4.3757   20.9116 N.ar    1  UNL1       -0.2122
      3 C           0.2927    4.5246   21.2797 C.ar    1  UNL1        0.1049
      4 C           1.1742    3.3138   21.3619 C.ar    1  UNL1        0.0582
      5 C           0.6094    1.9540   21.0759 C.ar    1  UNL1        0.1533
      6 N          -0.8371    1.8050   20.7078 N.ar    1  UNL1       -0.1960
      7 N           1.4909    0.7432   21.1580 N.ar    1  UNL1       -0.2739
      8 C           1.8894   -0.1368   20.0105 C.ar    1  UNL1        0.0974
      9 C           2.7735   -1.2241   20.5454 C.ar    1  UNL1        0.0778
     10 N           2.9215   -1.0162   22.0235 N.ar    1  UNL1       -0.2307
     11 C           2.1287    0.1997   22.4021 C.ar    1  UNL1        0.1484
     12 C           1.9970    0.7716   23.7825 C.ar    1  UNL1        0.0353
     13 C           0.6373    0.9919   24.3765 C.ar    1  UNL1        0.0031
     14 C           0.5055    1.5638   25.7570 C.ar    1  UNL1        0.0010
     15 C           1.7335    1.9155   26.5434 C.ar    1  UNL1        0.0114
     16 C           3.0931    1.6953   25.9494 C.ar    1  UNL1        0.0578
     17 CL          4.3210    2.0469   26.7359 Cl      1  UNL1       -0.0822
     18 C           3.2248    1.1233   24.5690 C.ar    1  UNL1        0.0144
     19 C           3.3998   -2.3259   19.7430 C.3     1  UNL1        0.0419
     20 C           3.5237   -3.7840   19.4135 C.3     1  UNL1        0.0064
     21 C           4.3606   -2.7762   18.6827 C.3     1  UNL1        0.0064
     22 N          -3.1652    2.8669   20.2574 N.pl3   1  UNL1       -0.3028
     23 H          -3.4205    2.3316   19.4716 H       1  UNL1        0.1496
     24 O          -5.4750    3.6252   25.5027 O.2     1  UNL1       -0.2677
     25 C          -6.1204    4.3651   24.3687 C.2     1  UNL1        0.2730
     26 N          -5.5810    4.2220   22.9764 N.am    1  UNL1       -0.2727
     27 C          -6.1188    4.8959   21.7489 C.3     1  UNL1        0.0956
     28 C          -5.2792    4.4703   20.5810 C.3     1  UNL1        0.0428
     29 C          -4.2226    3.5333   21.0866 C.3     1  UNL1        0.0932
     30 C          -4.4091    3.3799   22.5670 C.3     1  UNL1        0.1133
     31 C          -7.3051    5.2480   24.6270 C.ar    1  UNL1        0.1643
     32 N          -8.7084    4.9999   24.1588 N.ar    1  UNL1       -0.2322
     33 C          -9.5651    6.1327   24.6413 C.ar    1  UNL1        0.1066
     34 C          -8.6914    7.0809   25.4077 C.ar    1  UNL1        0.0577
     35 S          -7.2946    6.5342   25.3989 S.2     1  UNL1       -0.0614
@<TRIPOS>BOND
     1    24    25    2
     2    25    31    1
     3    31    32   ar
     4    32    33   ar
     5    33    34   ar
     6    34    35   ar
     7    25    26   am
     8    26    27    1
     9    27    28    1
    10    28    29    1
    11    29    22    1
    12    22     1    1
    13     1     2   ar
    14     2     3   ar
    15     3     4   ar
    16     4     5   ar
    17     5     7    1
    18     7     8   ar
    19     8     9   ar
    20     9    19    1
    21    19    20    1
    22    20    21    1
    23     9    10   ar
    24    10    11   ar
    25    11    12    1
    26    12    13   ar
    27    13    14   ar
    28    14    15   ar
    29    15    16   ar
    30    16    17    1
    31    16    18   ar
    32     5     6   ar
    33    29    30    1
    34    35    31   ar
    35    30    26    1
    36     6     1   ar
    37    11     7   ar
    38    18    12   ar
    39    21    19    1
    40    22    23    1
@<TRIPOS>MOLECULE
*****
 35 40 0 0 0
SMALL
GASTEIGER

@<TRIPOS>ATOM
      1 C           0.6747    1.2071   20.2640 C.ar    1  UNL1        0.2182
      2 N           1.6873    2.2478   19.8875 N.ar    1  UNL1       -0.2122
      3 C           1.4632    3.6826   20.2628 C.ar    1  UNL1        0.1049
      4 C           0.2265    4.0768   21.0147 C.ar    1  UNL1        0.0582
      5 C          -0.7860    3.0362   21.3912 C.ar    1  UNL1        0.1533
      6 N          -0.5619    1.6013   21.0159 N.ar    1  UNL1       -0.1960
      7 N          -2.0226    3.4304   22.1431 N.ar    1  UNL1       -0.2739
      8 C          -2.1460    3.5572   23.6327 C.ar    1  UNL1        0.0974
      9 C          -3.5527    3.9722   23.9476 C.ar    1  UNL1        0.0778
     10 N          -4.2986    4.1019   22.6528 N.ar    1  UNL1       -0.2307
     11 C          -3.3530    3.7670   21.5375 C.ar    1  UNL1        0.1484
     12 C          -3.6804    3.7686   20.0737 C.ar    1  UNL1        0.0353
     13 C          -5.0890    3.5235   19.6199 C.ar    1  UNL1        0.0031
     14 C          -5.4163    3.5250   18.1560 C.ar    1  UNL1        0.0010
     15 C          -4.3351    3.7716   17.1460 C.ar    1  UNL1        0.0114
     16 C          -2.9266    4.0167   17.5998 C.ar    1  UNL1        0.0578
     17 CL         -1.8454    4.2633   16.5897 Cl      1  UNL1       -0.0822
     18 C          -2.5993    4.0152   19.0636 C.ar    1  UNL1        0.0144
     19 C          -4.1146    4.2149   25.3170 C.3     1  UNL1        0.0419
     20 C          -4.0418    4.0260   26.8033 C.3     1  UNL1        0.0064
     21 C          -5.1608    4.8242   26.2027 C.3     1  UNL1        0.0064
     22 N           0.8988   -0.2278   19.8886 N.pl3   1  UNL1       -0.3028
     23 H           0.1748   -0.7453   19.4677 H       1  UNL1        0.1496
     24 O           5.6471   -2.6766   17.6794 O.2     1  UNL1       -0.2677
     25 C           5.5739   -2.5758   19.1742 C.2     1  UNL1        0.2730
     26 N           4.3749   -1.9534   19.8261 N.am    1  UNL1       -0.2727
     27 C           4.1619   -1.7841   21.3013 C.3     1  UNL1        0.0956
     28 C           2.8337   -1.1171   21.5042 C.3     1  UNL1        0.0428
     29 C           2.2260   -0.8741   20.1545 C.3     1  UNL1        0.0932
     30 C           3.1785   -1.3910   19.1174 C.3     1  UNL1        0.1133
     31 C           6.6998   -3.0974   20.0170 C.ar    1  UNL1        0.1643
     32 N           6.7752   -4.4585   20.6431 N.ar    1  UNL1       -0.2322
     33 C           8.0699   -4.5518   21.3948 C.ar    1  UNL1        0.1066
     34 C           8.7946   -3.2484   21.2334 C.ar    1  UNL1        0.0577
     35 S           7.9478   -2.3496   20.3819 S.2     1  UNL1       -0.0614
@<TRIPOS>BOND
     1    24    25    2
     2    25    31    1
     3    31    32   ar
     4    32    33   ar
     5    33    34   ar
     6    34    35   ar
     7    25    26   am
     8    26    27    1
     9    27    28    1
    10    28    29    1
    11    29    22    1
    12    22     1    1
    13     1     2   ar
    14     2     3   ar
    15     3     4   ar
    16     4     5   ar
    17     5     7    1
    18     7     8   ar
    19     8     9   ar
    20     9    19    1
    21    19    20    1
    22    20    21    1
    23     9    10   ar
    24    10    11   ar
    25    11    12    1
    26    12    13   ar
    27    13    14   ar
    28    14    15   ar
    29    15    16   ar
    30    16    17    1
    31    16    18   ar
    32     5     6   ar
    33    29    30    1
    34    35    31   ar
    35    30    26    1
    36     6     1   ar
    37    11     7   ar
    38    18    12   ar
    39    21    19    1
    40    22    23    1
@<TRIPOS>MOLECULE
*****
 35 40 0 0 0
SMALL
GASTEIGER

@<TRIPOS>ATOM
      1 C         -17.6187   -2.4667   19.3953 C.ar    1  UNL1        0.2182
      2 N         -18.4007   -2.5790   18.1202 N.ar    1  UNL1       -0.2122
      3 C         -17.9644   -3.5407   17.0551 C.ar    1  UNL1        0.1049
      4 C         -16.7461   -4.3902   17.2649 C.ar    1  UNL1        0.0582
      5 C         -15.9640   -4.2779   18.5400 C.ar    1  UNL1        0.1533
      6 N         -16.4003   -3.3162   19.6051 N.ar    1  UNL1       -0.1960
      7 N         -14.7457   -5.1274   18.7498 N.ar    1  UNL1       -0.2739
      8 C         -13.3220   -4.6612   18.6741 C.ar    1  UNL1        0.0974
      9 C         -12.4335   -5.8379   18.9497 C.ar    1  UNL1        0.0778
     10 N         -13.3081   -7.0314   19.1958 N.ar    1  UNL1       -0.2307
     11 C         -14.7371   -6.5923   19.0723 C.ar    1  UNL1        0.1484
     12 C         -15.9453   -7.4650   19.2415 C.ar    1  UNL1        0.0353
     13 C         -17.2254   -6.8810   19.7618 C.ar    1  UNL1        0.0031
     14 C         -18.4336   -7.7536   19.9310 C.ar    1  UNL1        0.0010
     15 C         -18.3619   -9.2102   19.5799 C.ar    1  UNL1        0.0114
     16 C         -17.0820   -9.7941   19.0596 C.ar    1  UNL1        0.0578
     17 CL        -17.0102  -11.2507   18.7086 Cl      1  UNL1       -0.0822
     18 C         -15.8737   -8.9215   18.8904 C.ar    1  UNL1        0.0144
     19 C         -10.9338   -5.8235   18.9748 C.3     1  UNL1        0.0419
     20 C          -9.6270   -6.5590   18.9410 C.3     1  UNL1        0.0064
     21 C          -9.6431   -5.0632   19.0521 C.3     1  UNL1        0.0064
     22 N         -18.0550   -1.5049   20.4605 N.pl3   1  UNL1       -0.3028
     23 H         -18.6364   -1.8123   21.1931 H       1  UNL1        0.1496
     24 O         -14.2425    2.3260   18.4081 O.2     1  UNL1       -0.2677
     25 C         -15.3199    2.8611   19.3041 C.2     1  UNL1        0.2730
     26 N         -16.3482    1.9320   19.8781 N.am    1  UNL1       -0.2727
     27 C         -17.4788    2.3198   20.7844 C.3     1  UNL1        0.0956
     28 C         -18.2557    1.0795   21.1129 C.3     1  UNL1        0.0428
     29 C         -17.6054   -0.0748   20.4096 C.3     1  UNL1        0.0932
     30 C         -16.4264    0.4521   19.6464 C.3     1  UNL1        0.1133
     31 C         -15.3689    4.3253   19.6262 C.ar    1  UNL1        0.1643
     32 N         -14.6612    5.0024   20.7623 N.ar    1  UNL1       -0.2322
     33 C         -14.9893    6.4650   20.7069 C.ar    1  UNL1        0.1066
     34 C         -15.8997    6.6919   19.5367 C.ar    1  UNL1        0.0577
     35 S         -16.1344    5.3695   18.8687 S.2     1  UNL1       -0.0614
@<TRIPOS>BOND
     1    24    25    2
     2    25    31    1
     3    31    32   ar
     4    32    33   ar
     5    33    34   ar
     6    34    35   ar
     7    25    26   am
     8    26    27    1
     9    27    28    1
    10    28    29    1
    11    29    22    1
    12    22     1    1
    13     1     2   ar
    14     2     3   ar
    15     3     4   ar
    16     4     5   ar
    17     5     7    1
    18     7     8   ar
    19     8     9   ar
    20     9    19    1
    21    19    20    1
    22    20    21    1
    23     9    10   ar
    24    10    11   ar
    25    11    12    1
    26    12    13   ar
    27    13    14   ar
    28    14    15   ar
    29    15    16   ar
    30    16    17    1
    31    16    18   ar
    32     5     6   ar
    33    29    30    1
    34    35    31   ar
    35    30    26    1
    36     6     1   ar
    37    11     7   ar
    38    18    12   ar
    39    21    19    1
    40    22    23    1
@<TRIPOS>MOLECULE
*****
 35 40 0 0 0
SMALL
GASTEIGER

@<TRIPOS>ATOM
      1 C           2.1694    1.1359   25.1255 C.ar    1  UNL1        0.2182
      2 N           2.9820    2.3965   25.1031 N.ar    1  UNL1       -0.2122
      3 C           3.7898    2.7466   23.8887 C.ar    1  UNL1        0.1049
      4 C           3.7851    1.8361   22.6967 C.ar    1  UNL1        0.0582
      5 C           2.9726    0.5754   22.7190 C.ar    1  UNL1        0.1533
      6 N           2.1647    0.2253   23.9334 N.ar    1  UNL1       -0.1960
      7 N           2.9679   -0.3351   21.5270 N.ar    1  UNL1       -0.2739
      8 C           3.5823   -1.7018   21.4591 C.ar    1  UNL1        0.0974
      9 C           3.3421   -2.2502   20.0837 C.ar    1  UNL1        0.0778
     10 N           2.5792   -1.2224   19.3016 N.ar    1  UNL1       -0.2307
     11 C           2.3479   -0.0389   20.1937 C.ar    1  UNL1        0.1484
     12 C           1.6238    1.2200   19.8182 C.ar    1  UNL1        0.0353
     13 C           2.2684    2.2083   18.8920 C.ar    1  UNL1        0.0031
     14 C           1.5443    3.4671   18.5165 C.ar    1  UNL1        0.0010
     15 C           0.1755    3.7377   19.0672 C.ar    1  UNL1        0.0114
     16 C          -0.4691    2.7494   19.9934 C.ar    1  UNL1        0.0578
     17 CL         -1.8378    3.0200   20.5441 Cl      1  UNL1       -0.0822
     18 C           0.2551    1.4906   20.3688 C.ar    1  UNL1        0.0144
     19 C           3.7868   -3.5909   19.5791 C.3     1  UNL1        0.0419
     20 C           3.6287   -5.0820   19.5401 C.3     1  UNL1        0.0064
     21 C           4.7151   -4.4220   18.7439 C.3     1  UNL1        0.0064
     22 N           1.3615    0.7857   26.3399 N.pl3   1  UNL1       -0.3028
     23 H           0.3786    0.8307   26.3070 H       1  UNL1        0.1496
     24 O           1.7069    1.2883   32.0890 O.2     1  UNL1       -0.2677
     25 C           2.6824    0.3558   31.4341 C.2     1  UNL1        0.2730
     26 N           2.6584    0.1693   29.9459 N.am    1  UNL1       -0.2727
     27 C           3.5668   -0.7243   29.1545 C.3     1  UNL1        0.0956
     28 C           3.1915   -0.6022   27.7074 C.3     1  UNL1        0.0428
     29 C           2.0512    0.3669   27.6043 C.3     1  UNL1        0.0932
     30 C           1.7217    0.8437   28.9878 C.3     1  UNL1        0.1133
     31 C           3.6819   -0.3902   32.2674 C.ar    1  UNL1        0.1643
     32 N           3.6545   -1.8585   32.5729 N.ar    1  UNL1       -0.2322
     33 C           4.8400   -2.1745   33.4359 C.ar    1  UNL1        0.1066
     34 C           5.6002   -0.9016   33.6636 C.ar    1  UNL1        0.0577
     35 S           4.8844    0.2012   32.9415 S.2     1  UNL1       -0.0614
@<TRIPOS>BOND
     1    24    25    2
     2    25    31    1
     3    31    32   ar
     4    32    33   ar
     5    33    34   ar
     6    34    35   ar
     7    25    26   am
     8    26    27    1
     9    27    28    1
    10    28    29    1
    11    29    22    1
    12    22     1    1
    13     1     2   ar
    14     2     3   ar
    15     3     4   ar
    16     4     5   ar
    17     5     7    1
    18     7     8   ar
    19     8     9   ar
    20     9    19    1
    21    19    20    1
    22    20    21    1
    23     9    10   ar
    24    10    11   ar
    25    11    12    1
    26    12    13   ar
    27    13    14   ar
    28    14    15   ar
    29    15    16   ar
    30    16    17    1
    31    16    18   ar
    32     5     6   ar
    33    29    30    1
    34    35    31   ar
    35    30    26    1
    36     6     1   ar
    37    11     7   ar
    38    18    12   ar
    39    21    19    1
    40    22    23    1
@<TRIPOS>MOLECULE
*****
 35 40 0 0 0
SMALL
GASTEIGER

@<TRIPOS>ATOM
      1 C           0.6124    0.9372   20.0365 C.ar    1  UNL1        0.2182
      2 N           1.5416    1.9545   19.4437 N.ar    1  UNL1       -0.2122
      3 C           1.2698    3.4177   19.6311 C.ar    1  UNL1        0.1049
      4 C           0.0688    3.8636   20.4113 C.ar    1  UNL1        0.0582
      5 C          -0.8604    2.8462   21.0042 C.ar    1  UNL1        0.1533
      6 N          -0.5886    1.3831   20.8168 N.ar    1  UNL1       -0.1960
      7 N          -2.0614    3.2921   21.7844 N.ar    1  UNL1       -0.2739
      8 C          -3.4303    3.5470   21.2266 C.ar    1  UNL1        0.0974
      9 C          -4.3194    3.9738   22.3569 C.ar    1  UNL1        0.0778
     10 N          -3.4999    3.9826   23.6133 N.ar    1  UNL1       -0.2307
     11 C          -2.1044    3.5613   23.2594 C.ar    1  UNL1        0.1484
     12 C          -0.9540    3.4319   24.2132 C.ar    1  UNL1        0.0353
     13 C           0.2313    4.3426   24.0866 C.ar    1  UNL1        0.0031
     14 C           1.3818    4.2132   25.0404 C.ar    1  UNL1        0.0010
     15 C           1.3470    3.1732   26.1207 C.ar    1  UNL1        0.0114
     16 C           0.1619    2.2625   26.2473 C.ar    1  UNL1        0.0578
     17 CL          0.1272    1.2225   27.3276 Cl      1  UNL1       -0.0822
     18 C          -0.9886    2.3919   25.2935 C.ar    1  UNL1        0.0144
     19 C          -5.7727    4.3293   22.2496 C.3     1  UNL1        0.0419
     20 C          -6.9079    4.9373   21.4806 C.3     1  UNL1        0.0064
     21 C          -7.1546    4.3370   22.8329 C.3     1  UNL1        0.0064
     22 N           0.8842   -0.5261   19.8492 N.pl3   1  UNL1       -0.3028
     23 H           0.1677   -1.1235   19.5346 H       1  UNL1        0.1496
     24 O           5.7591   -2.8135   17.7450 O.2     1  UNL1       -0.2677
     25 C           5.6853   -2.6354   19.2326 C.2     1  UNL1        0.2730
     26 N           4.4545   -2.0486   19.8576 N.am    1  UNL1       -0.2727
     27 C           4.2370   -1.8115   21.3228 C.3     1  UNL1        0.0956
     28 C           2.8731   -1.2122   21.4979 C.3     1  UNL1        0.0428
     29 C           2.2476   -1.0791   20.1411 C.3     1  UNL1        0.0932
     30 C           3.2249   -1.5960   19.1273 C.3     1  UNL1        0.1133
     31 C           6.8425   -3.0441   20.0951 C.ar    1  UNL1        0.1643
     32 N           6.9569   -4.3245   20.8682 N.ar    1  UNL1       -0.2322
     33 C           8.2736   -4.3159   21.5868 C.ar    1  UNL1        0.1066
     34 C           8.9728   -3.0303   21.2579 C.ar    1  UNL1        0.0577
     35 S           8.0884   -2.2443   20.3360 S.2     1  UNL1       -0.0614
@<TRIPOS>BOND
     1    24    25    2
     2    25    31    1
     3    31    32   ar
     4    32    33   ar
     5    33    34   ar
     6    34    35   ar
     7    25    26   am
     8    26    27    1
     9    27    28    1
    10    28    29    1
    11    29    22    1
    12    22     1    1
    13     1     2   ar
    14     2     3   ar
    15     3     4   ar
    16     4     5   ar
    17     5     7    1
    18     7     8   ar
    19     8     9   ar
    20     9    19    1
    21    19    20    1
    22    20    21    1
    23     9    10   ar
    24    10    11   ar
    25    11    12    1
    26    12    13   ar
    27    13    14   ar
    28    14    15   ar
    29    15    16   ar
    30    16    17    1
    31    16    18   ar
    32     5     6   ar
    33    29    30    1
    34    35    31   ar
    35    30    26    1
    36     6     1   ar
    37    11     7   ar
    38    18    12   ar
    39    21    19    1
    40    22    23    1
@<TRIPOS>MOLECULE
*****
 35 40 0 0 0
SMALL
GASTEIGER

@<TRIPOS>ATOM
      1 C           3.8676   -0.3557   25.5477 C.ar    1  UNL1        0.2182
      2 N           4.3259    0.9640   25.0014 N.ar    1  UNL1       -0.2122
      3 C           5.3905    1.0097   23.9457 C.ar    1  UNL1        0.1049
      4 C           5.9969   -0.2642   23.4364 C.ar    1  UNL1        0.0582
      5 C           5.5386   -1.5839   23.9827 C.ar    1  UNL1        0.1533
      6 N           4.4740   -1.6296   25.0384 N.ar    1  UNL1       -0.1960
      7 N           6.1450   -2.8578   23.4734 N.ar    1  UNL1       -0.2739
      8 C           6.9120   -3.8567   24.2882 C.ar    1  UNL1        0.0974
      9 C           7.3319   -4.9727   23.3783 C.ar    1  UNL1        0.0778
     10 N           6.8244   -4.6636   22.0010 N.ar    1  UNL1       -0.2307
     11 C           6.0909   -3.3565   22.0598 C.ar    1  UNL1        0.1484
     12 C           5.4209   -2.6689   20.9073 C.ar    1  UNL1        0.0353
     13 C           6.1927   -2.3826   19.6532 C.ar    1  UNL1        0.0031
     14 C           5.5227   -1.6950   18.5007 C.ar    1  UNL1        0.0010
     15 C           4.0810   -1.2937   18.6022 C.ar    1  UNL1        0.0114
     16 C           3.3092   -1.5800   19.8561 C.ar    1  UNL1        0.0578
     17 CL          1.8675   -1.1786   19.9576 Cl      1  UNL1       -0.0822
     18 C           3.9792   -2.2676   21.0087 C.ar    1  UNL1        0.0144
     19 C           8.1208   -6.1850   23.7758 C.3     1  UNL1        0.0419
     20 C           8.4595   -7.2406   24.7862 C.3     1  UNL1        0.0064
     21 C           9.1484   -7.2293   23.4538 C.3     1  UNL1        0.0064
     22 N           2.8030   -0.4015   26.6034 N.pl3   1  UNL1       -0.3028
     23 H           1.8544   -0.4490   26.3442 H       1  UNL1        0.1496
     24 O           1.4636    1.3329   31.9534 O.2     1  UNL1       -0.2677
     25 C           2.7326    0.5486   31.7970 C.2     1  UNL1        0.2730
     26 N           3.1512    0.0619   30.4413 N.am    1  UNL1       -0.2727
     27 C           4.3873   -0.7296   30.1316 C.3     1  UNL1        0.0956
     28 C           4.4072   -0.9995   28.6562 C.3     1  UNL1        0.0428
     29 C           3.1835   -0.3748   28.0541 C.3     1  UNL1        0.0932
     30 C           2.4073    0.2811   29.1573 C.3     1  UNL1        0.1133
     31 C           3.5830    0.2511   32.9962 C.ar    1  UNL1        0.1643
     32 N           3.8303   -1.1053   33.5871 N.ar    1  UNL1       -0.2322
     33 C           4.7355   -0.9369   34.7713 C.ar    1  UNL1        0.1066
     34 C           5.0477    0.5234   34.9123 C.ar    1  UNL1        0.0577
     35 S           4.3353    1.2576   33.8152 S.2     1  UNL1       -0.0614
@<TRIPOS>BOND
     1    24    25    2
     2    25    31    1
     3    31    32   ar
     4    32    33   ar
     5    33    34   ar
     6    34    35   ar
     7    25    26   am
     8    26    27    1
     9    27    28    1
    10    28    29    1
    11    29    22    1
    12    22     1    1
    13     1     2   ar
    14     2     3   ar
    15     3     4   ar
    16     4     5   ar
    17     5     7    1
    18     7     8   ar
    19     8     9   ar
    20     9    19    1
    21    19    20    1
    22    20    21    1
    23     9    10   ar
    24    10    11   ar
    25    11    12    1
    26    12    13   ar
    27    13    14   ar
    28    14    15   ar
    29    15    16   ar
    30    16    17    1
    31    16    18   ar
    32     5     6   ar
    33    29    30    1
    34    35    31   ar
    35    30    26    1
    36     6     1   ar
    37    11     7   ar
    38    18    12   ar
    39    21    19    1
    40    22    23    1
@<TRIPOS>MOLECULE
*****
 35 40 0 0 0
SMALL
GASTEIGER

@<TRIPOS>ATOM
      1 C           6.0782   -2.7379   18.8242 C.ar    1  UNL1        0.2182
      2 N           7.3601   -2.2418   18.2238 N.ar    1  UNL1       -0.2122
      3 C           8.6493   -2.3966   18.9747 C.ar    1  UNL1        0.1049
      4 C           8.6566   -3.0475   20.3262 C.ar    1  UNL1        0.0582
      5 C           7.3747   -3.5436   20.9266 C.ar    1  UNL1        0.1533
      6 N           6.0855   -3.3887   20.1757 N.ar    1  UNL1       -0.1960
      7 N           7.3819   -4.1944   22.2780 N.ar    1  UNL1       -0.2739
      8 C           8.1127   -5.4512   22.6474 C.ar    1  UNL1        0.0974
      9 C           7.8421   -5.7363   24.0950 C.ar    1  UNL1        0.0778
     10 N           6.9441   -4.6558   24.6203 N.ar    1  UNL1       -0.2307
     11 C           6.6597   -3.7028   23.4973 C.ar    1  UNL1        0.1484
     12 C           5.8034   -2.4740   23.5793 C.ar    1  UNL1        0.0353
     13 C           4.3861   -2.5135   23.0895 C.ar    1  UNL1        0.0031
     14 C           3.5297   -1.2847   23.1715 C.ar    1  UNL1        0.0010
     15 C           4.0906   -0.0164   23.7432 C.ar    1  UNL1        0.0114
     16 C           5.5078    0.0230   24.2330 C.ar    1  UNL1        0.0578
     17 CL          6.0687    1.2913   24.8047 Cl      1  UNL1       -0.0822
     18 C           6.3642   -1.2058   24.1510 C.ar    1  UNL1        0.0144
     19 C           8.3759   -6.8980   24.8796 C.3     1  UNL1        0.0419
     20 C           8.1674   -7.9940   25.8822 C.3     1  UNL1        0.0064
     21 C           9.5089   -7.8142   25.2358 C.3     1  UNL1        0.0064
     22 N           4.7889   -2.5831   18.0733 N.pl3   1  UNL1       -0.3028
     23 H           4.4932   -3.2876   17.4525 H       1  UNL1        0.1496
     24 O           0.1584   -0.2022   20.5860 O.2     1  UNL1       -0.2677
     25 C           0.9832    0.6917   19.7082 C.2     1  UNL1        0.2730
     26 N           2.2010    0.1504   19.0196 N.am    1  UNL1       -0.2727
     27 C           3.1185    0.9202   18.1164 C.3     1  UNL1        0.0956
     28 C           4.1996   -0.0101   17.6520 C.3     1  UNL1        0.0428
     29 C           3.9503   -1.3548   18.2682 C.3     1  UNL1        0.0932
     30 C           2.7151   -1.2556   19.1134 C.3     1  UNL1        0.1133
     31 C           0.5902    2.1269   19.5189 C.ar    1  UNL1        0.1643
     32 N           0.0775    2.7406   18.2499 N.ar    1  UNL1       -0.2322
     33 C          -0.1886    4.1933   18.5121 C.ar    1  UNL1        0.1066
     34 C           0.1595    4.4774   19.9432 C.ar    1  UNL1        0.0577
     35 S           0.6409    3.2003   20.5654 S.2     1  UNL1       -0.0614
@<TRIPOS>BOND
     1    24    25    2
     2    25    31    1
     3    31    32   ar
     4    32    33   ar
     5    33    34   ar
     6    34    35   ar
     7    25    26   am
     8    26    27    1
     9    27    28    1
    10    28    29    1
    11    29    22    1
    12    22     1    1
    13     1     2   ar
    14     2     3   ar
    15     3     4   ar
    16     4     5   ar
    17     5     7    1
    18     7     8   ar
    19     8     9   ar
    20     9    19    1
    21    19    20    1
    22    20    21    1
    23     9    10   ar
    24    10    11   ar
    25    11    12    1
    26    12    13   ar
    27    13    14   ar
    28    14    15   ar
    29    15    16   ar
    30    16    17    1
    31    16    18   ar
    32     5     6   ar
    33    29    30    1
    34    35    31   ar
    35    30    26    1
    36     6     1   ar
    37    11     7   ar
    38    18    12   ar
    39    21    19    1
    40    22    23    1
