@<TRIPOS>MOLECULE
*****
 38 42 0 0 0
SMALL
GASTEIGER

@<TRIPOS>ATOM
      1 C           7.3842   -5.0524   26.0109 C.3     1  UNL1        0.1024
      2 C           8.1981   -6.2935   25.7935 C.3     1  UNL1        0.0643
      3 C           8.4809   -6.7703   24.3997 C.3     1  UNL1        0.1368
      4 C           9.0123   -7.6143   23.2794 C.3     1  UNL1        0.0437
      5 C           9.1964   -7.8278   25.1870 C.3     1  UNL1        0.0437
      6 O           7.9500   -6.0059   23.2234 O.3     1  UNL1       -0.4676
      7 C           7.1362   -4.7648   23.4407 C.ar    1  UNL1        0.2219
      8 N           6.6053   -4.0005   22.2643 N.ar    1  UNL1       -0.2119
      9 C           5.7914   -2.7594   22.4817 C.ar    1  UNL1        0.0851
     10 C           5.5085   -2.2825   23.8755 C.ar    1  UNL1        0.0177
     11 C           6.0395   -3.0469   25.0519 C.ar    1  UNL1        0.0034
     12 C           6.8533   -4.2881   24.8345 C.ar    1  UNL1        0.0488
     13 C           5.2605   -1.9950   21.3053 C.ar    1  UNL1        0.0284
     14 C           3.9372   -2.3669   20.7047 C.ar    1  UNL1        0.0032
     15 C           3.4063   -1.6025   19.5283 C.ar    1  UNL1        0.0115
     16 C           4.1986   -0.4664   18.9525 C.ar    1  UNL1        0.0585
     17 CL          3.6677    0.2980   17.7761 Cl      1  UNL1       -0.0822
     18 C           5.5219   -0.0946   19.5532 C.ar    1  UNL1        0.0228
     19 C           6.0528   -0.8589   20.7296 C.ar    1  UNL1        0.0599
     20 CL          7.3760   -0.4872   21.3303 Cl      1  UNL1       -0.0822
     21 C           4.6947   -1.0414   24.0929 C.ar    1  UNL1        0.0015
     22 C           5.3790    0.2728   24.3268 C.ar    1  UNL1        0.0009
     23 C           4.5651    1.5139   24.5442 C.ar    1  UNL1        0.0114
     24 C           3.0670    1.4409   24.5276 C.ar    1  UNL1        0.0577
     25 CL          2.2532    2.6820   24.7450 Cl      1  UNL1       -0.0822
     26 C           2.3827    0.1267   24.2937 C.ar    1  UNL1        0.0114
     27 C           3.1965   -1.1144   24.0764 C.ar    1  UNL1        0.0009
     28 C           7.2011   -5.5291   28.5583 C.2     1  UNL1        0.2655
     29 O           7.5838   -6.9595   28.3181 O.2     1  UNL1       -0.2684
     30 N           7.1013   -4.5756   27.4047 N.am    1  UNL1       -0.2972
     31 H           6.8502   -3.6368   27.5623 H       1  UNL1        0.1500
     32 C           6.1573   -2.3979   32.6798 C.3     1  UNL1        0.0515
     33 C           6.4384   -3.6130   31.8465 C.ar    1  UNL1        0.0536
     34 C           6.6800   -3.6304   30.3662 C.ar    1  UNL1        0.0395
     35 C           6.9182   -5.0523   29.9521 C.ar    1  UNL1        0.1549
     36 N           6.8239   -5.9137   31.1764 N.ar    1  UNL1       -0.1683
     37 N           6.5274   -5.0242   32.3473 N.ar    1  UNL1       -0.2796
     38 H           6.4114   -5.3155   33.2805 H       1  UNL1        0.1886
@<TRIPOS>BOND
     1    32    33    1
     2    33    34   ar
     3    34    35   ar
     4    35    28    1
     5    28    29    2
     6    28    30   am
     7     1    30    1
     8     1     2    1
     9     2     3    1
    10     3     4    1
    11     3     5    1
    12     3     6    1
    13     6     7    1
    14     7     8   ar
    15     8     9   ar
    16     9    13    1
    17    13    14   ar
    18    14    15   ar
    19    15    16   ar
    20    16    17    1
    21    16    18   ar
    22    18    19   ar
    23    19    20    1
    24     9    10   ar
    25    10    21    1
    26    21    22   ar
    27    22    23   ar
    28    23    24   ar
    29    24    25    1
    30    24    26   ar
    31    26    27   ar
    32    10    11   ar
    33    11    12   ar
    34    35    36   ar
    35    36    37   ar
    36    37    33   ar
    37    12     1    1
    38    12     7   ar
    39    19    13   ar
    40    27    21   ar
    41    30    31    1
    42    37    38    1
@<TRIPOS>MOLECULE
*****
 38 42 0 0 0
SMALL
GASTEIGER

@<TRIPOS>ATOM
      1 C           6.9254   -5.0638   25.7957 C.3     1  UNL1        0.1024
      2 C           7.7674   -6.3052   25.7991 C.3     1  UNL1        0.0643
      3 C           8.3509   -6.8191   24.5164 C.3     1  UNL1        0.1368
      4 C           9.1165   -7.6908   23.5656 C.3     1  UNL1        0.0437
      5 C           8.8754   -7.8493   25.4722 C.3     1  UNL1        0.0437
      6 O           8.0923   -6.0917   23.2303 O.3     1  UNL1       -0.4676
      7 C           7.2503   -4.8504   23.2269 C.ar    1  UNL1        0.2219
      8 N           6.9917   -4.1230   21.9408 N.ar    1  UNL1       -0.2119
      9 C           6.1496   -2.8817   21.9374 C.ar    1  UNL1        0.0851
     10 C           5.5661   -2.3677   23.2201 C.ar    1  UNL1        0.0177
     11 C           5.8247   -3.0951   24.5062 C.ar    1  UNL1        0.0034
     12 C           6.6668   -4.3365   24.5096 C.ar    1  UNL1        0.0488
     13 C           5.8911   -2.1543   20.6513 C.ar    1  UNL1        0.0284
     14 C           6.7161   -0.9551   20.2889 C.ar    1  UNL1        0.0032
     15 C           6.4575   -0.2277   19.0028 C.ar    1  UNL1        0.0115
     16 C           5.3739   -0.6996   18.0791 C.ar    1  UNL1        0.0585
     17 CL          5.1153    0.0278   16.7930 Cl      1  UNL1       -0.0822
     18 C           4.5489   -1.8987   18.4415 C.ar    1  UNL1        0.0228
     19 C           4.8075   -2.6261   19.7276 C.ar    1  UNL1        0.0599
     20 CL          3.9825   -3.8253   20.0900 Cl      1  UNL1       -0.0822
     21 C           4.7241   -1.1264   23.2168 C.ar    1  UNL1        0.0015
     22 C           3.2756   -1.2037   22.8347 C.ar    1  UNL1        0.0009
     23 C           2.4336    0.0377   22.8313 C.ar    1  UNL1        0.0114
     24 C           3.0400    1.3563   23.2100 C.ar    1  UNL1        0.0577
     25 CL          2.1980    2.5977   23.2066 Cl      1  UNL1       -0.0822
     26 C           4.4885    1.4336   23.5921 C.ar    1  UNL1        0.0114
     27 C           5.3305    0.1923   23.5955 C.ar    1  UNL1        0.0009
     28 C           7.2136   -3.8276   28.0626 C.2     1  UNL1        0.2655
     29 O           8.6688   -3.6193   27.7639 O.2     1  UNL1       -0.2684
     30 N           6.3419   -4.5498   27.0784 N.am    1  UNL1       -0.2972
     31 H           5.3868   -4.6865   27.2744 H       1  UNL1        0.1500
     32 C           4.9471   -0.6746   31.6406 C.3     1  UNL1        0.0515
     33 C           5.5883   -1.8643   30.9899 C.ar    1  UNL1        0.0536
     34 C           6.0542   -1.9463   29.5665 C.ar    1  UNL1        0.0395
     35 C           6.6301   -3.3136   29.3453 C.ar    1  UNL1        0.1549
     36 N           6.5201   -4.0766   30.6320 N.ar    1  UNL1       -0.1683
     37 N           5.8763   -3.1810   31.6484 N.ar    1  UNL1       -0.2796
     38 H           5.6776   -3.4160   32.5836 H       1  UNL1        0.1886
@<TRIPOS>BOND
     1    32    33    1
     2    33    34   ar
     3    34    35   ar
     4    35    28    1
     5    28    29    2
     6    28    30   am
     7     1    30    1
     8     1     2    1
     9     2     3    1
    10     3     4    1
    11     3     5    1
    12     3     6    1
    13     6     7    1
    14     7     8   ar
    15     8     9   ar
    16     9    13    1
    17    13    14   ar
    18    14    15   ar
    19    15    16   ar
    20    16    17    1
    21    16    18   ar
    22    18    19   ar
    23    19    20    1
    24     9    10   ar
    25    10    21    1
    26    21    22   ar
    27    22    23   ar
    28    23    24   ar
    29    24    25    1
    30    24    26   ar
    31    26    27   ar
    32    10    11   ar
    33    11    12   ar
    34    35    36   ar
    35    36    37   ar
    36    37    33   ar
    37    12     1    1
    38    12     7   ar
    39    19    13   ar
    40    27    21   ar
    41    30    31    1
    42    37    38    1
@<TRIPOS>MOLECULE
*****
 38 42 0 0 0
SMALL
GASTEIGER

@<TRIPOS>ATOM
      1 C           0.0272    1.6001   25.6098 C.3     1  UNL1        0.1024
      2 C          -1.1773    2.4938   25.6284 C.3     1  UNL1        0.0643
      3 C          -1.6070    3.1996   24.3766 C.3     1  UNL1        0.1368
      4 C          -2.4016    4.0764   23.4548 C.3     1  UNL1        0.0437
      5 C          -2.6579    3.6920   25.3269 C.3     1  UNL1        0.0437
      6 O          -0.8321    3.0117   23.1061 O.3     1  UNL1       -0.4676
      7 C           0.3725    2.1181   23.0874 C.ar    1  UNL1        0.2219
      8 N           1.1474    1.9303   21.8169 N.ar    1  UNL1       -0.2119
      9 C           2.3519    1.0366   21.7982 C.ar    1  UNL1        0.0851
     10 C           2.7816    0.3308   23.0501 C.ar    1  UNL1        0.0177
     11 C           2.0067    0.5186   24.3206 C.ar    1  UNL1        0.0034
     12 C           0.8021    1.4123   24.3392 C.ar    1  UNL1        0.0488
     13 C           3.1268    0.8488   20.5277 C.ar    1  UNL1        0.0284
     14 C           4.2659    1.7685   20.2009 C.ar    1  UNL1        0.0032
     15 C           5.0408    1.5807   18.9304 C.ar    1  UNL1        0.0115
     16 C           4.6766    0.4731   17.9866 C.ar    1  UNL1        0.0585
     17 CL          5.4515    0.2852   16.7161 Cl      1  UNL1       -0.0822
     18 C           3.5376   -0.4466   18.3134 C.ar    1  UNL1        0.0228
     19 C           2.7627   -0.2588   19.5839 C.ar    1  UNL1        0.0599
     20 CL          1.6238   -1.1785   19.9106 Cl      1  UNL1       -0.0822
     21 C           3.9862   -0.5629   23.0314 C.ar    1  UNL1        0.0015
     22 C           5.3426    0.0002   23.3363 C.ar    1  UNL1        0.0009
     23 C           6.5472   -0.8935   23.3176 C.ar    1  UNL1        0.0114
     24 C           6.3954   -2.3503   22.9941 C.ar    1  UNL1        0.0577
     25 CL          7.5999   -3.2439   22.9754 Cl      1  UNL1       -0.0822
     26 C           5.0389   -2.9134   22.6891 C.ar    1  UNL1        0.0114
     27 C           3.8344   -2.0197   22.7078 C.ar    1  UNL1        0.0009
     28 C           1.4656    1.5295   27.7722 C.2     1  UNL1        0.2655
     29 O           2.0445    2.8706   27.4309 O.2     1  UNL1       -0.2684
     30 N           0.4569    0.8943   26.8617 N.am    1  UNL1       -0.2972
     31 H           0.0770    0.0141   27.0857 H       1  UNL1        0.1500
     32 C           3.1458    0.6063   32.6921 C.3     1  UNL1        0.0515
     33 C           2.6676    0.3994   31.2855 C.ar    1  UNL1        0.0536
     34 C           2.3275    1.4796   30.3020 C.ar    1  UNL1        0.0395
     35 C           1.8953    0.8237   29.0241 C.ar    1  UNL1        0.1549
     36 N           1.9683   -0.6619   29.2178 N.ar    1  UNL1       -0.1683
     37 N           2.4456   -0.9242   30.6155 N.ar    1  UNL1       -0.2796
     38 H           2.5881   -1.8096   31.0217 H       1  UNL1        0.1886
@<TRIPOS>BOND
     1    32    33    1
     2    33    34   ar
     3    34    35   ar
     4    35    28    1
     5    28    29    2
     6    28    30   am
     7     1    30    1
     8     1     2    1
     9     2     3    1
    10     3     4    1
    11     3     5    1
    12     3     6    1
    13     6     7    1
    14     7     8   ar
    15     8     9   ar
    16     9    13    1
    17    13    14   ar
    18    14    15   ar
    19    15    16   ar
    20    16    17    1
    21    16    18   ar
    22    18    19   ar
    23    19    20    1
    24     9    10   ar
    25    10    21    1
    26    21    22   ar
    27    22    23   ar
    28    23    24   ar
    29    24    25    1
    30    24    26   ar
    31    26    27   ar
    32    10    11   ar
    33    11    12   ar
    34    35    36   ar
    35    36    37   ar
    36    37    33   ar
    37    12     1    1
    38    12     7   ar
    39    19    13   ar
    40    27    21   ar
    41    30    31    1
    42    37    38    1
@<TRIPOS>MOLECULE
*****
 38 42 0 0 0
SMALL
GASTEIGER

@<TRIPOS>ATOM
      1 C           0.7220    1.9590   26.8094 C.3     1  UNL1        0.1024
      2 C          -0.5838    2.6934   26.8832 C.3     1  UNL1        0.0643
      3 C          -1.3688    2.9551   25.6322 C.3     1  UNL1        0.1368
      4 C          -2.4672    3.4394   24.7328 C.3     1  UNL1        0.0437
      5 C          -2.2711    3.5960   26.6447 C.3     1  UNL1        0.0437
      6 O          -0.8480    2.4825   24.3073 O.3     1  UNL1       -0.4676
      7 C           0.4578    1.7481   24.2334 C.ar    1  UNL1        0.2219
      8 N           0.9785    1.2754   22.9085 N.ar    1  UNL1       -0.2119
      9 C           2.2843    0.5410   22.8346 C.ar    1  UNL1        0.0851
     10 C           3.0694    0.2792   24.0857 C.ar    1  UNL1        0.0177
     11 C           2.5487    0.7519   25.4106 C.ar    1  UNL1        0.0034
     12 C           1.2428    1.4863   25.4845 C.ar    1  UNL1        0.0488
     13 C           2.8051    0.0683   21.5097 C.ar    1  UNL1        0.0284
     14 C           2.4599   -1.3050   21.0148 C.ar    1  UNL1        0.0032
     15 C           2.9806   -1.7777   19.6899 C.ar    1  UNL1        0.0115
     16 C           3.8466   -0.8770   18.8599 C.ar    1  UNL1        0.0585
     17 CL          4.3674   -1.3496   17.5350 Cl      1  UNL1       -0.0822
     18 C           4.1918    0.4963   19.3548 C.ar    1  UNL1        0.0228
     19 C           3.6711    0.9689   20.6797 C.ar    1  UNL1        0.0599
     20 CL          4.0162    2.3422   21.1746 Cl      1  UNL1       -0.0822
     21 C           4.3752   -0.4552   24.0119 C.ar    1  UNL1        0.0015
     22 C           4.4049   -1.9484   24.1514 C.ar    1  UNL1        0.0009
     23 C           5.7108   -2.6828   24.0775 C.ar    1  UNL1        0.0114
     24 C           6.9869   -1.9240   23.8641 C.ar    1  UNL1        0.0577
     25 CL          8.2927   -2.6584   23.7903 Cl      1  UNL1       -0.0822
     26 C           6.9573   -0.4308   23.7246 C.ar    1  UNL1        0.0114
     27 C           5.6515    0.3036   23.7985 C.ar    1  UNL1        0.0009
     28 C           1.1041    0.5822   28.9793 C.2     1  UNL1        0.2655
     29 O          -0.0841   -0.2710   28.6471 O.2     1  UNL1       -0.2684
     30 N           1.5071    1.6972   28.0605 N.am    1  UNL1       -0.2972
     31 H           2.2870    2.2572   28.2785 H       1  UNL1        0.1500
     32 C           4.4892   -1.5387   32.4323 C.3     1  UNL1        0.0515
     33 C           3.4451   -0.6545   31.8175 C.ar    1  UNL1        0.0536
     34 C           2.9135   -0.7590   30.4188 C.ar    1  UNL1        0.0395
     35 C           1.8891    0.3204   30.2304 C.ar    1  UNL1        0.1549
     36 N           1.7876    1.0920   31.5126 N.ar    1  UNL1       -0.1683
     37 N           2.7492    0.4895   32.4936 N.ar    1  UNL1       -0.2796
     38 H           2.8976    0.7919   33.4187 H       1  UNL1        0.1886
@<TRIPOS>BOND
     1    32    33    1
     2    33    34   ar
     3    34    35   ar
     4    35    28    1
     5    28    29    2
     6    28    30   am
     7     1    30    1
     8     1     2    1
     9     2     3    1
    10     3     4    1
    11     3     5    1
    12     3     6    1
    13     6     7    1
    14     7     8   ar
    15     8     9   ar
    16     9    13    1
    17    13    14   ar
    18    14    15   ar
    19    15    16   ar
    20    16    17    1
    21    16    18   ar
    22    18    19   ar
    23    19    20    1
    24     9    10   ar
    25    10    21    1
    26    21    22   ar
    27    22    23   ar
    28    23    24   ar
    29    24    25    1
    30    24    26   ar
    31    26    27   ar
    32    10    11   ar
    33    11    12   ar
    34    35    36   ar
    35    36    37   ar
    36    37    33   ar
    37    12     1    1
    38    12     7   ar
    39    19    13   ar
    40    27    21   ar
    41    30    31    1
    42    37    38    1
@<TRIPOS>MOLECULE
*****
 38 42 0 0 0
SMALL
GASTEIGER

@<TRIPOS>ATOM
      1 C           7.1107   -5.0345   28.4297 C.3     1  UNL1        0.1024
      2 C           8.0104   -6.2239   28.5907 C.3     1  UNL1        0.0643
      3 C           8.6819   -6.4836   29.9065 C.3     1  UNL1        0.1368
      4 C           9.5357   -7.1460   30.9468 C.3     1  UNL1        0.0437
      5 C           9.2066   -7.6433   29.1130 C.3     1  UNL1        0.0437
      6 O           8.4538   -5.5539   31.0614 O.3     1  UNL1       -0.4676
      7 C           7.5542   -4.3645   30.9003 C.ar    1  UNL1        0.2219
      8 N           7.3261   -3.4348   32.0552 N.ar    1  UNL1       -0.2119
      9 C           6.4265   -2.2454   31.8942 C.ar    1  UNL1        0.0851
     10 C           5.7549   -1.9857   30.5783 C.ar    1  UNL1        0.0177
     11 C           5.9829   -2.9154   29.4234 C.ar    1  UNL1        0.0034
     12 C           6.8826   -4.1048   29.5845 C.ar    1  UNL1        0.0488
     13 C           6.1984   -1.3157   33.0490 C.ar    1  UNL1        0.0284
     14 C           7.1299   -0.1626   33.2789 C.ar    1  UNL1        0.0032
     15 C           6.9018    0.7670   34.4337 C.ar    1  UNL1        0.0115
     16 C           5.7423    0.5436   35.3587 C.ar    1  UNL1        0.0585
     17 CL          5.5142    1.4733   36.5136 Cl      1  UNL1       -0.0822
     18 C           4.8108   -0.6094   35.1288 C.ar    1  UNL1        0.0228
     19 C           5.0389   -1.5391   33.9740 C.ar    1  UNL1        0.0599
     20 CL          4.1075   -2.6921   33.7441 Cl      1  UNL1       -0.0822
     21 C           4.8552   -0.7963   30.4173 C.ar    1  UNL1        0.0015
     22 C           5.4196    0.5137   29.9531 C.ar    1  UNL1        0.0009
     23 C           4.5199    1.7031   29.7921 C.ar    1  UNL1        0.0114
     24 C           3.0558    1.5825   30.0953 C.ar    1  UNL1        0.0577
     25 CL          2.1562    2.7719   29.9343 Cl      1  UNL1       -0.0822
     26 C           2.4914    0.2725   30.5594 C.ar    1  UNL1        0.0114
     27 C           3.3911   -0.9168   30.7204 C.ar    1  UNL1        0.0009
     28 C           7.1721   -4.0421   26.0293 C.2     1  UNL1        0.2655
     29 O           8.5766   -3.5691   26.2609 O.2     1  UNL1       -0.2684
     30 N           6.4391   -4.7747   27.1137 N.am    1  UNL1       -0.2972
     31 H           5.5172   -5.0852   26.9618 H       1  UNL1        0.1500
     32 C           3.9968   -2.0261   22.3233 C.3     1  UNL1        0.0515
     33 C           5.0410   -2.8556   23.0100 C.ar    1  UNL1        0.0536
     34 C           5.4164   -2.7771   24.4602 C.ar    1  UNL1        0.0395
     35 C           6.5005   -3.7823   24.7135 C.ar    1  UNL1        0.1549
     36 N           6.7952   -4.4822   23.4199 N.ar    1  UNL1       -0.1683
     37 N           5.8932   -3.9095   22.3671 N.ar    1  UNL1       -0.2796
     38 H           5.8653   -4.1782   21.4204 H       1  UNL1        0.1886
@<TRIPOS>BOND
     1    32    33    1
     2    33    34   ar
     3    34    35   ar
     4    35    28    1
     5    28    29    2
     6    28    30   am
     7     1    30    1
     8     1     2    1
     9     2     3    1
    10     3     4    1
    11     3     5    1
    12     3     6    1
    13     6     7    1
    14     7     8   ar
    15     8     9   ar
    16     9    13    1
    17    13    14   ar
    18    14    15   ar
    19    15    16   ar
    20    16    17    1
    21    16    18   ar
    22    18    19   ar
    23    19    20    1
    24     9    10   ar
    25    10    21    1
    26    21    22   ar
    27    22    23   ar
    28    23    24   ar
    29    24    25    1
    30    24    26   ar
    31    26    27   ar
    32    10    11   ar
    33    11    12   ar
    34    35    36   ar
    35    36    37   ar
    36    37    33   ar
    37    12     1    1
    38    12     7   ar
    39    19    13   ar
    40    27    21   ar
    41    30    31    1
    42    37    38    1
@<TRIPOS>MOLECULE
*****
 38 42 0 0 0
SMALL
GASTEIGER

@<TRIPOS>ATOM
      1 C          -4.1177    4.8684   23.3348 C.3     1  UNL1        0.1024
      2 C          -5.4585    5.4308   23.7033 C.3     1  UNL1        0.0643
      3 C          -5.9294    5.3760   25.1264 C.3     1  UNL1        0.1368
      4 C          -6.8084    5.5575   26.3282 C.3     1  UNL1        0.0437
      5 C          -7.1047    6.0562   24.4892 C.3     1  UNL1        0.0437
      6 O          -5.0594    4.7589   26.1811 O.3     1  UNL1       -0.4676
      7 C          -3.7185    4.1965   25.8126 C.ar    1  UNL1        0.2219
      8 N          -2.8485    3.5794   26.8672 N.ar    1  UNL1       -0.2119
      9 C          -1.5077    3.0170   26.4988 C.ar    1  UNL1        0.0851
     10 C          -1.0368    3.0717   25.0756 C.ar    1  UNL1        0.0177
     11 C          -1.9068    3.6888   24.0209 C.ar    1  UNL1        0.0034
     12 C          -3.2477    4.2513   24.3895 C.ar    1  UNL1        0.0488
     13 C          -0.6377    2.3999   27.5534 C.ar    1  UNL1        0.0284
     14 C          -0.7726    0.9416   27.8781 C.ar    1  UNL1        0.0032
     15 C           0.0974    0.3245   28.9327 C.ar    1  UNL1        0.0115
     16 C           1.1023    1.1656   29.6627 C.ar    1  UNL1        0.0585
     17 CL          1.9723    0.5485   30.7173 Cl      1  UNL1       -0.0822
     18 C           1.2371    2.6238   29.3380 C.ar    1  UNL1        0.0228
     19 C           0.3671    3.2409   28.2833 C.ar    1  UNL1        0.0599
     20 CL          0.5020    4.6991   27.9587 Cl      1  UNL1       -0.0822
     21 C           0.3041    2.5093   24.7071 C.ar    1  UNL1        0.0015
     22 C           1.5039    3.4077   24.6488 C.ar    1  UNL1        0.0009
     23 C           2.8448    2.8452   24.2803 C.ar    1  UNL1        0.0114
     24 C           2.9858    1.3844   23.9702 C.ar    1  UNL1        0.0577
     25 CL          4.3266    0.8220   23.6017 Cl      1  UNL1       -0.0822
     26 C           1.7860    0.4861   24.0285 C.ar    1  UNL1        0.0114
     27 C           0.4451    1.0485   24.3970 C.ar    1  UNL1        0.0009
     28 C          -3.9350    3.7818   20.9819 C.2     1  UNL1        0.2655
     29 O          -4.6941    2.5858   21.4754 O.2     1  UNL1       -0.2684
     30 N          -3.6468    4.9231   21.9117 N.am    1  UNL1       -0.2972
     31 H          -3.1486    5.7080   21.5879 H       1  UNL1        0.1500
     32 C          -0.8223    4.1554   16.7332 C.3     1  UNL1        0.0515
     33 C          -2.0334    4.0082   17.6059 C.ar    1  UNL1        0.0536
     34 C          -2.0448    4.0103   19.1058 C.ar    1  UNL1        0.0395
     35 C          -3.4641    3.8365   19.5588 C.ar    1  UNL1        0.1549
     36 N          -4.3300    3.7269   18.3389 N.ar    1  UNL1       -0.1683
     37 N          -3.4457    3.8330   17.1319 N.ar    1  UNL1       -0.2796
     38 H          -3.7406    3.7944   16.1934 H       1  UNL1        0.1886
@<TRIPOS>BOND
     1    32    33    1
     2    33    34   ar
     3    34    35   ar
     4    35    28    1
     5    28    29    2
     6    28    30   am
     7     1    30    1
     8     1     2    1
     9     2     3    1
    10     3     4    1
    11     3     5    1
    12     3     6    1
    13     6     7    1
    14     7     8   ar
    15     8     9   ar
    16     9    13    1
    17    13    14   ar
    18    14    15   ar
    19    15    16   ar
    20    16    17    1
    21    16    18   ar
    22    18    19   ar
    23    19    20    1
    24     9    10   ar
    25    10    21    1
    26    21    22   ar
    27    22    23   ar
    28    23    24   ar
    29    24    25    1
    30    24    26   ar
    31    26    27   ar
    32    10    11   ar
    33    11    12   ar
    34    35    36   ar
    35    36    37   ar
    36    37    33   ar
    37    12     1    1
    38    12     7   ar
    39    19    13   ar
    40    27    21   ar
    41    30    31    1
    42    37    38    1
@<TRIPOS>MOLECULE
*****
 38 42 0 0 0
SMALL
GASTEIGER

@<TRIPOS>ATOM
      1 C           0.7678    0.8931   21.7992 C.3     1  UNL1        0.1024
      2 C           1.7511   -0.0840   21.2262 C.3     1  UNL1        0.0643
      3 C           2.7658   -0.7367   22.1174 C.3     1  UNL1        0.1368
      4 C           3.9074   -1.6071   22.5526 C.3     1  UNL1        0.0437
      5 C           3.1308   -1.3635   20.8044 C.3     1  UNL1        0.0437
      6 O           2.7973   -0.4123   23.5816 O.3     1  UNL1       -0.4676
      7 C           1.8141    0.5649   24.1545 C.ar    1  UNL1        0.2219
      8 N           1.8456    0.8893   25.6187 N.ar    1  UNL1       -0.2119
      9 C           0.8623    1.8665   26.1917 C.ar    1  UNL1        0.0851
     10 C          -0.1525    2.5192   25.3005 C.ar    1  UNL1        0.0177
     11 C          -0.1840    2.1948   23.8363 C.ar    1  UNL1        0.0034
     12 C           0.7993    1.2176   23.2634 C.ar    1  UNL1        0.0488
     13 C           0.8938    2.1909   27.6558 C.ar    1  UNL1        0.0284
     14 C           1.7430    3.3221   28.1552 C.ar    1  UNL1        0.0032
     15 C           1.7745    3.6466   29.6194 C.ar    1  UNL1        0.0115
     16 C           0.9568    2.8398   30.5841 C.ar    1  UNL1        0.0585
     17 CL          0.9883    3.1643   32.0483 Cl      1  UNL1       -0.0822
     18 C           0.1077    1.7087   30.0847 C.ar    1  UNL1        0.0228
     19 C           0.0762    1.3843   28.6205 C.ar    1  UNL1        0.0599
     20 CL         -0.7730    0.2531   28.1211 Cl      1  UNL1       -0.0822
     21 C          -1.1358    3.4964   25.8735 C.ar    1  UNL1        0.0015
     22 C          -2.5086    3.0363   26.2657 C.ar    1  UNL1        0.0009
     23 C          -3.4918    4.0135   26.8387 C.ar    1  UNL1        0.0114
     24 C          -3.1023    5.4507   27.0194 C.ar    1  UNL1        0.0577
     25 CL         -4.0856    6.4279   27.5924 Cl      1  UNL1       -0.0822
     26 C          -1.7295    5.9108   26.6272 C.ar    1  UNL1        0.0114
     27 C          -0.7463    4.9336   26.0543 C.ar    1  UNL1        0.0009
     28 C           0.1337    2.7438   20.0896 C.2     1  UNL1        0.2655
     29 O           1.5293    3.2891   20.1623 O.2     1  UNL1       -0.2684
     30 N          -0.2470    1.5458   20.9080 N.am    1  UNL1       -0.2972
     31 H          -1.1629    1.1880   20.8603 H       1  UNL1        0.1500
     32 C          -4.2790    5.0816   18.3741 C.3     1  UNL1        0.0515
     33 C          -2.9094    4.4712   18.4099 C.ar    1  UNL1        0.0536
     34 C          -2.2328    3.8937   19.6177 C.ar    1  UNL1        0.0395
     35 C          -0.8810    3.3966   19.1984 C.ar    1  UNL1        0.1549
     36 N          -0.7222    3.6669   17.7316 N.ar    1  UNL1       -0.1683
     37 N          -1.9758    4.3310   17.2442 N.ar    1  UNL1       -0.2796
     38 H          -2.1544    4.6235   16.3213 H       1  UNL1        0.1886
@<TRIPOS>BOND
     1    32    33    1
     2    33    34   ar
     3    34    35   ar
     4    35    28    1
     5    28    29    2
     6    28    30   am
     7     1    30    1
     8     1     2    1
     9     2     3    1
    10     3     4    1
    11     3     5    1
    12     3     6    1
    13     6     7    1
    14     7     8   ar
    15     8     9   ar
    16     9    13    1
    17    13    14   ar
    18    14    15   ar
    19    15    16   ar
    20    16    17    1
    21    16    18   ar
    22    18    19   ar
    23    19    20    1
    24     9    10   ar
    25    10    21    1
    26    21    22   ar
    27    22    23   ar
    28    23    24   ar
    29    24    25    1
    30    24    26   ar
    31    26    27   ar
    32    10    11   ar
    33    11    12   ar
    34    35    36   ar
    35    36    37   ar
    36    37    33   ar
    37    12     1    1
    38    12     7   ar
    39    19    13   ar
    40    27    21   ar
    41    30    31    1
    42    37    38    1
@<TRIPOS>MOLECULE
*****
 38 42 0 0 0
SMALL
GASTEIGER

@<TRIPOS>ATOM
      1 C           7.9151   -4.7999   28.0943 C.3     1  UNL1        0.1024
      2 C           8.6072   -6.0886   28.4263 C.3     1  UNL1        0.0643
      3 C           8.8563   -7.1047   27.3514 C.3     1  UNL1        0.1368
      4 C           9.3146   -8.3678   26.6847 C.3     1  UNL1        0.0437
      5 C           9.4584   -7.8160   28.5268 C.3     1  UNL1        0.0437
      6 O           8.4134   -6.8321   25.9445 O.3     1  UNL1       -0.4676
      7 C           7.7213   -5.5434   25.6125 C.ar    1  UNL1        0.2219
      8 N           7.2783   -5.2708   24.2055 N.ar    1  UNL1       -0.2119
      9 C           6.5862   -3.9821   23.8735 C.ar    1  UNL1        0.0851
     10 C           6.3370   -2.9660   24.9485 C.ar    1  UNL1        0.0177
     11 C           6.7800   -3.2386   26.3554 C.ar    1  UNL1        0.0034
     12 C           7.4721   -4.5273   26.6874 C.ar    1  UNL1        0.0488
     13 C           6.1433   -3.7095   22.4666 C.ar    1  UNL1        0.0284
     14 C           4.7229   -3.9736   22.0630 C.ar    1  UNL1        0.0032
     15 C           4.2799   -3.7010   20.6560 C.ar    1  UNL1        0.0115
     16 C           5.2574   -3.1643   19.6527 C.ar    1  UNL1        0.0585
     17 CL          4.8144   -2.8917   18.2457 Cl      1  UNL1       -0.0822
     18 C           6.6777   -2.9001   20.0563 C.ar    1  UNL1        0.0228
     19 C           7.1206   -3.1728   21.4633 C.ar    1  UNL1        0.0599
     20 CL          8.5409   -2.9086   21.8669 Cl      1  UNL1       -0.0822
     21 C           5.6449   -1.6773   24.6164 C.ar    1  UNL1        0.0015
     22 C           6.4355   -0.5140   24.0951 C.ar    1  UNL1        0.0009
     23 C           5.7433    0.7747   23.7631 C.ar    1  UNL1        0.0114
     24 C           4.2607    0.9001   23.9524 C.ar    1  UNL1        0.0577
     25 CL          3.5686    2.1888   23.6204 Cl      1  UNL1       -0.0822
     26 C           3.4701   -0.2632   24.4737 C.ar    1  UNL1        0.0114
     27 C           4.1622   -1.5518   24.8058 C.ar    1  UNL1        0.0009
     28 C           7.0565   -4.2057   30.4734 C.2     1  UNL1        0.2655
     29 O           6.6963   -5.6437   30.7025 O.2     1  UNL1       -0.2684
     30 N           7.6659   -3.7838   29.1693 N.am    1  UNL1       -0.2972
     31 H           7.9023   -2.8400   29.0189 H       1  UNL1        0.1500
     32 C           4.6428   -1.2131   34.0927 C.3     1  UNL1        0.0515
     33 C           5.6978   -1.8141   33.2119 C.ar    1  UNL1        0.0536
     34 C           5.4862   -2.8966   32.1954 C.ar    1  UNL1        0.0395
     35 C           6.8073   -3.1896   31.5483 C.ar    1  UNL1        0.1549
     36 N           7.8355   -2.2882   32.1648 N.ar    1  UNL1       -0.1683
     37 N           7.1499   -1.4380   33.1930 N.ar    1  UNL1       -0.2796
     38 H           7.5777   -0.7534   33.7565 H       1  UNL1        0.1886
@<TRIPOS>BOND
     1    32    33    1
     2    33    34   ar
     3    34    35   ar
     4    35    28    1
     5    28    29    2
     6    28    30   am
     7     1    30    1
     8     1     2    1
     9     2     3    1
    10     3     4    1
    11     3     5    1
    12     3     6    1
    13     6     7    1
    14     7     8   ar
    15     8     9   ar
    16     9    13    1
    17    13    14   ar
    18    14    15   ar
    19    15    16   ar
    20    16    17    1
    21    16    18   ar
    22    18    19   ar
    23    19    20    1
    24     9    10   ar
    25    10    21    1
    26    21    22   ar
    27    22    23   ar
    28    23    24   ar
    29    24    25    1
    30    24    26   ar
    31    26    27   ar
    32    10    11   ar
    33    11    12   ar
    34    35    36   ar
    35    36    37   ar
    36    37    33   ar
    37    12     1    1
    38    12     7   ar
    39    19    13   ar
    40    27    21   ar
    41    30    31    1
    42    37    38    1
@<TRIPOS>MOLECULE
*****
 38 42 0 0 0
SMALL
GASTEIGER

@<TRIPOS>ATOM
      1 C           6.6750   -4.7973   26.3881 C.3     1  UNL1        0.1024
      2 C           7.3284   -6.1435   26.2853 C.3     1  UNL1        0.0643
      3 C           7.8294   -6.8302   27.5212 C.3     1  UNL1        0.1368
      4 C           8.4594   -7.8716   28.3979 C.3     1  UNL1        0.0437
      5 C           8.2006   -7.8515   26.4871 C.3     1  UNL1        0.0437
      6 O           7.6770   -6.1707   28.8598 O.3     1  UNL1       -0.4676
      7 C           7.0236   -4.8245   28.9625 C.ar    1  UNL1        0.2219
      8 N           6.8712   -4.1650   30.3011 N.ar    1  UNL1       -0.2119
      9 C           6.2178   -2.8187   30.4039 C.ar    1  UNL1        0.0851
     10 C           5.7167   -2.1319   29.1680 C.ar    1  UNL1        0.0177
     11 C           5.8691   -2.7914   27.8294 C.ar    1  UNL1        0.0034
     12 C           6.5226   -4.1378   27.7267 C.ar    1  UNL1        0.0488
     13 C           6.0654   -2.1592   31.7425 C.ar    1  UNL1        0.0284
     14 C           4.8094   -2.3584   32.5381 C.ar    1  UNL1        0.0032
     15 C           4.6570   -1.6989   33.8767 C.ar    1  UNL1        0.0115
     16 C           5.7606   -0.8402   34.4197 C.ar    1  UNL1        0.0585
     17 CL          5.6082   -0.1807   35.7583 Cl      1  UNL1       -0.0822
     18 C           7.0165   -0.6411   33.6241 C.ar    1  UNL1        0.0228
     19 C           7.1689   -1.3006   32.2855 C.ar    1  UNL1        0.0599
     20 CL          8.4248   -1.1014   31.4899 Cl      1  UNL1       -0.0822
     21 C           5.0633   -0.7857   29.2708 C.ar    1  UNL1        0.0015
     22 C           3.5723   -0.6835   29.3996 C.ar    1  UNL1        0.0009
     23 C           2.9189    0.6628   29.5024 C.ar    1  UNL1        0.0114
     24 C           3.7564    1.9069   29.4763 C.ar    1  UNL1        0.0577
     25 CL          3.1030    3.2531   29.5791 Cl      1  UNL1       -0.0822
     26 C           5.2474    1.8047   29.3475 C.ar    1  UNL1        0.0114
     27 C           5.9008    0.4585   29.2448 C.ar    1  UNL1        0.0009
     28 C           7.1413   -3.4407   24.2219 C.2     1  UNL1        0.2655
     29 O           8.6098   -3.4578   24.5274 O.2     1  UNL1       -0.2684
     30 N           6.1739   -4.1104   25.1522 N.am    1  UNL1       -0.2972
     31 H           5.2101   -4.0992   24.9518 H       1  UNL1        0.1500
     32 C           4.2717   -2.2475   19.9532 C.3     1  UNL1        0.0515
     33 C           5.3213   -2.2055   21.0240 C.ar    1  UNL1        0.0536
     34 C           5.4590   -3.1728   22.1620 C.ar    1  UNL1        0.0395
     35 C           6.6403   -2.7539   22.9861 C.ar    1  UNL1        0.1549
     36 N           7.2326   -1.5276   22.3574 N.ar    1  UNL1       -0.1683
     37 N           6.4175   -1.1886   21.1447 N.ar    1  UNL1       -0.2796
     38 H           6.5743   -0.4317   20.5351 H       1  UNL1        0.1886
@<TRIPOS>BOND
     1    32    33    1
     2    33    34   ar
     3    34    35   ar
     4    35    28    1
     5    28    29    2
     6    28    30   am
     7     1    30    1
     8     1     2    1
     9     2     3    1
    10     3     4    1
    11     3     5    1
    12     3     6    1
    13     6     7    1
    14     7     8   ar
    15     8     9   ar
    16     9    13    1
    17    13    14   ar
    18    14    15   ar
    19    15    16   ar
    20    16    17    1
    21    16    18   ar
    22    18    19   ar
    23    19    20    1
    24     9    10   ar
    25    10    21    1
    26    21    22   ar
    27    22    23   ar
    28    23    24   ar
    29    24    25    1
    30    24    26   ar
    31    26    27   ar
    32    10    11   ar
    33    11    12   ar
    34    35    36   ar
    35    36    37   ar
    36    37    33   ar
    37    12     1    1
    38    12     7   ar
    39    19    13   ar
    40    27    21   ar
    41    30    31    1
    42    37    38    1
