@<TRIPOS>MOLECULE
*****
 21 23 0 0 0
SMALL
GASTEIGER

@<TRIPOS>ATOM
      1 C          -5.0916  -18.9538   21.4325 C.3     1  UNL1        0.0831
      2 C          -6.1351  -19.8611   20.8513 C.3     1  UNL1        0.0423
      3 C          -7.5739  -19.6967   21.2421 C.3     1  UNL1        0.0973
      4 N          -7.9693  -18.6250   22.2142 N.pl3   1  UNL1       -0.2870
      5 C          -6.9258  -17.7175   22.7954 C.ar    1  UNL1        0.0488
      6 C          -7.3211  -16.6458   23.7675 C.ar    1  UNL1        0.0146
      7 C          -6.2777  -15.7384   24.3487 C.ar    1  UNL1        0.0013
      8 C          -4.8388  -15.9028   23.9579 C.ar    1  UNL1       -0.0002
      9 C          -4.4435  -16.9746   22.9858 C.ar    1  UNL1       -0.0017
     10 C          -5.4870  -17.8820   22.4046 C.ar    1  UNL1        0.0059
     11 C          -9.4081  -18.4605   22.6050 C.ar    1  UNL1        0.0525
     12 C          -9.9284  -19.1226   23.8463 C.ar    1  UNL1        0.0157
     13 C         -11.3672  -18.9582   24.2372 C.ar    1  UNL1        0.0135
     14 C         -12.2857  -18.1317   23.3867 C.ar    1  UNL1        0.0683
     15 CL        -13.7245  -17.9673   23.7776 Cl      1  UNL1       -0.0814
     16 C         -11.7654  -17.4696   22.1454 C.ar    1  UNL1        0.0694
     17 CL        -12.6838  -16.6431   21.2949 Cl      1  UNL1       -0.0813
     18 C         -10.3266  -17.6340   21.7545 C.ar    1  UNL1        0.0271
     19 C          -3.1660  -18.5801   19.7288 C.3     1  UNL1        0.0899
     20 N          -3.6528  -19.1182   21.0416 N.3     1  UNL1       -0.2678
     21 C          -2.7007  -19.8208   21.9636 C.3     1  UNL1        0.0899
@<TRIPOS>BOND
     1    19    20    1
     2    20    21    1
     3     1    20    1
     4     1     2    1
     5     2     3    1
     6     3     4    1
     7     4    11    1
     8    11    12   ar
     9    12    13   ar
    10    13    14   ar
    11    14    15    1
    12    14    16   ar
    13    16    17    1
    14    16    18   ar
    15     4     5    1
    16     5     6   ar
    17     6     7   ar
    18     7     8   ar
    19     8     9   ar
    20     9    10   ar
    21    10     1    1
    22    18    11   ar
    23    10     5   ar
@<TRIPOS>MOLECULE
*****
 21 23 0 0 0
SMALL
GASTEIGER

@<TRIPOS>ATOM
      1 C          -4.4548  -17.3176   22.7904 C.3     1  UNL1        0.0831
      2 C          -5.2057  -16.3518   23.6584 C.3     1  UNL1        0.0423
      3 C          -6.6984  -16.4484   23.7706 C.3     1  UNL1        0.0973
      4 N          -7.4402  -17.5107   23.0149 N.pl3   1  UNL1       -0.2870
      5 C          -6.6893  -18.4765   22.1468 C.ar    1  UNL1        0.0488
      6 C          -7.4311  -19.5388   21.3911 C.ar    1  UNL1        0.0146
      7 C          -6.6803  -20.5045   20.5231 C.ar    1  UNL1        0.0013
      8 C          -5.1876  -20.4080   20.4109 C.ar    1  UNL1       -0.0002
      9 C          -4.4458  -19.3457   21.1666 C.ar    1  UNL1       -0.0017
     10 C          -5.1966  -18.3800   22.0346 C.ar    1  UNL1        0.0059
     11 C          -8.9328  -17.6072   23.1271 C.ar    1  UNL1        0.0525
     12 C          -9.5513  -18.4236   24.2230 C.ar    1  UNL1        0.0157
     13 C         -11.0440  -18.5201   24.3352 C.ar    1  UNL1        0.0135
     14 C         -11.9182  -17.8002   23.3516 C.ar    1  UNL1        0.0683
     15 CL        -13.4109  -17.8968   23.4639 Cl      1  UNL1       -0.0814
     16 C         -11.2997  -16.9838   22.2557 C.ar    1  UNL1        0.0694
     17 CL        -12.1739  -16.2639   21.2721 Cl      1  UNL1       -0.0813
     18 C          -9.8071  -16.8872   22.1435 C.ar    1  UNL1        0.0271
     19 C          -2.0912  -18.2229   23.3764 C.3     1  UNL1        0.0899
     20 N          -2.9621  -17.2211   22.6782 N.3     1  UNL1       -0.2678
     21 C          -2.3404  -16.1226   21.8676 C.3     1  UNL1        0.0899
@<TRIPOS>BOND
     1    19    20    1
     2    20    21    1
     3     1    20    1
     4     1     2    1
     5     2     3    1
     6     3     4    1
     7     4    11    1
     8    11    12   ar
     9    12    13   ar
    10    13    14   ar
    11    14    15    1
    12    14    16   ar
    13    16    17    1
    14    16    18   ar
    15     4     5    1
    16     5     6   ar
    17     6     7   ar
    18     7     8   ar
    19     8     9   ar
    20     9    10   ar
    21    10     1    1
    22    18    11   ar
    23    10     5   ar
@<TRIPOS>MOLECULE
*****
 21 23 0 0 0
SMALL
GASTEIGER

@<TRIPOS>ATOM
      1 C         -10.0704  -18.3253   22.9413 C.3     1  UNL1        0.0831
      2 C          -9.6618  -19.4325   22.0155 C.3     1  UNL1        0.0423
      3 C          -8.2355  -19.5455   21.5649 C.3     1  UNL1        0.0973
      4 N          -7.2178  -18.5514   22.0402 N.pl3   1  UNL1       -0.2870
      5 C          -7.6264  -17.4442   22.9661 C.ar    1  UNL1        0.0488
      6 C          -6.6087  -16.4501   23.4414 C.ar    1  UNL1        0.0146
      7 C          -7.0173  -15.3429   24.3673 C.ar    1  UNL1        0.0013
      8 C          -8.4435  -15.2299   24.8178 C.ar    1  UNL1       -0.0002
      9 C          -9.4612  -16.2240   24.3425 C.ar    1  UNL1       -0.0017
     10 C          -9.0527  -17.3311   23.4167 C.ar    1  UNL1        0.0059
     11 C          -5.7916  -18.6645   21.5897 C.ar    1  UNL1        0.0525
     12 C          -5.4795  -19.1175   20.1943 C.ar    1  UNL1        0.0157
     13 C          -4.0532  -19.2305   19.7437 C.ar    1  UNL1        0.0135
     14 C          -2.9390  -18.8905   20.6887 C.ar    1  UNL1        0.0683
     15 CL         -1.5128  -19.0036   20.2381 Cl      1  UNL1       -0.0814
     16 C          -3.2511  -18.4375   22.0842 C.ar    1  UNL1        0.0694
     17 CL         -2.1369  -18.0975   23.0291 Cl      1  UNL1       -0.0813
     18 C          -4.6773  -18.3245   22.5347 C.ar    1  UNL1        0.0271
     19 C         -12.4872  -17.4508   22.5619 C.3     1  UNL1        0.0899
     20 N         -11.4967  -18.2123   23.3918 N.3     1  UNL1       -0.2678
     21 C         -11.9323  -18.8608   24.6724 C.3     1  UNL1        0.0899
@<TRIPOS>BOND
     1    19    20    1
     2    20    21    1
     3     1    20    1
     4     1     2    1
     5     2     3    1
     6     3     4    1
     7     4    11    1
     8    11    12   ar
     9    12    13   ar
    10    13    14   ar
    11    14    15    1
    12    14    16   ar
    13    16    17    1
    14    16    18   ar
    15     4     5    1
    16     5     6   ar
    17     6     7   ar
    18     7     8   ar
    19     8     9   ar
    20     9    10   ar
    21    10     1    1
    22    18    11   ar
    23    10     5   ar
@<TRIPOS>MOLECULE
*****
 21 23 0 0 0
SMALL
GASTEIGER

@<TRIPOS>ATOM
      1 C         -10.4972  -17.4164   22.8156 C.3     1  UNL1        0.0831
      2 C          -9.5413  -16.8981   23.8489 C.3     1  UNL1        0.0423
      3 C          -8.0699  -17.1507   23.7032 C.3     1  UNL1        0.0973
      4 N          -7.5544  -17.9216   22.5242 N.pl3   1  UNL1       -0.2870
      5 C          -8.5103  -18.4399   21.4909 C.ar    1  UNL1        0.0488
      6 C          -7.9948  -19.2108   20.3119 C.ar    1  UNL1        0.0146
      7 C          -8.9507  -19.7290   19.2787 C.ar    1  UNL1        0.0013
      8 C         -10.4221  -19.4764   19.4244 C.ar    1  UNL1       -0.0002
      9 C         -10.9376  -18.7055   20.6033 C.ar    1  UNL1       -0.0017
     10 C          -9.9817  -18.1873   21.6366 C.ar    1  UNL1        0.0059
     11 C          -6.0830  -18.1742   22.3785 C.ar    1  UNL1        0.0525
     12 C          -5.1028  -17.3940   23.2034 C.ar    1  UNL1        0.0157
     13 C          -3.6314  -17.6466   23.0577 C.ar    1  UNL1        0.0135
     14 C          -3.1403  -18.6795   22.0871 C.ar    1  UNL1        0.0683
     15 CL         -1.6689  -18.9321   21.9414 Cl      1  UNL1       -0.0814
     16 C          -4.1205  -19.4597   21.2622 C.ar    1  UNL1        0.0694
     17 CL         -3.6294  -20.4926   20.2917 Cl      1  UNL1       -0.0813
     18 C          -5.5919  -19.2071   21.4079 C.ar    1  UNL1        0.0271
     19 C         -12.8369  -18.1694   23.6574 C.3     1  UNL1        0.0899
     20 N         -11.9686  -17.1637   22.9613 N.3     1  UNL1       -0.2678
     21 C         -12.5716  -15.9054   22.4109 C.3     1  UNL1        0.0899
@<TRIPOS>BOND
     1    19    20    1
     2    20    21    1
     3     1    20    1
     4     1     2    1
     5     2     3    1
     6     3     4    1
     7     4    11    1
     8    11    12   ar
     9    12    13   ar
    10    13    14   ar
    11    14    15    1
    12    14    16   ar
    13    16    17    1
    14    16    18   ar
    15     4     5    1
    16     5     6   ar
    17     6     7   ar
    18     7     8   ar
    19     8     9   ar
    20     9    10   ar
    21    10     1    1
    22    18    11   ar
    23    10     5   ar
@<TRIPOS>MOLECULE
*****
 21 23 0 0 0
SMALL
GASTEIGER

@<TRIPOS>ATOM
      1 C         -10.4972  -17.7796   22.0215 C.3     1  UNL1        0.0831
      2 C         -10.0379  -18.8056   21.0284 C.3     1  UNL1        0.0423
      3 C          -8.5803  -19.1412   20.9164 C.3     1  UNL1        0.0973
      4 N          -7.5818  -18.4508   21.7975 N.pl3   1  UNL1       -0.2870
      5 C          -8.0411  -17.4247   22.7907 C.ar    1  UNL1        0.0488
      6 C          -7.0427  -16.7342   23.6718 C.ar    1  UNL1        0.0146
      7 C          -7.5020  -15.7082   24.6649 C.ar    1  UNL1        0.0013
      8 C          -8.9596  -15.3726   24.7769 C.ar    1  UNL1       -0.0002
      9 C          -9.9581  -16.0631   23.8958 C.ar    1  UNL1       -0.0017
     10 C          -9.4988  -17.0891   22.9027 C.ar    1  UNL1        0.0059
     11 C          -6.1242  -18.7863   21.6856 C.ar    1  UNL1        0.0525
     12 C          -5.1569  -18.2804   22.7143 C.ar    1  UNL1        0.0157
     13 C          -3.6992  -18.6160   22.6023 C.ar    1  UNL1        0.0135
     14 C          -3.2088  -19.4575   21.4616 C.ar    1  UNL1        0.0683
     15 CL         -1.7511  -19.7931   21.3496 Cl      1  UNL1       -0.0814
     16 C          -4.1761  -19.9635   20.4327 C.ar    1  UNL1        0.0694
     17 CL         -3.6857  -20.8050   19.2920 Cl      1  UNL1       -0.0813
     18 C          -5.6338  -19.6279   20.5447 C.ar    1  UNL1        0.0271
     19 C         -12.5816  -16.4893   21.1611 C.3     1  UNL1        0.0899
     20 N         -11.9549  -17.4440   22.1335 N.3     1  UNL1       -0.2678
     21 C         -12.7859  -18.0633   23.2180 C.3     1  UNL1        0.0899
@<TRIPOS>BOND
     1    19    20    1
     2    20    21    1
     3     1    20    1
     4     1     2    1
     5     2     3    1
     6     3     4    1
     7     4    11    1
     8    11    12   ar
     9    12    13   ar
    10    13    14   ar
    11    14    15    1
    12    14    16   ar
    13    16    17    1
    14    16    18   ar
    15     4     5    1
    16     5     6   ar
    17     6     7   ar
    18     7     8   ar
    19     8     9   ar
    20     9    10   ar
    21    10     1    1
    22    18    11   ar
    23    10     5   ar
@<TRIPOS>MOLECULE
*****
 21 23 0 0 0
SMALL
GASTEIGER

@<TRIPOS>ATOM
      1 C          -9.0818  -18.8070   21.8198 C.3     1  UNL1        0.0831
      2 C          -8.5097  -19.7158   20.7726 C.3     1  UNL1        0.0423
      3 C          -7.0346  -19.7115   20.5004 C.3     1  UNL1        0.0973
      4 N          -6.1316  -18.7983   21.2754 N.pl3   1  UNL1       -0.2870
      5 C          -6.7037  -17.8894   22.3227 C.ar    1  UNL1        0.0488
      6 C          -5.8007  -16.9763   23.0977 C.ar    1  UNL1        0.0146
      7 C          -6.3727  -16.0675   24.1449 C.ar    1  UNL1        0.0013
      8 C          -7.8478  -16.0718   24.4171 C.ar    1  UNL1       -0.0002
      9 C          -8.7508  -16.9850   23.6421 C.ar    1  UNL1       -0.0017
     10 C          -8.1788  -17.8938   22.5949 C.ar    1  UNL1        0.0059
     11 C          -4.6565  -18.7940   21.0032 C.ar    1  UNL1        0.0525
     12 C          -3.7056  -19.3624   22.0144 C.ar    1  UNL1        0.0157
     13 C          -2.2305  -19.3581   21.7421 C.ar    1  UNL1        0.0135
     14 C          -1.7063  -18.7853   20.4587 C.ar    1  UNL1        0.0683
     15 CL         -0.2313  -18.7810   20.1865 Cl      1  UNL1       -0.0814
     16 C          -2.6573  -18.2169   19.4474 C.ar    1  UNL1        0.0694
     17 CL         -2.1332  -17.6442   18.1640 Cl      1  UNL1       -0.0813
     18 C          -4.1324  -18.2212   19.7197 C.ar    1  UNL1        0.0271
     19 C         -11.1152  -19.6732   23.1853 C.3     1  UNL1        0.0899
     20 N         -10.5569  -18.8113   22.0920 N.3     1  UNL1       -0.2678
     21 C         -11.4736  -17.9537   21.2709 C.3     1  UNL1        0.0899
@<TRIPOS>BOND
     1    19    20    1
     2    20    21    1
     3     1    20    1
     4     1     2    1
     5     2     3    1
     6     3     4    1
     7     4    11    1
     8    11    12   ar
     9    12    13   ar
    10    13    14   ar
    11    14    15    1
    12    14    16   ar
    13    16    17    1
    14    16    18   ar
    15     4     5    1
    16     5     6   ar
    17     6     7   ar
    18     7     8   ar
    19     8     9   ar
    20     9    10   ar
    21    10     1    1
    22    18    11   ar
    23    10     5   ar
@<TRIPOS>MOLECULE
*****
 21 23 0 0 0
SMALL
GASTEIGER

@<TRIPOS>ATOM
      1 C           7.4019   -4.4475   26.7793 C.3     1  UNL1        0.0831
      2 C           6.6995   -3.1875   26.3685 C.3     1  UNL1        0.0423
      3 C           6.4443   -2.9104   24.9165 C.3     1  UNL1        0.0973
      4 N           6.8916   -3.8932   23.8755 N.pl3   1  UNL1       -0.2870
      5 C           7.5941   -5.1534   24.2863 C.ar    1  UNL1        0.0488
      6 C           8.0414   -6.1362   23.2453 C.ar    1  UNL1        0.0146
      7 C           8.7438   -7.3963   23.6561 C.ar    1  UNL1        0.0013
      8 C           8.9990   -7.6734   25.1080 C.ar    1  UNL1       -0.0002
      9 C           8.5517   -6.6905   26.1491 C.ar    1  UNL1       -0.0017
     10 C           7.8492   -5.4305   25.7382 C.ar    1  UNL1        0.0059
     11 C           6.6364   -3.6161   22.4236 C.ar    1  UNL1        0.0525
     12 C           7.7225   -3.0325   21.5693 C.ar    1  UNL1        0.0157
     13 C           7.4673   -2.7554   20.1173 C.ar    1  UNL1        0.0135
     14 C           6.1261   -3.0618   19.5197 C.ar    1  UNL1        0.0683
     15 CL          5.8709   -2.7846   18.0678 Cl      1  UNL1       -0.0814
     16 C           5.0400   -3.6454   20.3740 C.ar    1  UNL1        0.0694
     17 CL          3.6987   -3.9518   19.7764 Cl      1  UNL1       -0.0813
     18 C           5.2951   -3.9225   21.8260 C.ar    1  UNL1        0.0271
     19 C           8.9483   -4.2939   28.8614 C.3     1  UNL1        0.0899
     20 N           7.6571   -4.7247   28.2312 N.3     1  UNL1       -0.2678
     21 C           6.6210   -5.4327   29.0530 C.3     1  UNL1        0.0899
@<TRIPOS>BOND
     1    19    20    1
     2    20    21    1
     3     1    20    1
     4     1     2    1
     5     2     3    1
     6     3     4    1
     7     4    11    1
     8    11    12   ar
     9    12    13   ar
    10    13    14   ar
    11    14    15    1
    12    14    16   ar
    13    16    17    1
    14    16    18   ar
    15     4     5    1
    16     5     6   ar
    17     6     7   ar
    18     7     8   ar
    19     8     9   ar
    20     9    10   ar
    21    10     1    1
    22    18    11   ar
    23    10     5   ar
@<TRIPOS>MOLECULE
*****
 21 23 0 0 0
SMALL
GASTEIGER

@<TRIPOS>ATOM
      1 C           6.9731   -2.1943   20.3961 C.3     1  UNL1        0.0831
      2 C           6.9253   -0.7774   20.8860 C.3     1  UNL1        0.0423
      3 C           5.6227   -0.0338   20.9046 C.3     1  UNL1        0.0973
      4 N           4.3680   -0.7071   20.4333 N.pl3   1  UNL1       -0.2870
      5 C           4.4157   -2.1240   19.9433 C.ar    1  UNL1        0.0488
      6 C           3.1609   -2.7973   19.4720 C.ar    1  UNL1        0.0146
      7 C           3.2087   -4.2142   18.9821 C.ar    1  UNL1        0.0013
      8 C           4.5113   -4.9578   18.9635 C.ar    1  UNL1       -0.0002
      9 C           5.7661   -4.2846   19.4348 C.ar    1  UNL1       -0.0017
     10 C           5.7183   -2.8677   19.9247 C.ar    1  UNL1        0.0059
     11 C           3.0654    0.0366   20.4519 C.ar    1  UNL1        0.0525
     12 C           2.1072   -0.1573   21.5895 C.ar    1  UNL1        0.0157
     13 C           0.8047    0.5863   21.6081 C.ar    1  UNL1        0.0135
     14 C           0.4602    1.5238   20.4890 C.ar    1  UNL1        0.0683
     15 CL         -0.8423    2.2674   20.5076 Cl      1  UNL1       -0.0814
     16 C           1.4184    1.7177   19.3513 C.ar    1  UNL1        0.0694
     17 CL          1.0740    2.6553   18.2322 Cl      1  UNL1       -0.0813
     18 C           2.7210    0.9741   19.3327 C.ar    1  UNL1        0.0271
     19 C           9.2082   -2.7882   19.2122 C.3     1  UNL1        0.0899
     20 N           8.2757   -2.9379   20.3775 N.3     1  UNL1       -0.2678
     21 C           8.6457   -3.8313   21.5243 C.3     1  UNL1        0.0899
@<TRIPOS>BOND
     1    19    20    1
     2    20    21    1
     3     1    20    1
     4     1     2    1
     5     2     3    1
     6     3     4    1
     7     4    11    1
     8    11    12   ar
     9    12    13   ar
    10    13    14   ar
    11    14    15    1
    12    14    16   ar
    13    16    17    1
    14    16    18   ar
    15     4     5    1
    16     5     6   ar
    17     6     7   ar
    18     7     8   ar
    19     8     9   ar
    20     9    10   ar
    21    10     1    1
    22    18    11   ar
    23    10     5   ar
@<TRIPOS>MOLECULE
*****
 21 23 0 0 0
SMALL
GASTEIGER

@<TRIPOS>ATOM
      1 C          -2.6016    3.8613   22.7436 C.3     1  UNL1        0.0831
      2 C          -1.2085    3.3057   22.7688 C.3     1  UNL1        0.0423
      3 C          -0.5714    2.9376   24.0759 C.3     1  UNL1        0.0973
      4 N          -1.3273    3.1252   25.3579 N.pl3   1  UNL1       -0.2870
      5 C          -2.7204    3.6808   25.3327 C.ar    1  UNL1        0.0488
      6 C          -3.4763    3.8683   26.6146 C.ar    1  UNL1        0.0146
      7 C          -4.8694    4.4239   26.5895 C.ar    1  UNL1        0.0013
      8 C          -5.5065    4.7919   25.2823 C.ar    1  UNL1       -0.0002
      9 C          -4.7506    4.6044   24.0004 C.ar    1  UNL1       -0.0017
     10 C          -3.3576    4.0488   24.0256 C.ar    1  UNL1        0.0059
     11 C          -0.6901    2.7571   26.6650 C.ar    1  UNL1        0.0525
     12 C           0.0970    3.7795   27.4299 C.ar    1  UNL1        0.0157
     13 C           0.7341    3.4115   28.7370 C.ar    1  UNL1        0.0135
     14 C           0.5842    2.0210   29.2792 C.ar    1  UNL1        0.0683
     15 CL          1.2213    1.6530   30.5863 Cl      1  UNL1       -0.0814
     16 C          -0.2029    0.9985   28.5143 C.ar    1  UNL1        0.0694
     17 CL         -0.3529   -0.3920   29.0565 Cl      1  UNL1       -0.0813
     18 C          -0.8401    1.3665   27.2072 C.ar    1  UNL1        0.0271
     19 C          -4.0476    3.2145   20.6843 C.3     1  UNL1        0.0899
     20 N          -3.2387    4.2293   21.4365 N.3     1  UNL1       -0.2678
     21 C          -3.0670    5.6123   20.8815 C.3     1  UNL1        0.0899
@<TRIPOS>BOND
     1    19    20    1
     2    20    21    1
     3     1    20    1
     4     1     2    1
     5     2     3    1
     6     3     4    1
     7     4    11    1
     8    11    12   ar
     9    12    13   ar
    10    13    14   ar
    11    14    15    1
    12    14    16   ar
    13    16    17    1
    14    16    18   ar
    15     4     5    1
    16     5     6   ar
    17     6     7   ar
    18     7     8   ar
    19     8     9   ar
    20     9    10   ar
    21    10     1    1
    22    18    11   ar
    23    10     5   ar
