@<TRIPOS>MOLECULE
*****
 36 39 0 0 0
SMALL
GASTEIGER

@<TRIPOS>ATOM
      1 C           8.5549   -5.1086   24.1195 C.ar    1  UNL1       -0.0024
      2 C           8.6472   -6.5826   23.8574 C.ar    1  UNL1       -0.0026
      3 C           8.1210   -7.5584   24.8678 C.ar    1  UNL1       -0.0001
      4 C           7.5025   -7.0602   26.1402 C.ar    1  UNL1        0.0045
      5 C           7.4103   -5.5861   26.4023 C.ar    1  UNL1        0.0534
      6 C           7.9365   -4.6103   25.3919 C.ar    1  UNL1        0.0019
      7 C           6.7917   -5.0879   27.6748 C.2     1  UNL1        0.2495
      8 O           5.5409   -5.7270   28.2012 O.2     1  UNL1       -0.2698
      9 N           7.4240   -3.9506   28.4210 N.am    1  UNL1       -0.2804
     10 H           8.2450   -3.5312   28.0755 H       1  UNL1        0.1552
     11 C           6.8055   -3.4524   29.6935 C.ar    1  UNL1        0.0502
     12 C           7.0441   -4.1851   30.9804 C.ar    1  UNL1        0.0143
     13 C           6.4256   -3.6868   32.2529 C.ar    1  UNL1       -0.0032
     14 C           5.5685   -2.4559   32.2384 C.ar    1  UNL1       -0.0234
     15 C           5.3299   -1.7232   30.9515 C.ar    1  UNL1       -0.0088
     16 C           5.9484   -2.2214   29.6790 C.ar    1  UNL1        0.0115
     17 C           4.4729   -0.4923   30.9370 C.3     1  UNL1        0.0989
     18 N           3.8544    0.0060   32.2094 N.3     1  UNL1       -0.2674
     19 C           2.9973    1.2369   32.1950 C.3     1  UNL1        0.0899
     20 C           4.0929   -0.7267   33.4965 C.3     1  UNL1        0.0771
     21 C           4.9500   -1.9577   33.5109 C.3     1  UNL1        0.0434
     22 C           9.0812   -4.1328   23.1090 C.3     1  UNL1        0.1166
     23 C           7.5558   -4.1348   21.0059 C.2     1  UNL1        0.2462
     24 O           7.9260   -5.5637   20.7388 O.2     1  UNL1       -0.2701
     25 N           8.1334   -3.4194   22.1910 N.am    1  UNL1       -0.2969
     26 H           7.8904   -2.4816   22.3663 H       1  UNL1        0.1501
     27 C           4.7125   -1.9947   18.2518 C.ar    1  UNL1        0.1724
     28 C           4.1804   -2.8982   19.3244 C.ar    1  UNL1        0.0402
     29 C           5.1282   -3.6116   20.2424 C.ar    1  UNL1        0.0078
     30 C           6.6080   -3.4215   20.0878 C.ar    1  UNL1        0.0566
     31 C           7.1401   -2.5180   19.0152 C.ar    1  UNL1        0.0446
     32 C           6.1923   -1.8046   18.0972 C.ar    1  UNL1        0.1725
     33 C           3.0940   -0.0171   17.7831 C.3     1  UNL1        0.2526
     34 O           3.7647   -1.2813   17.3337 O.3     1  UNL1       -0.4684
     35 O           6.7244   -0.9010   17.0245 O.3     1  UNL1       -0.4684
     36 C           6.8280    0.5750   17.2704 C.3     1  UNL1        0.2526
@<TRIPOS>BOND
     1    33    34    1
     2    34    27    1
     3    27    28   ar
     4    28    29   ar
     5    29    30   ar
     6    30    23    1
     7    23    24    2
     8    23    25   am
     9    25    22    1
    10    22     1    1
    11     1     2   ar
    12     2     3   ar
    13     3     4   ar
    14     4     5   ar
    15     5     7    1
    16     7     8    2
    17     7     9   am
    18     9    11    1
    19    11    12   ar
    20    12    13   ar
    21    13    14   ar
    22    14    15   ar
    23    15    16   ar
    24    15    17    1
    25    17    18    1
    26    18    19    1
    27    18    20    1
    28    20    21    1
    29     5     6   ar
    30    30    31   ar
    31    31    32   ar
    32    32    35    1
    33    35    36    1
    34    32    27   ar
    35     6     1   ar
    36    16    11   ar
    37    21    14    1
    38    25    26    1
    39     9    10    1
@<TRIPOS>MOLECULE
*****
 36 39 0 0 0
SMALL
GASTEIGER

@<TRIPOS>ATOM
      1 C          -0.9511    2.4692   26.6465 C.ar    1  UNL1       -0.0024
      2 C          -2.1422    3.3388   26.3725 C.ar    1  UNL1       -0.0026
      3 C          -2.4382    3.7856   24.9716 C.ar    1  UNL1       -0.0001
      4 C          -1.5431    3.3628   23.8447 C.ar    1  UNL1        0.0045
      5 C          -0.3520    2.4933   24.1187 C.ar    1  UNL1        0.0534
      6 C          -0.0559    2.0465   25.5196 C.ar    1  UNL1        0.0019
      7 C           0.5432    2.0706   22.9916 C.2     1  UNL1        0.2495
      8 O           1.9986    2.4327   23.0136 O.2     1  UNL1       -0.2698
      9 N          -0.0172    1.2857   21.8428 N.am    1  UNL1       -0.2804
     10 H          -0.9724    1.0480   21.8284 H       1  UNL1        0.1552
     11 C           0.8780    0.8630   20.7157 C.ar    1  UNL1        0.0502
     12 C           0.9830    1.7109   19.4829 C.ar    1  UNL1        0.0143
     13 C           1.8781    1.2882   18.3560 C.ar    1  UNL1       -0.0032
     14 C           2.6681    0.0175   18.4618 C.ar    1  UNL1       -0.0234
     15 C           2.5631   -0.8305   19.6947 C.ar    1  UNL1       -0.0088
     16 C           1.6680   -0.4077   20.8216 C.ar    1  UNL1        0.0115
     17 C           3.3531   -2.1012   19.8005 C.3     1  UNL1        0.0989
     18 N           4.2482   -2.5239   18.6736 N.3     1  UNL1       -0.2674
     19 C           5.0382   -3.7946   18.7795 C.3     1  UNL1        0.0899
     20 C           4.3533   -1.6759   17.4407 C.3     1  UNL1        0.0771
     21 C           3.5633   -0.4052   17.3348 C.3     1  UNL1        0.0434
     22 C          -0.6550    2.0224   28.0476 C.3     1  UNL1        0.1166
     23 C           0.8837    0.1995   29.0767 C.2     1  UNL1        0.2462
     24 O          -0.3199   -0.6375   29.3938 O.2     1  UNL1       -0.2701
     25 N           0.7162    1.5295   28.4037 N.am    1  UNL1       -0.2969
     26 H           1.5062    2.0789   28.1956 H       1  UNL1        0.1501
     27 C           4.9974   -1.2792   30.1450 C.ar    1  UNL1        0.1724
     28 C           4.6004   -1.1415   28.7051 C.ar    1  UNL1        0.0402
     29 C           3.2292   -0.6486   28.3490 C.ar    1  UNL1        0.0078
     30 C           2.2550   -0.2934   29.4328 C.ar    1  UNL1        0.0566
     31 C           2.6520   -0.4311   30.8727 C.ar    1  UNL1        0.0446
     32 C           4.0232   -0.9240   31.2288 C.ar    1  UNL1        0.1725
     33 C           6.7368   -3.2057   30.2580 C.3     1  UNL1        0.2526
     34 O           6.3686   -1.7721   30.5010 O.3     1  UNL1       -0.4684
     35 O           4.4202   -1.0617   32.6688 O.3     1  UNL1       -0.4684
     36 C           4.4973   -2.4207   33.2989 C.3     1  UNL1        0.2526
@<TRIPOS>BOND
     1    33    34    1
     2    34    27    1
     3    27    28   ar
     4    28    29   ar
     5    29    30   ar
     6    30    23    1
     7    23    24    2
     8    23    25   am
     9    25    22    1
    10    22     1    1
    11     1     2   ar
    12     2     3   ar
    13     3     4   ar
    14     4     5   ar
    15     5     7    1
    16     7     8    2
    17     7     9   am
    18     9    11    1
    19    11    12   ar
    20    12    13   ar
    21    13    14   ar
    22    14    15   ar
    23    15    16   ar
    24    15    17    1
    25    17    18    1
    26    18    19    1
    27    18    20    1
    28    20    21    1
    29     5     6   ar
    30    30    31   ar
    31    31    32   ar
    32    32    35    1
    33    35    36    1
    34    32    27   ar
    35     6     1   ar
    36    16    11   ar
    37    21    14    1
    38    25    26    1
    39     9    10    1
@<TRIPOS>MOLECULE
*****
 36 39 0 0 0
SMALL
GASTEIGER

@<TRIPOS>ATOM
      1 C           7.9071   -5.3750   23.7244 C.ar    1  UNL1       -0.0024
      2 C           8.5338   -6.7371   23.6785 C.ar    1  UNL1       -0.0026
      3 C           8.5707   -7.5876   24.9135 C.ar    1  UNL1       -0.0001
      4 C           7.9810   -7.0761   26.1943 C.ar    1  UNL1        0.0045
      5 C           7.3543   -5.7140   26.2401 C.ar    1  UNL1        0.0534
      6 C           7.3174   -4.8635   25.0052 C.ar    1  UNL1        0.0019
      7 C           6.7646   -5.2025   27.5210 C.2     1  UNL1        0.2495
      8 O           5.4799   -5.7789   28.0380 O.2     1  UNL1       -0.2698
      9 N           7.4596   -4.1146   28.2849 N.am    1  UNL1       -0.2804
     10 H           8.3028   -3.7363   27.9456 H       1  UNL1        0.1552
     11 C           6.8698   -3.6031   29.5658 C.ar    1  UNL1        0.0502
     12 C           7.1262   -4.3302   30.8525 C.ar    1  UNL1        0.0143
     13 C           6.5364   -3.8186   32.1333 C.ar    1  UNL1       -0.0032
     14 C           5.6904   -2.5800   32.1274 C.ar    1  UNL1       -0.0234
     15 C           5.4340   -1.8530   30.8407 C.ar    1  UNL1       -0.0088
     16 C           6.0237   -2.3645   29.5599 C.ar    1  UNL1        0.0115
     17 C           4.5879   -0.6144   30.8348 C.3     1  UNL1        0.0989
     18 N           3.9982   -0.1029   32.1156 N.3     1  UNL1       -0.2674
     19 C           3.1521    1.1357   32.1097 C.3     1  UNL1        0.0899
     20 C           4.2545   -0.8299   33.4024 C.3     1  UNL1        0.0771
     21 C           5.1006   -2.0685   33.4083 C.3     1  UNL1        0.0434
     22 C           7.8702   -4.5245   22.4893 C.3     1  UNL1        0.1166
     23 C           5.8150   -3.6085   21.1905 C.2     1  UNL1        0.2462
     24 O           5.9117   -4.7553   20.2286 O.2     1  UNL1       -0.2701
     25 N           6.7942   -3.4931   22.3209 N.am    1  UNL1       -0.2969
     26 H           6.7307   -2.7403   22.9522 H       1  UNL1        0.1501
     27 C           2.5869   -0.5142   20.6853 C.ar    1  UNL1        0.1724
     28 C           2.9313   -1.0222   22.0540 C.ar    1  UNL1        0.0402
     29 C           4.0073   -2.0536   22.2224 C.ar    1  UNL1        0.0078
     30 C           4.7390   -2.5771   21.0221 C.ar    1  UNL1        0.0566
     31 C           4.3946   -2.0691   19.6535 C.ar    1  UNL1        0.0446
     32 C           3.3186   -1.0377   19.4850 C.ar    1  UNL1        0.1725
     33 C           0.8954    1.1627   21.7228 C.3     1  UNL1        0.2526
     34 O           1.5109    0.5172   20.5169 O.3     1  UNL1       -0.4684
     35 O           2.9742   -0.5297   18.1163 O.3     1  UNL1       -0.4684
     36 C           3.9027   -0.7846   16.9661 C.3     1  UNL1        0.2526
@<TRIPOS>BOND
     1    33    34    1
     2    34    27    1
     3    27    28   ar
     4    28    29   ar
     5    29    30   ar
     6    30    23    1
     7    23    24    2
     8    23    25   am
     9    25    22    1
    10    22     1    1
    11     1     2   ar
    12     2     3   ar
    13     3     4   ar
    14     4     5   ar
    15     5     7    1
    16     7     8    2
    17     7     9   am
    18     9    11    1
    19    11    12   ar
    20    12    13   ar
    21    13    14   ar
    22    14    15   ar
    23    15    16   ar
    24    15    17    1
    25    17    18    1
    26    18    19    1
    27    18    20    1
    28    20    21    1
    29     5     6   ar
    30    30    31   ar
    31    31    32   ar
    32    32    35    1
    33    35    36    1
    34    32    27   ar
    35     6     1   ar
    36    16    11   ar
    37    21    14    1
    38    25    26    1
    39     9    10    1
@<TRIPOS>MOLECULE
*****
 36 39 0 0 0
SMALL
GASTEIGER

@<TRIPOS>ATOM
      1 C           6.2419   -2.9506   19.1335 C.ar    1  UNL1       -0.0024
      2 C           7.2477   -2.1022   18.4134 C.ar    1  UNL1       -0.0026
      3 C           8.6241   -1.9250   18.9825 C.ar    1  UNL1       -0.0001
      4 C           8.9948   -2.5962   20.2717 C.ar    1  UNL1        0.0045
      5 C           7.9890   -3.4447   20.9917 C.ar    1  UNL1        0.0534
      6 C           6.6125   -3.6219   20.4226 C.ar    1  UNL1        0.0019
      7 C           8.3597   -4.1160   22.2810 C.2     1  UNL1        0.2495
      8 O           9.5334   -3.6216   23.0735 O.2     1  UNL1       -0.2698
      9 N           7.5568   -5.2815   22.7776 N.am    1  UNL1       -0.2804
     10 H           6.7864   -5.6060   22.2574 H       1  UNL1        0.1552
     11 C           7.9275   -5.9528   24.0668 C.ar    1  UNL1        0.0502
     12 C           8.8274   -7.1528   24.0559 C.ar    1  UNL1        0.0143
     13 C           9.1980   -7.8240   25.3451 C.ar    1  UNL1       -0.0032
     14 C           8.6688   -7.2952   26.6452 C.ar    1  UNL1       -0.0234
     15 C           7.7689   -6.0952   26.6561 C.ar    1  UNL1       -0.0088
     16 C           7.3982   -5.4240   25.3669 C.ar    1  UNL1        0.0115
     17 C           7.2397   -5.5664   27.9562 C.3     1  UNL1        0.0989
     18 N           7.6103   -6.2376   29.2454 N.3     1  UNL1       -0.2674
     19 C           7.0811   -5.7089   30.5455 C.3     1  UNL1        0.0899
     20 C           8.5103   -7.4377   29.2345 C.3     1  UNL1        0.0771
     21 C           9.0395   -7.9665   27.9344 C.3     1  UNL1        0.0434
     22 C           4.8654   -3.1278   18.5643 C.3     1  UNL1        0.1166
     23 C           3.4242   -0.9664   18.5280 C.2     1  UNL1        0.2462
     24 O           4.2703   -0.4209   17.4161 O.2     1  UNL1       -0.2701
     25 N           3.7217   -2.3199   19.1021 N.am    1  UNL1       -0.2969
     26 H           3.1663   -2.6780   19.8319 H       1  UNL1        0.1501
     27 C          -0.0069    1.4573   20.1416 C.ar    1  UNL1        0.1724
     28 C           0.4379    0.2171   20.8585 C.ar    1  UNL1        0.0402
     29 C           1.5816   -0.5908   20.3207 C.ar    1  UNL1        0.0078
     30 C           2.2805   -0.1585   19.0659 C.ar    1  UNL1        0.0566
     31 C           1.8357    1.0817   18.3489 C.ar    1  UNL1        0.0446
     32 C           0.6921    1.8896   18.8868 C.ar    1  UNL1        0.1725
     33 C          -1.0002    3.0092   21.9732 C.3     1  UNL1        0.2526
     34 O          -1.1505    2.2652   20.6794 O.3     1  UNL1       -0.4684
     35 O           0.2473    3.1298   18.1697 O.3     1  UNL1       -0.4684
     36 C           1.2037    4.2695   17.9788 C.3     1  UNL1        0.2526
@<TRIPOS>BOND
     1    33    34    1
     2    34    27    1
     3    27    28   ar
     4    28    29   ar
     5    29    30   ar
     6    30    23    1
     7    23    24    2
     8    23    25   am
     9    25    22    1
    10    22     1    1
    11     1     2   ar
    12     2     3   ar
    13     3     4   ar
    14     4     5   ar
    15     5     7    1
    16     7     8    2
    17     7     9   am
    18     9    11    1
    19    11    12   ar
    20    12    13   ar
    21    13    14   ar
    22    14    15   ar
    23    15    16   ar
    24    15    17    1
    25    17    18    1
    26    18    19    1
    27    18    20    1
    28    20    21    1
    29     5     6   ar
    30    30    31   ar
    31    31    32   ar
    32    32    35    1
    33    35    36    1
    34    32    27   ar
    35     6     1   ar
    36    16    11   ar
    37    21    14    1
    38    25    26    1
    39     9    10    1
@<TRIPOS>MOLECULE
*****
 36 39 0 0 0
SMALL
GASTEIGER

@<TRIPOS>ATOM
      1 C           9.1786   -6.3077   28.6681 C.ar    1  UNL1       -0.0024
      2 C           9.2971   -7.7785   28.9378 C.ar    1  UNL1       -0.0026
      3 C           8.9997   -8.7669   27.8494 C.ar    1  UNL1       -0.0001
      4 C           8.5837   -8.2845   26.4914 C.ar    1  UNL1        0.0045
      5 C           8.4652   -6.8137   26.2217 C.ar    1  UNL1        0.0534
      6 C           8.7626   -5.8253   27.3101 C.ar    1  UNL1        0.0019
      7 C           8.0492   -6.3313   24.8637 C.2     1  UNL1        0.2495
      8 O           8.0528   -7.2761   23.6986 O.2     1  UNL1       -0.2698
      9 N           7.6296   -4.9042   24.6707 N.am    1  UNL1       -0.2804
     10 H           7.6272   -4.2841   25.4353 H       1  UNL1        0.1552
     11 C           7.2136   -4.4219   23.3126 C.ar    1  UNL1        0.0502
     12 C           8.1168   -4.6306   22.1334 C.ar    1  UNL1        0.0143
     13 C           7.7008   -4.1482   20.7754 C.ar    1  UNL1       -0.0032
     14 C           6.3816   -3.4572   20.5966 C.ar    1  UNL1       -0.0234
     15 C           5.4783   -3.2484   21.7758 C.ar    1  UNL1       -0.0088
     16 C           5.8943   -3.7308   23.1338 C.ar    1  UNL1        0.0115
     17 C           4.1591   -2.5574   21.5969 C.3     1  UNL1        0.0989
     18 N           3.7431   -2.0750   20.2389 N.3     1  UNL1       -0.2674
     19 C           2.4238   -1.3839   20.0601 C.3     1  UNL1        0.0899
     20 C           4.6463   -2.2837   19.0597 C.3     1  UNL1        0.0771
     21 C           5.9656   -2.9748   19.2385 C.3     1  UNL1        0.0434
     22 C           9.4761   -5.3192   29.7565 C.3     1  UNL1        0.1166
     23 C           7.2866   -4.4153   30.8238 C.2     1  UNL1        0.2462
     24 O           6.9882   -5.7808   31.3680 O.2     1  UNL1       -0.2701
     25 N           8.5306   -4.1845   30.0180 N.am    1  UNL1       -0.2969
     26 H           8.7265   -3.2883   29.6608 H       1  UNL1        0.1501
     27 C           4.4502   -1.0110   31.6083 C.ar    1  UNL1        0.1724
     28 C           5.1023   -1.1494   30.2646 C.ar    1  UNL1        0.0402
     29 C           6.0478   -2.2842   30.0031 C.ar    1  UNL1        0.0078
     30 C           6.3411   -3.2805   31.0853 C.ar    1  UNL1        0.0566
     31 C           5.6890   -3.1421   32.4290 C.ar    1  UNL1        0.0446
     32 C           4.7435   -2.0074   32.6905 C.ar    1  UNL1        0.1725
     33 C           2.4465    0.4654   30.8632 C.3     1  UNL1        0.2526
     34 O           3.5047    0.1237   31.8699 O.3     1  UNL1       -0.4684
     35 O           4.0914   -1.8690   34.0343 O.3     1  UNL1       -0.4684
     36 C           4.6212   -0.8766   35.0264 C.3     1  UNL1        0.2526
@<TRIPOS>BOND
     1    33    34    1
     2    34    27    1
     3    27    28   ar
     4    28    29   ar
     5    29    30   ar
     6    30    23    1
     7    23    24    2
     8    23    25   am
     9    25    22    1
    10    22     1    1
    11     1     2   ar
    12     2     3   ar
    13     3     4   ar
    14     4     5   ar
    15     5     7    1
    16     7     8    2
    17     7     9   am
    18     9    11    1
    19    11    12   ar
    20    12    13   ar
    21    13    14   ar
    22    14    15   ar
    23    15    16   ar
    24    15    17    1
    25    17    18    1
    26    18    19    1
    27    18    20    1
    28    20    21    1
    29     5     6   ar
    30    30    31   ar
    31    31    32   ar
    32    32    35    1
    33    35    36    1
    34    32    27   ar
    35     6     1   ar
    36    16    11   ar
    37    21    14    1
    38    25    26    1
    39     9    10    1
@<TRIPOS>MOLECULE
*****
 36 39 0 0 0
SMALL
GASTEIGER

@<TRIPOS>ATOM
      1 C           8.0778   -5.0276   22.4656 C.ar    1  UNL1       -0.0024
      2 C           8.8263   -6.2967   22.1845 C.ar    1  UNL1       -0.0026
      3 C           9.0799   -7.2784   23.2899 C.ar    1  UNL1       -0.0001
      4 C           8.5850   -6.9909   24.6764 C.ar    1  UNL1        0.0045
      5 C           7.8364   -5.7218   24.9575 C.ar    1  UNL1        0.0534
      6 C           7.5829   -4.7401   23.8520 C.ar    1  UNL1        0.0019
      7 C           7.3415   -5.4343   26.3440 C.2     1  UNL1        0.2495
      8 O           6.2385   -6.2626   26.9334 O.2     1  UNL1       -0.2698
      9 N           7.9495   -4.3186   27.1411 N.am    1  UNL1       -0.2804
     10 H           8.6734   -3.7749   26.7543 H       1  UNL1        0.1552
     11 C           7.4546   -4.0311   28.5277 C.ar    1  UNL1        0.0502
     12 C           7.8462   -4.9276   29.6647 C.ar    1  UNL1        0.0143
     13 C           7.3513   -4.6401   31.0512 C.ar    1  UNL1       -0.0032
     14 C           6.4647   -3.4561   31.3006 C.ar    1  UNL1       -0.0234
     15 C           6.0730   -2.5597   30.1636 C.ar    1  UNL1       -0.0088
     16 C           6.5680   -2.8472   28.7771 C.ar    1  UNL1        0.0115
     17 C           5.1864   -1.3757   30.4130 C.3     1  UNL1        0.0989
     18 N           4.6915   -1.0882   31.7995 N.3     1  UNL1       -0.2674
     19 C           3.8049    0.0957   32.0489 C.3     1  UNL1        0.0899
     20 C           5.0831   -1.9847   32.9366 C.3     1  UNL1        0.0771
     21 C           5.9697   -3.1687   32.6872 C.3     1  UNL1        0.0434
     22 C           7.8242   -4.0459   21.3601 C.3     1  UNL1        0.1166
     23 C           5.3536   -3.3913   20.8937 C.2     1  UNL1        0.2462
     24 O           5.1371   -4.7031   20.1994 O.2     1  UNL1       -0.2701
     25 N           6.6972   -3.0627   21.4741 N.am    1  UNL1       -0.2969
     26 H           6.8393   -2.2017   21.9298 H       1  UNL1        0.1501
     27 C           1.9724   -0.4416   21.2357 C.ar    1  UNL1        0.1724
     28 C           2.2098   -1.1638   19.9426 C.ar    1  UNL1        0.0402
     29 C           3.3368   -2.1470   19.8286 C.ar    1  UNL1        0.0078
     30 C           4.2265   -2.4081   21.0077 C.ar    1  UNL1        0.0566
     31 C           3.9892   -1.6859   22.3008 C.ar    1  UNL1        0.0446
     32 C           2.8621   -0.7026   22.4148 C.ar    1  UNL1        0.1725
     33 C           0.8118    1.7503   20.4620 C.3     1  UNL1        0.2526
     34 O           0.8454    0.5416   21.3497 O.3     1  UNL1       -0.4684
     35 O           2.6248    0.0196   23.7079 O.3     1  UNL1       -0.4684
     36 C           3.2997   -0.4483   24.9631 C.3     1  UNL1        0.2526
@<TRIPOS>BOND
     1    33    34    1
     2    34    27    1
     3    27    28   ar
     4    28    29   ar
     5    29    30   ar
     6    30    23    1
     7    23    24    2
     8    23    25   am
     9    25    22    1
    10    22     1    1
    11     1     2   ar
    12     2     3   ar
    13     3     4   ar
    14     4     5   ar
    15     5     7    1
    16     7     8    2
    17     7     9   am
    18     9    11    1
    19    11    12   ar
    20    12    13   ar
    21    13    14   ar
    22    14    15   ar
    23    15    16   ar
    24    15    17    1
    25    17    18    1
    26    18    19    1
    27    18    20    1
    28    20    21    1
    29     5     6   ar
    30    30    31   ar
    31    31    32   ar
    32    32    35    1
    33    35    36    1
    34    32    27   ar
    35     6     1   ar
    36    16    11   ar
    37    21    14    1
    38    25    26    1
    39     9    10    1
@<TRIPOS>MOLECULE
*****
 36 39 0 0 0
SMALL
GASTEIGER

@<TRIPOS>ATOM
      1 C          -0.3114    2.3392   24.6777 C.ar    1  UNL1       -0.0024
      2 C          -1.5420    3.0912   25.0904 C.ar    1  UNL1       -0.0026
      3 C          -1.9925    3.0650   26.5209 C.ar    1  UNL1       -0.0001
      4 C          -1.2124    2.2869   27.5387 C.ar    1  UNL1        0.0045
      5 C           0.0182    1.5349   27.1260 C.ar    1  UNL1        0.0534
      6 C           0.4687    1.5611   25.6955 C.ar    1  UNL1        0.0019
      7 C           0.7983    0.7568   28.1439 C.2     1  UNL1        0.2495
      8 O           0.2071   -0.4770   28.7590 O.2     1  UNL1       -0.2698
      9 N           2.1695    1.2124   28.5466 N.am    1  UNL1       -0.2804
     10 H           2.5575    2.0222   28.1429 H       1  UNL1        0.1552
     11 C           2.9496    0.4342   29.5645 C.ar    1  UNL1        0.0502
     12 C           2.5921    0.5314   31.0180 C.ar    1  UNL1        0.0143
     13 C           3.3722   -0.2467   32.0358 C.ar    1  UNL1       -0.0032
     14 C           4.5098   -1.1220   31.6000 C.ar    1  UNL1       -0.0234
     15 C           4.8672   -1.2192   30.1465 C.ar    1  UNL1       -0.0088
     16 C           4.0871   -0.4410   29.1287 C.ar    1  UNL1        0.0115
     17 C           6.0048   -2.0944   29.7108 C.3     1  UNL1        0.0989
     18 N           6.7849   -2.8726   30.7286 N.3     1  UNL1       -0.2674
     19 C           7.9224   -3.7478   30.2928 C.3     1  UNL1        0.0899
     20 C           6.4274   -2.7754   32.1822 C.3     1  UNL1        0.0771
     21 C           5.2899   -1.9002   32.6179 C.3     1  UNL1        0.0434
     22 C           0.1390    2.3655   23.2471 C.3     1  UNL1        0.1166
     23 C           1.0278    0.6250   21.5352 C.2     1  UNL1        0.2462
     24 O          -0.2442    0.7480   20.7498 O.2     1  UNL1       -0.2701
     25 N           1.2194    1.4337   22.7839 N.am    1  UNL1       -0.2969
     26 H           2.0542    1.3530   23.2993 H       1  UNL1        0.1501
     27 C           4.2689   -2.1703   20.1453 C.ar    1  UNL1        0.1724
     28 C           3.9876   -2.0177   21.6108 C.ar    1  UNL1        0.0402
     29 C           2.9072   -1.0860   22.0741 C.ar    1  UNL1        0.0078
     30 C           2.1081   -0.3068   21.0719 C.ar    1  UNL1        0.0566
     31 C           2.3894   -0.4593   19.6065 C.ar    1  UNL1        0.0446
     32 C           3.4698   -1.3911   19.1432 C.ar    1  UNL1        0.1725
     33 C           4.9987   -4.4835   19.2147 C.3     1  UNL1        0.2526
     34 O           5.3492   -3.1020   19.6820 O.3     1  UNL1       -0.4684
     35 O           3.7511   -1.5436   17.6777 O.3     1  UNL1       -0.4684
     36 C           4.5210   -0.4834   16.9474 C.3     1  UNL1        0.2526
@<TRIPOS>BOND
     1    33    34    1
     2    34    27    1
     3    27    28   ar
     4    28    29   ar
     5    29    30   ar
     6    30    23    1
     7    23    24    2
     8    23    25   am
     9    25    22    1
    10    22     1    1
    11     1     2   ar
    12     2     3   ar
    13     3     4   ar
    14     4     5   ar
    15     5     7    1
    16     7     8    2
    17     7     9   am
    18     9    11    1
    19    11    12   ar
    20    12    13   ar
    21    13    14   ar
    22    14    15   ar
    23    15    16   ar
    24    15    17    1
    25    17    18    1
    26    18    19    1
    27    18    20    1
    28    20    21    1
    29     5     6   ar
    30    30    31   ar
    31    31    32   ar
    32    32    35    1
    33    35    36    1
    34    32    27   ar
    35     6     1   ar
    36    16    11   ar
    37    21    14    1
    38    25    26    1
    39     9    10    1
@<TRIPOS>MOLECULE
*****
 36 39 0 0 0
SMALL
GASTEIGER

@<TRIPOS>ATOM
      1 C           4.1107   -1.9128   19.5682 C.ar    1  UNL1       -0.0024
      2 C           4.1731   -1.4177   18.1537 C.ar    1  UNL1       -0.0026
      3 C           3.2417   -0.3345   17.6964 C.ar    1  UNL1       -0.0001
      4 C           2.2479    0.2536   18.6538 C.ar    1  UNL1        0.0045
      5 C           2.1855   -0.2415   20.0683 C.ar    1  UNL1        0.0534
      6 C           3.1169   -1.3248   20.5255 C.ar    1  UNL1        0.0019
      7 C           1.1917    0.3466   21.0256 C.2     1  UNL1        0.2495
      8 O          -0.2782    0.1850   20.7741 O.2     1  UNL1       -0.2698
      9 N           1.6677    1.0963   22.2345 N.am    1  UNL1       -0.2804
     10 H           2.6325    1.2023   22.3996 H       1  UNL1        0.1552
     11 C           0.6739    1.6844   23.1918 C.ar    1  UNL1        0.0502
     12 C           0.5362    1.1163   24.5732 C.ar    1  UNL1        0.0143
     13 C          -0.4576    1.7044   25.5304 C.ar    1  UNL1       -0.0032
     14 C          -1.3138    2.8607   25.1063 C.ar    1  UNL1       -0.0234
     15 C          -1.1762    3.4289   23.7249 C.ar    1  UNL1       -0.0088
     16 C          -0.1824    2.8407   22.7677 C.ar    1  UNL1        0.0115
     17 C          -2.0324    4.5852   23.3008 C.3     1  UNL1        0.0989
     18 N          -3.0262    5.1733   24.2580 N.3     1  UNL1       -0.2674
     19 C          -3.8824    6.3296   23.8339 C.3     1  UNL1        0.0899
     20 C          -3.1639    4.6052   25.6395 C.3     1  UNL1        0.0771
     21 C          -2.3076    3.4489   26.0636 C.3     1  UNL1        0.0434
     22 C           5.0422   -2.9961   20.0255 C.3     1  UNL1        0.1166
     23 C           6.4818   -4.0150   21.9332 C.2     1  UNL1        0.2462
     24 O           7.3708   -4.6652   20.9149 O.2     1  UNL1       -0.2701
     25 N           5.3174   -3.1804   21.4884 N.am    1  UNL1       -0.2969
     26 H           4.7339   -2.7537   22.1567 H       1  UNL1        0.1501
     27 C           7.3077   -4.5680   26.3220 C.ar    1  UNL1        0.1724
     28 C           6.4963   -3.3967   25.8533 C.ar    1  UNL1        0.0402
     29 C           6.2210   -3.2124   24.3903 C.ar    1  UNL1        0.0078
     30 C           6.7571   -4.1993   23.3961 C.ar    1  UNL1        0.0566
     31 C           7.5684   -5.3706   23.8648 C.ar    1  UNL1        0.0446
     32 C           7.8437   -5.5549   25.3278 C.ar    1  UNL1        0.1725
     33 C           6.4923   -5.2255   28.6996 C.3     1  UNL1        0.2526
     34 O           7.5830   -4.7523   27.7850 O.3     1  UNL1       -0.4684
     35 O           8.6551   -6.7263   25.7965 O.3     1  UNL1       -0.4684
     36 C           7.9686   -7.9753   26.2638 C.3     1  UNL1        0.2526
@<TRIPOS>BOND
     1    33    34    1
     2    34    27    1
     3    27    28   ar
     4    28    29   ar
     5    29    30   ar
     6    30    23    1
     7    23    24    2
     8    23    25   am
     9    25    22    1
    10    22     1    1
    11     1     2   ar
    12     2     3   ar
    13     3     4   ar
    14     4     5   ar
    15     5     7    1
    16     7     8    2
    17     7     9   am
    18     9    11    1
    19    11    12   ar
    20    12    13   ar
    21    13    14   ar
    22    14    15   ar
    23    15    16   ar
    24    15    17    1
    25    17    18    1
    26    18    19    1
    27    18    20    1
    28    20    21    1
    29     5     6   ar
    30    30    31   ar
    31    31    32   ar
    32    32    35    1
    33    35    36    1
    34    32    27   ar
    35     6     1   ar
    36    16    11   ar
    37    21    14    1
    38    25    26    1
    39     9    10    1
@<TRIPOS>MOLECULE
*****
 36 39 0 0 0
SMALL
GASTEIGER

@<TRIPOS>ATOM
      1 C           7.8216   -6.5977   25.1740 C.ar    1  UNL1       -0.0024
      2 C           8.9553   -7.3842   24.5858 C.ar    1  UNL1       -0.0026
      3 C           9.4825   -7.0369   23.2251 C.ar    1  UNL1       -0.0001
      4 C           8.8759   -5.9032   22.4527 C.ar    1  UNL1        0.0045
      5 C           7.7421   -5.1167   23.0410 C.ar    1  UNL1        0.0534
      6 C           7.2149   -5.4640   24.4016 C.ar    1  UNL1        0.0019
      7 C           7.1354   -3.9830   22.2685 C.2     1  UNL1        0.2495
      8 O           7.1821   -2.5892   22.8211 O.2     1  UNL1       -0.2698
      9 N           6.4822   -4.2430   20.9435 N.am    1  UNL1       -0.2804
     10 H           6.4516   -5.1577   20.5808 H       1  UNL1        0.1552
     11 C           5.8756   -3.1092   20.1710 C.ar    1  UNL1        0.0502
     12 C           6.6419   -2.4698   19.0512 C.ar    1  UNL1        0.0143
     13 C           6.0353   -1.3361   18.2788 C.ar    1  UNL1       -0.0032
     14 C           4.6623   -0.8418   18.6262 C.ar    1  UNL1       -0.0234
     15 C           3.8960   -1.4812   19.7459 C.ar    1  UNL1       -0.0088
     16 C           4.5026   -2.6149   20.5183 C.ar    1  UNL1        0.0115
     17 C           2.5231   -0.9869   20.0933 C.3     1  UNL1        0.0989
     18 N           1.9164    0.1468   19.3208 N.3     1  UNL1       -0.2674
     19 C           0.5435    0.6411   19.6682 C.3     1  UNL1        0.0899
     20 C           2.6827    0.7863   18.2010 C.3     1  UNL1        0.0771
     21 C           4.0557    0.2920   17.8537 C.3     1  UNL1        0.0434
     22 C           7.2944   -6.9450   26.5348 C.3     1  UNL1        0.1166
     23 C           7.4042   -5.8182   28.8732 C.2     1  UNL1        0.2462
     24 O           8.3705   -6.8689   29.3341 O.2     1  UNL1       -0.2701
     25 N           6.8662   -5.8563   27.4736 N.am    1  UNL1       -0.2969
     26 H           6.2320   -5.1667   27.1710 H       1  UNL1        0.1501
     27 C           6.1196   -2.5520   31.6895 C.ar    1  UNL1        0.1724
     28 C           6.5714   -3.8754   32.2320 C.ar    1  UNL1        0.0402
     29 C           6.9996   -4.9641   31.2933 C.ar    1  UNL1        0.0078
     30 C           6.9760   -4.7295   29.8119 C.ar    1  UNL1        0.0566
     31 C           6.5242   -3.4061   29.2694 C.ar    1  UNL1        0.0446
     32 C           6.0960   -2.3173   30.2082 C.ar    1  UNL1        0.1725
     33 C           4.3858   -1.5730   33.3584 C.3     1  UNL1        0.2526
     34 O           5.6914   -1.4632   32.6282 O.3     1  UNL1       -0.4684
     35 O           5.6441   -0.9938   29.6655 O.3     1  UNL1       -0.4684
     36 C           5.4409   -0.8182   28.1898 C.3     1  UNL1        0.2526
@<TRIPOS>BOND
     1    33    34    1
     2    34    27    1
     3    27    28   ar
     4    28    29   ar
     5    29    30   ar
     6    30    23    1
     7    23    24    2
     8    23    25   am
     9    25    22    1
    10    22     1    1
    11     1     2   ar
    12     2     3   ar
    13     3     4   ar
    14     4     5   ar
    15     5     7    1
    16     7     8    2
    17     7     9   am
    18     9    11    1
    19    11    12   ar
    20    12    13   ar
    21    13    14   ar
    22    14    15   ar
    23    15    16   ar
    24    15    17    1
    25    17    18    1
    26    18    19    1
    27    18    20    1
    28    20    21    1
    29     5     6   ar
    30    30    31   ar
    31    31    32   ar
    32    32    35    1
    33    35    36    1
    34    32    27   ar
    35     6     1   ar
    36    16    11   ar
    37    21    14    1
    38    25    26    1
    39     9    10    1
