@<TRIPOS>MOLECULE
*****
 32 35 0 0 0
SMALL
GASTEIGER

@<TRIPOS>ATOM
      1 N          -8.0696  -19.5572   21.4074 N.3     1  UNL1       -0.2679
      2 C          -8.6950  -19.1573   22.7109 C.3     1  UNL1        0.0978
      3 C          -9.5500  -20.1333   23.4633 C.3     1  UNL1        0.0224
      4 C         -10.1754  -19.7334   24.7667 C.3     1  UNL1        0.0065
      5 C          -9.9457  -18.3573   25.3177 C.3     1  UNL1        0.0277
      6 C          -9.0907  -17.3812   24.5653 C.ar    1  UNL1       -0.0073
      7 C          -8.8610  -16.0051   25.1164 C.ar    1  UNL1       -0.0015
      8 C          -8.0060  -15.0290   24.3640 C.ar    1  UNL1        0.0203
      9 C          -7.3806  -15.4290   23.0605 C.ar    1  UNL1        0.0985
     10 N          -7.6103  -16.8050   22.5095 N.ar    1  UNL1       -0.2471
     11 C          -8.4653  -17.7812   23.2619 C.ar    1  UNL1        0.0695
     12 C          -8.7661  -19.2483   20.1154 C.3     1  UNL1        0.0725
     13 C         -10.2613  -19.1334   20.0781 C.3     1  UNL1        0.0187
     14 C         -10.9076  -17.7830   19.9853 C.3     1  UNL1        0.0156
     15 C         -10.6390  -15.8776   20.8781 C.3     1  UNL1        0.0155
     16 C         -11.4204  -17.1103   21.2240 C.3     1  UNL1        0.0390
     17 C         -12.2018  -18.3431   21.5699 C.3     1  UNL1        0.0155
     18 N         -11.9333  -16.4376   22.4628 N.3     1  UNL1       -0.3232
     19 H         -11.5486  -15.4948   22.5218 H       1  UNL1        0.1188
     20 H         -11.6487  -16.9730   23.2830 H       1  UNL1        0.1188
     21 C          -6.7478  -20.2661   21.3960 C.3     1  UNL1        0.0886
     22 C          -5.4728  -19.4762   21.4191 C.3     1  UNL1        0.0748
     23 C          -4.6002  -19.4248   20.2001 C.3     1  UNL1        0.0432
     24 C          -3.3253  -18.6348   20.2232 C.ar    1  UNL1       -0.0234
     25 C          -2.4527  -18.5834   19.0042 C.ar    1  UNL1       -0.0045
     26 C          -1.1778  -17.7935   19.0273 C.ar    1  UNL1       -0.0003
     27 C          -0.7754  -17.0550   20.2694 C.ar    1  UNL1       -0.0003
     28 C          -1.6480  -17.1064   21.4883 C.ar    1  UNL1       -0.0032
     29 C          -2.9229  -17.8963   21.4652 C.ar    1  UNL1       -0.0103
     30 C          -3.7956  -17.9477   22.6842 C.3     1  UNL1        0.0953
     31 N          -5.0705  -18.7377   22.6612 N.3     1  UNL1       -0.2934
     32 H          -5.8251  -18.0850   22.8731 H       1  UNL1        0.1236
@<TRIPOS>BOND
     1    15    16    1
     2    16    17    1
     3    16    18    1
     4    16    14    1
     5    14    13    1
     6    13    12    1
     7    12     1    1
     8     1    21    1
     9    22    21    1
    10    22    23    1
    11    23    24    1
    12    24    25   ar
    13    25    26   ar
    14    26    27   ar
    15    27    28   ar
    16    28    29   ar
    17    29    30    1
    18    30    31    1
    19     2     1    1
    20     2     3    1
    21     3     4    1
    22     4     5    1
    23     5     6    1
    24     6     7   ar
    25     7     8   ar
    26     8     9   ar
    27     9    10   ar
    28    10    11   ar
    29    31    22    1
    30    11     2    1
    31    29    24   ar
    32    11     6   ar
    33    18    19    1
    34    18    20    1
    35    31    32    1
@<TRIPOS>MOLECULE
*****
 32 35 0 0 0
SMALL
GASTEIGER

@<TRIPOS>ATOM
      1 N          -7.8089  -18.2064   22.6277 N.3     1  UNL1       -0.2679
      2 C          -9.2406  -18.4038   23.0294 C.3     1  UNL1        0.0978
      3 C          -9.5740  -19.2312   24.2352 C.3     1  UNL1        0.0224
      4 C         -11.0057  -19.4286   24.6369 C.3     1  UNL1        0.0065
      5 C         -12.1039  -18.7985   23.8326 C.3     1  UNL1        0.0277
      6 C         -11.7705  -17.9712   22.6267 C.ar    1  UNL1       -0.0073
      7 C         -12.8688  -17.3411   21.8224 C.ar    1  UNL1       -0.0015
      8 C         -12.5354  -16.5137   20.6165 C.ar    1  UNL1        0.0203
      9 C         -11.1037  -16.3163   20.2149 C.ar    1  UNL1        0.0985
     10 N         -10.0054  -16.9463   21.0192 N.ar    1  UNL1       -0.2471
     11 C         -10.3388  -17.7738   22.2251 C.ar    1  UNL1        0.0695
     12 C          -7.1179  -16.9091   22.9271 C.3     1  UNL1        0.0725
     13 C          -7.8299  -15.8422   23.7049 C.3     1  UNL1        0.0187
     14 C          -7.0807  -15.0233   24.7138 C.3     1  UNL1        0.0156
     15 C          -5.4366  -15.3883   26.0035 C.3     1  UNL1        0.0155
     16 C          -6.9259  -15.5232   26.1195 C.3     1  UNL1        0.0390
     17 C          -8.4153  -15.6581   26.2355 C.3     1  UNL1        0.0155
     18 N          -6.7712  -16.0231   27.5253 N.3     1  UNL1       -0.3232
     19 H          -5.7813  -16.0499   27.7696 H       1  UNL1        0.1188
     20 H          -7.1649  -16.9613   27.5978 H       1  UNL1        0.1188
     21 C          -7.0681  -19.3063   21.9267 C.3     1  UNL1        0.0886
     22 C          -5.5991  -19.1676   21.6565 C.3     1  UNL1        0.0748
     23 C          -5.1260  -18.6515   20.3299 C.3     1  UNL1        0.0432
     24 C          -3.6570  -18.5128   20.0597 C.ar    1  UNL1       -0.0234
     25 C          -3.1839  -17.9967   18.7331 C.ar    1  UNL1       -0.0045
     26 C          -1.7150  -17.8581   18.4630 C.ar    1  UNL1       -0.0003
     27 C          -0.7192  -18.2354   19.5194 C.ar    1  UNL1       -0.0003
     28 C          -1.1923  -18.7515   20.8459 C.ar    1  UNL1       -0.0032
     29 C          -2.6612  -18.8902   21.1161 C.ar    1  UNL1       -0.0103
     30 C          -3.1344  -19.4063   22.4427 C.3     1  UNL1        0.0953
     31 N          -4.6033  -19.5450   22.7129 N.3     1  UNL1       -0.2934
     32 H          -4.8081  -18.9693   23.5297 H       1  UNL1        0.1236
@<TRIPOS>BOND
     1    15    16    1
     2    16    17    1
     3    16    18    1
     4    16    14    1
     5    14    13    1
     6    13    12    1
     7    12     1    1
     8     1    21    1
     9    22    21    1
    10    22    23    1
    11    23    24    1
    12    24    25   ar
    13    25    26   ar
    14    26    27   ar
    15    27    28   ar
    16    28    29   ar
    17    29    30    1
    18    30    31    1
    19     2     1    1
    20     2     3    1
    21     3     4    1
    22     4     5    1
    23     5     6    1
    24     6     7   ar
    25     7     8   ar
    26     8     9   ar
    27     9    10   ar
    28    10    11   ar
    29    31    22    1
    30    11     2    1
    31    29    24   ar
    32    11     6   ar
    33    18    19    1
    34    18    20    1
    35    31    32    1
@<TRIPOS>MOLECULE
*****
 32 35 0 0 0
SMALL
GASTEIGER

@<TRIPOS>ATOM
      1 N          -8.0386  -17.9919   22.8408 N.3     1  UNL1       -0.2679
      2 C          -9.5038  -18.1102   23.1391 C.3     1  UNL1        0.0978
      3 C          -9.9620  -18.8220   24.3773 C.3     1  UNL1        0.0224
      4 C         -11.4273  -18.9403   24.6757 C.3     1  UNL1        0.0065
      5 C         -12.4343  -18.3468   23.7358 C.3     1  UNL1        0.0277
      6 C         -11.9762  -17.6350   22.4975 C.ar    1  UNL1       -0.0073
      7 C         -12.9832  -17.0414   21.5575 C.ar    1  UNL1       -0.0015
      8 C         -12.5250  -16.3296   20.3193 C.ar    1  UNL1        0.0203
      9 C         -11.0598  -16.2113   20.0209 C.ar    1  UNL1        0.0985
     10 N         -10.0527  -16.8048   20.9609 N.ar    1  UNL1       -0.2471
     11 C         -10.5109  -17.5167   22.1992 C.ar    1  UNL1        0.0695
     12 C          -7.3463  -16.6701   22.9942 C.3     1  UNL1        0.0725
     13 C          -7.9438  -15.6075   23.8682 C.3     1  UNL1        0.0187
     14 C          -7.0925  -14.9058   24.8845 C.3     1  UNL1        0.0156
     15 C          -5.4197  -15.4395   26.0747 C.3     1  UNL1        0.0155
     16 C          -6.9082  -15.5019   26.2485 C.3     1  UNL1        0.0390
     17 C          -8.3968  -15.5643   26.4223 C.3     1  UNL1        0.0155
     18 N          -6.7240  -16.0980   27.6127 N.3     1  UNL1       -0.3232
     19 H          -5.7279  -16.1931   27.8105 H       1  UNL1        0.1188
     20 H          -7.1663  -17.0165   27.6449 H       1  UNL1        0.1188
     21 C          -7.2656  -19.1953   22.3890 C.3     1  UNL1        0.0886
     22 C          -6.0225  -19.0233   21.5673 C.3     1  UNL1        0.0748
     23 C          -4.6950  -18.8472   22.2431 C.3     1  UNL1        0.0432
     24 C          -3.4519  -18.6751   21.4214 C.ar    1  UNL1       -0.0234
     25 C          -2.1245  -18.4991   22.0973 C.ar    1  UNL1       -0.0045
     26 C          -0.8815  -18.3270   21.2756 C.ar    1  UNL1       -0.0003
     27 C          -0.9659  -18.3310   19.7780 C.ar    1  UNL1       -0.0003
     28 C          -2.2934  -18.5070   19.1021 C.ar    1  UNL1       -0.0032
     29 C          -3.5364  -18.6791   19.9238 C.ar    1  UNL1       -0.0103
     30 C          -4.8639  -18.8552   19.2479 C.3     1  UNL1        0.0953
     31 N          -6.1069  -19.0272   20.0696 N.3     1  UNL1       -0.2934
     32 H          -6.5165  -19.9217   19.8002 H       1  UNL1        0.1236
@<TRIPOS>BOND
     1    15    16    1
     2    16    17    1
     3    16    18    1
     4    16    14    1
     5    14    13    1
     6    13    12    1
     7    12     1    1
     8     1    21    1
     9    22    21    1
    10    22    23    1
    11    23    24    1
    12    24    25   ar
    13    25    26   ar
    14    26    27   ar
    15    27    28   ar
    16    28    29   ar
    17    29    30    1
    18    30    31    1
    19     2     1    1
    20     2     3    1
    21     3     4    1
    22     4     5    1
    23     5     6    1
    24     6     7   ar
    25     7     8   ar
    26     8     9   ar
    27     9    10   ar
    28    10    11   ar
    29    31    22    1
    30    11     2    1
    31    29    24   ar
    32    11     6   ar
    33    18    19    1
    34    18    20    1
    35    31    32    1
@<TRIPOS>MOLECULE
*****
 32 35 0 0 0
SMALL
GASTEIGER

@<TRIPOS>ATOM
      1 N          -8.6393  -17.1833   22.3265 N.3     1  UNL1       -0.2679
      2 C         -10.0896  -17.0243   21.9780 C.3     1  UNL1        0.0978
      3 C         -10.4842  -16.3242   20.7115 C.3     1  UNL1        0.0224
      4 C         -11.9344  -16.1652   20.3630 C.3     1  UNL1        0.0065
      5 C         -12.9901  -16.7062   21.2810 C.3     1  UNL1        0.0277
      6 C         -12.5955  -17.4063   22.5475 C.ar    1  UNL1       -0.0073
      7 C         -13.6512  -17.9474   23.4656 C.ar    1  UNL1       -0.0015
      8 C         -13.2566  -18.6475   24.7321 C.ar    1  UNL1        0.0203
      9 C         -11.8063  -18.8065   25.0806 C.ar    1  UNL1        0.0985
     10 N         -10.7506  -18.2655   24.1626 N.ar    1  UNL1       -0.2471
     11 C         -11.1452  -17.5653   22.8960 C.ar    1  UNL1        0.0695
     12 C          -7.8556  -16.0076   22.8298 C.3     1  UNL1        0.0725
     13 C          -8.1586  -15.4262   24.1790 C.3     1  UNL1        0.0187
     14 C          -7.6853  -16.1238   25.4197 C.3     1  UNL1        0.0156
     15 C          -8.4259  -15.3805   27.2633 C.3     1  UNL1        0.0155
     16 C          -7.1062  -15.3290   26.5523 C.3     1  UNL1        0.0390
     17 C          -5.7864  -15.2774   25.8413 C.3     1  UNL1        0.0155
     18 N          -6.5269  -14.5341   27.6849 N.3     1  UNL1       -0.3232
     19 H          -7.2418  -14.3869   28.3975 H       1  UNL1        0.1188
     20 H          -6.2034  -13.6317   27.3365 H       1  UNL1        0.1188
     21 C          -7.9728  -18.5181   22.1717 C.3     1  UNL1        0.0886
     22 C          -6.6353  -18.6151   21.4994 C.3     1  UNL1        0.0748
     23 C          -5.3789  -18.5523   22.3163 C.3     1  UNL1        0.0432
     24 C          -4.0415  -18.6493   21.6440 C.ar    1  UNL1       -0.0234
     25 C          -2.7851  -18.5865   22.4609 C.ar    1  UNL1       -0.0045
     26 C          -1.4477  -18.6836   21.7886 C.ar    1  UNL1       -0.0003
     27 C          -1.3668  -18.8434   20.2993 C.ar    1  UNL1       -0.0003
     28 C          -2.6232  -18.9062   19.4824 C.ar    1  UNL1       -0.0032
     29 C          -3.9606  -18.8092   20.1547 C.ar    1  UNL1       -0.0103
     30 C          -5.2171  -18.8720   19.3378 C.3     1  UNL1        0.0953
     31 N          -6.5544  -18.7749   20.0101 N.3     1  UNL1       -0.2934
     32 H          -7.0635  -19.6276   19.7774 H       1  UNL1        0.1236
@<TRIPOS>BOND
     1    15    16    1
     2    16    17    1
     3    16    18    1
     4    16    14    1
     5    14    13    1
     6    13    12    1
     7    12     1    1
     8     1    21    1
     9    22    21    1
    10    22    23    1
    11    23    24    1
    12    24    25   ar
    13    25    26   ar
    14    26    27   ar
    15    27    28   ar
    16    28    29   ar
    17    29    30    1
    18    30    31    1
    19     2     1    1
    20     2     3    1
    21     3     4    1
    22     4     5    1
    23     5     6    1
    24     6     7   ar
    25     7     8   ar
    26     8     9   ar
    27     9    10   ar
    28    10    11   ar
    29    31    22    1
    30    11     2    1
    31    29    24   ar
    32    11     6   ar
    33    18    19    1
    34    18    20    1
    35    31    32    1
@<TRIPOS>MOLECULE
*****
 32 35 0 0 0
SMALL
GASTEIGER

@<TRIPOS>ATOM
      1 N          -5.9947  -19.0267   21.3138 N.3     1  UNL1       -0.2679
      2 C          -5.4372  -18.2236   22.4515 C.3     1  UNL1        0.0978
      3 C          -4.1124  -18.5918   23.0511 C.3     1  UNL1        0.0224
      4 C          -3.5549  -17.7888   24.1887 C.3     1  UNL1        0.0065
      5 C          -4.3221  -16.6176   24.7268 C.3     1  UNL1        0.0277
      6 C          -5.6468  -16.2494   24.1273 C.ar    1  UNL1       -0.0073
      7 C          -6.4141  -15.0781   24.6654 C.ar    1  UNL1       -0.0015
      8 C          -7.7388  -14.7099   24.0658 C.ar    1  UNL1        0.0203
      9 C          -8.2963  -15.5130   22.9281 C.ar    1  UNL1        0.0985
     10 N          -7.5291  -16.6842   22.3900 N.ar    1  UNL1       -0.2471
     11 C          -6.2044  -17.0524   22.9896 C.ar    1  UNL1        0.0695
     12 C          -5.3900  -18.9097   19.9461 C.3     1  UNL1        0.0725
     13 C          -4.1244  -19.6460   19.6201 C.3     1  UNL1        0.0187
     14 C          -2.8883  -18.8833   19.2457 C.3     1  UNL1        0.0156
     15 C          -1.5639  -17.2737   19.6394 C.3     1  UNL1        0.0155
     16 C          -1.8387  -18.6020   20.2797 C.3     1  UNL1        0.0390
     17 C          -2.1134  -19.9303   20.9200 C.3     1  UNL1        0.0155
     18 N          -0.7890  -18.3207   21.3137 N.3     1  UNL1       -0.3232
     19 H          -0.3749  -17.4054   21.1376 H       1  UNL1        0.1188
     20 H          -0.0641  -19.0367   21.2659 H       1  UNL1        0.1188
     21 C          -7.1568  -19.9467   21.5438 C.3     1  UNL1        0.0886
     22 C          -8.5411  -19.3860   21.6837 C.3     1  UNL1        0.0748
     23 C          -9.2837  -19.5360   22.9783 C.3     1  UNL1        0.0432
     24 C         -10.6680  -18.9753   23.1182 C.ar    1  UNL1       -0.0234
     25 C         -11.4107  -19.1254   24.4127 C.ar    1  UNL1       -0.0045
     26 C         -12.7949  -18.5647   24.5526 C.ar    1  UNL1       -0.0003
     27 C         -13.4364  -17.8539   23.3979 C.ar    1  UNL1       -0.0003
     28 C         -12.6937  -17.7038   22.1034 C.ar    1  UNL1       -0.0032
     29 C         -11.3095  -18.2645   21.9635 C.ar    1  UNL1       -0.0103
     30 C         -10.5667  -18.1145   20.6689 C.3     1  UNL1        0.0953
     31 N          -9.1826  -18.6752   20.5291 N.3     1  UNL1       -0.2934
     32 H          -8.5718  -17.8948   20.2876 H       1  UNL1        0.1236
@<TRIPOS>BOND
     1    15    16    1
     2    16    17    1
     3    16    18    1
     4    16    14    1
     5    14    13    1
     6    13    12    1
     7    12     1    1
     8     1    21    1
     9    22    21    1
    10    22    23    1
    11    23    24    1
    12    24    25   ar
    13    25    26   ar
    14    26    27   ar
    15    27    28   ar
    16    28    29   ar
    17    29    30    1
    18    30    31    1
    19     2     1    1
    20     2     3    1
    21     3     4    1
    22     4     5    1
    23     5     6    1
    24     6     7   ar
    25     7     8   ar
    26     8     9   ar
    27     9    10   ar
    28    10    11   ar
    29    31    22    1
    30    11     2    1
    31    29    24   ar
    32    11     6   ar
    33    18    19    1
    34    18    20    1
    35    31    32    1
@<TRIPOS>MOLECULE
*****
 32 35 0 0 0
SMALL
GASTEIGER

@<TRIPOS>ATOM
      1 N          -6.0222  -18.9526   22.2884 N.3     1  UNL1       -0.2679
      2 C          -4.9326  -19.1901   21.2852 C.3     1  UNL1        0.0978
      3 C          -5.0374  -20.3341   20.3208 C.3     1  UNL1        0.0224
      4 C          -3.9478  -20.5716   19.3176 C.3     1  UNL1        0.0065
      5 C          -2.7534  -19.6651   19.2788 C.3     1  UNL1        0.0277
      6 C          -2.6486  -18.5211   20.2433 C.ar    1  UNL1       -0.0073
      7 C          -1.4541  -17.6145   20.2045 C.ar    1  UNL1       -0.0015
      8 C          -1.3493  -16.4705   21.1690 C.ar    1  UNL1        0.0203
      9 C          -2.4389  -16.2330   22.1721 C.ar    1  UNL1        0.0985
     10 N          -3.6333  -17.1395   22.2109 N.ar    1  UNL1       -0.2471
     11 C          -3.7382  -18.2836   21.2464 C.ar    1  UNL1        0.0695
     12 C          -5.9450  -17.7756   23.2150 C.3     1  UNL1        0.0725
     13 C          -7.0102  -16.7201   23.1773 C.3     1  UNL1        0.0187
     14 C          -6.8224  -15.4377   23.9323 C.3     1  UNL1        0.0156
     15 C          -5.8240  -15.1436   25.7807 C.3     1  UNL1        0.0155
     16 C          -7.2519  -15.3419   25.3663 C.3     1  UNL1        0.0390
     17 C          -8.6798  -15.5402   24.9519 C.3     1  UNL1        0.0155
     18 N          -7.6815  -15.2461   26.8003 N.3     1  UNL1       -0.3232
     19 H          -6.8634  -15.0973   27.3911 H       1  UNL1        0.1188
     20 H          -8.1460  -16.1118   27.0747 H       1  UNL1        0.1188
     21 C          -7.1890  -19.8921   22.3650 C.3     1  UNL1        0.0886
     22 C          -8.5888  -19.3548   22.3194 C.3     1  UNL1        0.0748
     23 C          -9.4600  -19.4273   23.5383 C.3     1  UNL1        0.0432
     24 C         -10.8598  -18.8900   23.4928 C.ar    1  UNL1       -0.0234
     25 C         -11.7310  -18.9625   24.7116 C.ar    1  UNL1       -0.0045
     26 C         -13.1307  -18.4253   24.6661 C.ar    1  UNL1       -0.0003
     27 C         -13.6592  -17.8155   23.4016 C.ar    1  UNL1       -0.0003
     28 C         -12.7880  -17.7429   22.1827 C.ar    1  UNL1       -0.0032
     29 C         -11.3883  -18.2802   22.2283 C.ar    1  UNL1       -0.0103
     30 C         -10.5170  -18.2077   21.0094 C.3     1  UNL1        0.0953
     31 N          -9.1173  -18.7450   21.0550 N.3     1  UNL1       -0.2934
     32 H          -8.4967  -17.9703   20.8199 H       1  UNL1        0.1236
@<TRIPOS>BOND
     1    15    16    1
     2    16    17    1
     3    16    18    1
     4    16    14    1
     5    14    13    1
     6    13    12    1
     7    12     1    1
     8     1    21    1
     9    22    21    1
    10    22    23    1
    11    23    24    1
    12    24    25   ar
    13    25    26   ar
    14    26    27   ar
    15    27    28   ar
    16    28    29   ar
    17    29    30    1
    18    30    31    1
    19     2     1    1
    20     2     3    1
    21     3     4    1
    22     4     5    1
    23     5     6    1
    24     6     7   ar
    25     7     8   ar
    26     8     9   ar
    27     9    10   ar
    28    10    11   ar
    29    31    22    1
    30    11     2    1
    31    29    24   ar
    32    11     6   ar
    33    18    19    1
    34    18    20    1
    35    31    32    1
