@<TRIPOS>MOLECULE
*****
 24 26 0 0 0
SMALL
GASTEIGER

@<TRIPOS>ATOM
      1 C          -7.8620  -17.4420   22.7965 C.ar    1  UNL1        0.1017
      2 C          -8.4725  -17.5256   24.1642 C.ar    1  UNL1        0.1179
      3 N          -9.9084  -17.1432   24.3693 N.ar    1  UNL1       -0.2410
      4 C         -10.7338  -16.6774   23.2067 C.ar    1  UNL1        0.0972
      5 C         -10.1234  -16.5939   21.8391 C.ar    1  UNL1        0.0304
      6 C          -8.6875  -16.9762   21.6340 C.ar    1  UNL1        0.0205
      7 C          -2.5928  -17.5308   23.1246 C.3     1  UNL1        0.0540
      8 C          -4.0042  -17.8651   22.7422 C.ar    1  UNL1        0.0807
      9 N          -5.2385  -17.1631   23.2255 N.ar    1  UNL1       -0.1694
     10 N          -6.4261  -17.8244   22.5914 N.ar    1  UNL1       -0.2285
     11 C          -5.9259  -18.9351   21.7162 C.ar    1  UNL1        0.0840
     12 C          -6.6400  -19.9268   20.8464 C.ar    1  UNL1        0.0192
     13 C          -5.8572  -20.9437   20.0699 C.ar    1  UNL1        0.0015
     14 C          -4.3603  -20.9689   20.1631 C.ar    1  UNL1        0.0001
     15 C          -3.6462  -19.9772   21.0328 C.ar    1  UNL1        0.0027
     16 C          -4.4290  -18.9603   21.8094 C.ar    1  UNL1        0.0329
     17 C         -10.9489  -16.1280   20.6765 C.3     1  UNL1        0.1960
     18 C         -11.7744  -15.6622   19.5140 C.3     1  UNL1        0.0428
     19 O          -9.9427  -15.0523   20.3931 O.3     1  UNL1       -0.3751
     20 H          -9.2225  -15.1045   21.0408 H       1  UNL1        0.2110
     21 C         -11.9552  -17.2037   20.9600 C.3     1  UNL1        0.4231
     22 F         -12.9614  -18.2794   21.2435 F       1  UNL1       -0.1673
     23 F         -12.9409  -16.1643   21.4049 F       1  UNL1       -0.1673
     24 F         -11.2422  -18.4725   20.5969 F       1  UNL1       -0.1673
@<TRIPOS>BOND
     1     7     8    1
     2     8     9   ar
     3     9    10   ar
     4    10     1    1
     5     1     2   ar
     6     2     3   ar
     7     3     4   ar
     8     4     5   ar
     9     5    17    1
    10    17    18    1
    11    17    19    1
    12    17    21    1
    13    21    22    1
    14    21    23    1
    15    21    24    1
    16     5     6   ar
    17    10    11   ar
    18    11    12   ar
    19    12    13   ar
    20    13    14   ar
    21    14    15   ar
    22    15    16   ar
    23    16     8   ar
    24     6     1   ar
    25    16    11   ar
    26    19    20    1
@<TRIPOS>MOLECULE
*****
 24 26 0 0 0
SMALL
GASTEIGER

@<TRIPOS>ATOM
      1 C          -7.9643  -18.8172   21.0193 C.ar    1  UNL1        0.1017
      2 C          -8.0045  -19.5596   19.7164 C.ar    1  UNL1        0.1179
      3 N          -9.3225  -19.8760   19.0739 N.ar    1  UNL1       -0.2410
      4 C         -10.6002  -19.4500   19.7341 C.ar    1  UNL1        0.0972
      5 C         -10.5599  -18.7076   21.0369 C.ar    1  UNL1        0.0304
      6 C          -9.2420  -18.3912   21.6794 C.ar    1  UNL1        0.0205
      7 C          -4.2884  -16.6822   24.1514 C.3     1  UNL1        0.0540
      8 C          -4.9567  -17.5194   23.1015 C.ar    1  UNL1        0.0807
      9 N          -6.4194  -17.5147   22.7691 N.ar    1  UNL1       -0.1694
     10 N          -6.6463  -18.5008   21.6618 N.ar    1  UNL1       -0.2285
     11 C          -5.3238  -19.1149   21.3098 C.ar    1  UNL1        0.0840
     12 C          -4.9356  -20.1481   20.2940 C.ar    1  UNL1        0.0192
     13 C          -3.5031  -20.5747   20.1680 C.ar    1  UNL1        0.0015
     14 C          -2.4588  -19.9682   21.0577 C.ar    1  UNL1        0.0001
     15 C          -2.8471  -18.9350   22.0735 C.ar    1  UNL1        0.0027
     16 C          -4.2796  -18.5084   22.1995 C.ar    1  UNL1        0.0329
     17 C         -11.8377  -18.2816   21.6971 C.3     1  UNL1        0.1960
     18 C         -13.1154  -17.8556   22.3573 C.3     1  UNL1        0.0428
     19 O         -12.2286  -17.5330   20.4575 O.3     1  UNL1       -0.3751
     20 H         -11.5339  -17.6314   19.7877 H       1  UNL1        0.2110
     21 C         -11.4467  -19.0302   22.9368 C.3     1  UNL1        0.4231
     22 F         -11.0558  -19.7789   24.1764 F       1  UNL1       -0.1673
     23 F         -11.5168  -17.7575   23.7275 F       1  UNL1       -0.1673
     24 F         -11.2841  -20.4463   22.4695 F       1  UNL1       -0.1673
@<TRIPOS>BOND
     1     7     8    1
     2     8     9   ar
     3     9    10   ar
     4    10     1    1
     5     1     2   ar
     6     2     3   ar
     7     3     4   ar
     8     4     5   ar
     9     5    17    1
    10    17    18    1
    11    17    19    1
    12    17    21    1
    13    21    22    1
    14    21    23    1
    15    21    24    1
    16     5     6   ar
    17    10    11   ar
    18    11    12   ar
    19    12    13   ar
    20    13    14   ar
    21    14    15   ar
    22    15    16   ar
    23    16     8   ar
    24     6     1   ar
    25    16    11   ar
    26    19    20    1
@<TRIPOS>MOLECULE
*****
 24 26 0 0 0
SMALL
GASTEIGER

@<TRIPOS>ATOM
      1 C          -7.7059  -18.4917   21.2890 C.ar    1  UNL1        0.1017
      2 C          -7.4728  -19.3526   20.0829 C.ar    1  UNL1        0.1179
      3 N          -8.6364  -19.8278   19.2643 N.ar    1  UNL1       -0.2410
      4 C         -10.0333  -19.4422   19.6518 C.ar    1  UNL1        0.0972
      5 C         -10.2664  -18.5814   20.8579 C.ar    1  UNL1        0.0304
      6 C          -9.1027  -18.1062   21.6765 C.ar    1  UNL1        0.0205
      7 C          -2.8103  -17.8544   23.1617 C.3     1  UNL1        0.0540
      8 C          -4.2920  -17.7236   22.9684 C.ar    1  UNL1        0.0807
      9 N          -5.1146  -18.4465   21.9433 N.ar    1  UNL1       -0.1694
     10 N          -6.5423  -18.0165   22.1076 N.ar    1  UNL1       -0.2285
     11 C          -6.6020  -17.0279   23.2342 C.ar    1  UNL1        0.0840
     12 C          -7.7431  -16.2692   23.8443 C.ar    1  UNL1        0.0192
     13 C          -7.4934  -15.3295   24.9864 C.ar    1  UNL1        0.0015
     14 C          -6.1026  -15.1484   25.5184 C.ar    1  UNL1        0.0001
     15 C          -4.9616  -15.9071   24.9083 C.ar    1  UNL1        0.0027
     16 C          -5.2112  -16.8469   23.7662 C.ar    1  UNL1        0.0329
     17 C         -11.6632  -18.1958   21.2454 C.3     1  UNL1        0.1960
     18 C         -13.0601  -17.8102   21.6329 C.3     1  UNL1        0.0428
     19 O         -11.8522  -17.5387   19.9103 O.3     1  UNL1       -0.3751
     20 H         -11.0414  -17.6322   19.3862 H       1  UNL1        0.2110
     21 C         -11.4742  -18.8529   22.5805 C.3     1  UNL1        0.4231
     22 F         -11.2852  -19.5100   23.9156 F       1  UNL1       -0.1673
     23 F         -11.6398  -17.5247   23.2576 F       1  UNL1       -0.1673
     24 F         -11.2679  -20.3006   22.2465 F       1  UNL1       -0.1673
@<TRIPOS>BOND
     1     7     8    1
     2     8     9   ar
     3     9    10   ar
     4    10     1    1
     5     1     2   ar
     6     2     3   ar
     7     3     4   ar
     8     4     5   ar
     9     5    17    1
    10    17    18    1
    11    17    19    1
    12    17    21    1
    13    21    22    1
    14    21    23    1
    15    21    24    1
    16     5     6   ar
    17    10    11   ar
    18    11    12   ar
    19    12    13   ar
    20    13    14   ar
    21    14    15   ar
    22    15    16   ar
    23    16     8   ar
    24     6     1   ar
    25    16    11   ar
    26    19    20    1
@<TRIPOS>MOLECULE
*****
 24 26 0 0 0
SMALL
GASTEIGER

@<TRIPOS>ATOM
      1 C          -5.9417  -19.0305   21.6331 C.ar    1  UNL1        0.1017
      2 C          -6.4359  -20.2966   20.9983 C.ar    1  UNL1        0.1179
      3 N          -5.4986  -21.1478   20.1940 N.ar    1  UNL1       -0.2410
      4 C          -4.0671  -20.7330   20.0245 C.ar    1  UNL1        0.0972
      5 C          -3.5729  -19.4670   20.6593 C.ar    1  UNL1        0.0304
      6 C          -4.5102  -18.6158   21.4636 C.ar    1  UNL1        0.0205
      7 C          -7.9236  -15.0377   24.4634 C.3     1  UNL1        0.0540
      8 C          -7.7899  -16.3440   23.7383 C.ar    1  UNL1        0.0807
      9 N          -6.5700  -16.8288   23.0125 N.ar    1  UNL1       -0.1694
     10 N          -6.8790  -18.1793   22.4374 N.ar    1  UNL1       -0.2285
     11 C          -8.2898  -18.5292   22.8079 C.ar    1  UNL1        0.0840
     12 C          -9.1345  -19.7341   22.5170 C.ar    1  UNL1        0.0192
     13 C         -10.5422  -19.8047   23.0301 C.ar    1  UNL1        0.0015
     14 C         -11.1052  -18.6704   23.8341 C.ar    1  UNL1        0.0001
     15 C         -10.2605  -17.4655   24.1250 C.ar    1  UNL1        0.0027
     16 C          -8.8528  -17.3949   23.6119 C.ar    1  UNL1        0.0329
     17 C          -2.1414  -19.0522   20.4898 C.3     1  UNL1        0.1960
     18 C          -0.7099  -18.6374   20.3203 C.3     1  UNL1        0.0428
     19 O          -1.7157  -20.1341   21.4376 O.3     1  UNL1       -0.3751
     20 H          -2.4967  -20.6202   21.7452 H       1  UNL1        0.2110
     21 C          -2.5671  -17.9703   19.5421 C.3     1  UNL1        0.4231
     22 F          -2.9928  -16.8884   18.5943 F       1  UNL1       -0.1673
     23 F          -2.7680  -18.9937   18.4640 F       1  UNL1       -0.1673
     24 F          -2.4752  -16.7155   20.3588 F       1  UNL1       -0.1673
@<TRIPOS>BOND
     1     7     8    1
     2     8     9   ar
     3     9    10   ar
     4    10     1    1
     5     1     2   ar
     6     2     3   ar
     7     3     4   ar
     8     4     5   ar
     9     5    17    1
    10    17    18    1
    11    17    19    1
    12    17    21    1
    13    21    22    1
    14    21    23    1
    15    21    24    1
    16     5     6   ar
    17    10    11   ar
    18    11    12   ar
    19    12    13   ar
    20    13    14   ar
    21    14    15   ar
    22    15    16   ar
    23    16     8   ar
    24     6     1   ar
    25    16    11   ar
    26    19    20    1
@<TRIPOS>MOLECULE
*****
 24 26 0 0 0
SMALL
GASTEIGER

@<TRIPOS>ATOM
      1 C          -7.4814  -17.6125   22.8425 C.ar    1  UNL1        0.1017
      2 C          -6.9981  -16.4526   23.6618 C.ar    1  UNL1        0.1179
      3 N          -7.9860  -15.5451   24.3330 N.ar    1  UNL1       -0.2410
      4 C          -9.4572  -15.7974   24.1849 C.ar    1  UNL1        0.0972
      5 C          -9.9405  -16.9573   23.3657 C.ar    1  UNL1        0.0304
      6 C          -8.9526  -17.8648   22.6945 C.ar    1  UNL1        0.0205
      7 C          -5.4007  -21.4721   19.9006 C.3     1  UNL1        0.0540
      8 C          -5.5372  -20.2941   20.8191 C.ar    1  UNL1        0.0807
      9 N          -6.8252  -19.6644   21.2600 N.ar    1  UNL1       -0.1694
     10 N          -6.4935  -18.5200   22.1713 N.ar    1  UNL1       -0.2285
     11 C          -5.0005  -18.4425   22.2936 C.ar    1  UNL1        0.0840
     12 C          -4.1029  -17.5152   23.0580 C.ar    1  UNL1        0.0192
     13 C          -2.6142  -17.6843   22.9867 C.ar    1  UNL1        0.0015
     14 C          -2.0232  -18.7808   22.1510 C.ar    1  UNL1        0.0001
     15 C          -2.9208  -19.7081   21.3866 C.ar    1  UNL1        0.0027
     16 C          -4.4095  -19.5390   21.4579 C.ar    1  UNL1        0.0329
     17 C         -11.4116  -17.2096   23.2177 C.3     1  UNL1        0.1960
     18 C         -12.8828  -17.4619   23.0696 C.3     1  UNL1        0.0428
     19 O         -11.6034  -15.8046   22.7287 O.3     1  UNL1       -0.3751
     20 H         -10.7478  -15.3479   22.7135 H       1  UNL1        0.2110
     21 C         -11.2199  -18.6146   23.7067 C.3     1  UNL1        0.4231
     22 F         -11.0281  -20.0196   24.1957 F       1  UNL1       -0.1673
     23 F         -11.6513  -19.1390   22.3692 F       1  UNL1       -0.1673
     24 F         -10.7548  -18.4458   25.1227 F       1  UNL1       -0.1673
@<TRIPOS>BOND
     1     7     8    1
     2     8     9   ar
     3     9    10   ar
     4    10     1    1
     5     1     2   ar
     6     2     3   ar
     7     3     4   ar
     8     4     5   ar
     9     5    17    1
    10    17    18    1
    11    17    19    1
    12    17    21    1
    13    21    22    1
    14    21    23    1
    15    21    24    1
    16     5     6   ar
    17    10    11   ar
    18    11    12   ar
    19    12    13   ar
    20    13    14   ar
    21    14    15   ar
    22    15    16   ar
    23    16     8   ar
    24     6     1   ar
    25    16    11   ar
    26    19    20    1
@<TRIPOS>MOLECULE
*****
 24 26 0 0 0
SMALL
GASTEIGER

@<TRIPOS>ATOM
      1 C          -9.0153  -16.2631   22.5946 C.ar    1  UNL1        0.1017
      2 C          -9.1378  -15.6735   21.2207 C.ar    1  UNL1        0.1179
      3 N         -10.4551  -15.7086   20.5042 N.ar    1  UNL1       -0.2410
      4 C         -11.6500  -16.3334   21.1616 C.ar    1  UNL1        0.0972
      5 C         -11.5274  -16.9229   22.5354 C.ar    1  UNL1        0.0304
      6 C         -10.2101  -16.8878   23.2518 C.ar    1  UNL1        0.0205
      7 C          -3.8480  -16.6088   23.6242 C.3     1  UNL1        0.0540
      8 C          -5.3228  -16.3869   23.7843 C.ar    1  UNL1        0.0807
      9 N          -6.3606  -16.5519   22.7139 N.ar    1  UNL1       -0.1694
     10 N          -7.6979  -16.2280   23.3111 N.ar    1  UNL1       -0.2285
     11 C          -7.4866  -15.8628   24.7505 C.ar    1  UNL1        0.0840
     12 C          -8.4413  -15.4535   25.8327 C.ar    1  UNL1        0.0192
     13 C          -7.9280  -15.1424   27.2073 C.ar    1  UNL1        0.0015
     14 C          -6.4600  -15.2406   27.4998 C.ar    1  UNL1        0.0001
     15 C          -5.5054  -15.6498   26.4176 C.ar    1  UNL1        0.0027
     16 C          -6.0187  -15.9609   25.0430 C.ar    1  UNL1        0.0329
     17 C         -12.7223  -17.5476   23.1927 C.3     1  UNL1        0.1960
     18 C         -13.9171  -18.1724   23.8500 C.3     1  UNL1        0.0428
     19 O         -13.5018  -16.2845   22.9763 O.3     1  UNL1       -0.3751
     20 H         -12.9413  -15.6313   22.5289 H       1  UNL1        0.2110
     21 C         -11.9428  -18.8108   23.4091 C.3     1  UNL1        0.4231
     22 F         -11.1633  -20.0739   23.6255 F       1  UNL1       -0.1673
     23 F         -12.0660  -18.6325   24.8934 F       1  UNL1       -0.1673
     24 F         -11.6346  -19.2894   22.0213 F       1  UNL1       -0.1673
@<TRIPOS>BOND
     1     7     8    1
     2     8     9   ar
     3     9    10   ar
     4    10     1    1
     5     1     2   ar
     6     2     3   ar
     7     3     4   ar
     8     4     5   ar
     9     5    17    1
    10    17    18    1
    11    17    19    1
    12    17    21    1
    13    21    22    1
    14    21    23    1
    15    21    24    1
    16     5     6   ar
    17    10    11   ar
    18    11    12   ar
    19    12    13   ar
    20    13    14   ar
    21    14    15   ar
    22    15    16   ar
    23    16     8   ar
    24     6     1   ar
    25    16    11   ar
    26    19    20    1
@<TRIPOS>MOLECULE
*****
 24 26 0 0 0
SMALL
GASTEIGER

@<TRIPOS>ATOM
      1 C          -6.8317  -16.8896   23.5129 C.ar    1  UNL1        0.1017
      2 C          -6.6763  -15.7584   24.4858 C.ar    1  UNL1        0.1179
      3 N          -7.8898  -15.1220   25.0960 N.ar    1  UNL1       -0.2410
      4 C          -9.2587  -15.6167   24.7335 C.ar    1  UNL1        0.0972
      5 C          -9.4140  -16.7479   23.7607 C.ar    1  UNL1        0.0304
      6 C          -8.2005  -17.3843   23.1504 C.ar    1  UNL1        0.0205
      7 C          -1.8149  -17.9580   22.2594 C.3     1  UNL1        0.0540
      8 C          -3.3123  -18.0171   22.3265 C.ar    1  UNL1        0.0807
      9 N          -4.1953  -17.1100   23.1312 N.ar    1  UNL1       -0.1694
     10 N          -5.6182  -17.5260   22.9027 N.ar    1  UNL1       -0.2285
     11 C          -5.6146  -18.6902   21.9568 C.ar    1  UNL1        0.0840
     12 C          -6.7249  -19.5131   21.3737 C.ar    1  UNL1        0.0192
     13 C          -6.4101  -20.6395   20.4346 C.ar    1  UNL1        0.0015
     14 C          -4.9849  -20.9430   20.0785 C.ar    1  UNL1        0.0001
     15 C          -3.8746  -20.1201   20.6615 C.ar    1  UNL1        0.0027
     16 C          -4.1894  -18.9937   21.6007 C.ar    1  UNL1        0.0329
     17 C         -10.7829  -17.2426   23.3981 C.3     1  UNL1        0.1960
     18 C         -12.1517  -17.7373   23.0356 C.3     1  UNL1        0.0428
     19 O         -11.1491  -15.8721   22.9108 O.3     1  UNL1       -0.3751
     20 H         -10.3935  -15.2750   23.0268 H       1  UNL1        0.2110
     21 C         -10.4166  -18.6131   23.8855 C.3     1  UNL1        0.4231
     22 F         -10.0503  -19.9836   24.3728 F       1  UNL1       -0.1673
     23 F         -10.4889  -19.1322   22.4800 F       1  UNL1       -0.1673
     24 F         -10.2578  -18.4411   25.3671 F       1  UNL1       -0.1673
@<TRIPOS>BOND
     1     7     8    1
     2     8     9   ar
     3     9    10   ar
     4    10     1    1
     5     1     2   ar
     6     2     3   ar
     7     3     4   ar
     8     4     5   ar
     9     5    17    1
    10    17    18    1
    11    17    19    1
    12    17    21    1
    13    21    22    1
    14    21    23    1
    15    21    24    1
    16     5     6   ar
    17    10    11   ar
    18    11    12   ar
    19    12    13   ar
    20    13    14   ar
    21    14    15   ar
    22    15    16   ar
    23    16     8   ar
    24     6     1   ar
    25    16    11   ar
    26    19    20    1
@<TRIPOS>MOLECULE
*****
 24 26 0 0 0
SMALL
GASTEIGER

@<TRIPOS>ATOM
      1 C          -6.2018  -19.2200   21.5157 C.ar    1  UNL1        0.1017
      2 C          -6.3348  -20.5738   20.8834 C.ar    1  UNL1        0.1179
      3 N          -5.1851  -21.1613   20.1199 N.ar    1  UNL1       -0.2410
      4 C          -3.9023  -20.3950   19.9885 C.ar    1  UNL1        0.0972
      5 C          -3.7693  -19.0412   20.6207 C.ar    1  UNL1        0.0304
      6 C          -4.9190  -18.4538   21.3843 C.ar    1  UNL1        0.0205
      7 C         -11.0183  -18.4546   23.5394 C.3     1  UNL1        0.0540
      8 C          -9.5654  -18.2807   23.2094 C.ar    1  UNL1        0.0807
      9 N          -8.7468  -19.1807   22.3320 N.ar    1  UNL1       -0.1694
     10 N          -7.3515  -18.6326   22.2792 N.ar    1  UNL1       -0.2285
     11 C          -7.3078  -17.3939   23.1240 C.ar    1  UNL1        0.0840
     12 C          -6.1989  -16.4359   23.4441 C.ar    1  UNL1        0.0192
     13 C          -6.4583  -15.2604   24.3390 C.ar    1  UNL1        0.0015
     14 C          -7.8266  -15.0429   24.9139 C.ar    1  UNL1        0.0001
     15 C          -8.9355  -16.0010   24.5939 C.ar    1  UNL1        0.0027
     16 C          -8.6761  -17.1764   23.6989 C.ar    1  UNL1        0.0329
     17 C          -2.4865  -18.2749   20.4894 C.3     1  UNL1        0.1960
     18 C          -1.2038  -17.5086   20.3580 C.3     1  UNL1        0.0428
     19 O          -2.5305  -18.4564   19.0011 O.3     1  UNL1       -0.3751
     20 H          -3.3220  -18.9628   18.7603 H       1  UNL1        0.2110
     21 C          -2.4426  -18.0934   21.9777 C.3     1  UNL1        0.4231
     22 F          -2.3986  -17.9119   23.4660 F       1  UNL1       -0.1673
     23 F          -2.0676  -19.5364   22.1426 F       1  UNL1       -0.1673
     24 F          -2.7958  -16.6494   22.1778 F       1  UNL1       -0.1673
@<TRIPOS>BOND
     1     7     8    1
     2     8     9   ar
     3     9    10   ar
     4    10     1    1
     5     1     2   ar
     6     2     3   ar
     7     3     4   ar
     8     4     5   ar
     9     5    17    1
    10    17    18    1
    11    17    19    1
    12    17    21    1
    13    21    22    1
    14    21    23    1
    15    21    24    1
    16     5     6   ar
    17    10    11   ar
    18    11    12   ar
    19    12    13   ar
    20    13    14   ar
    21    14    15   ar
    22    15    16   ar
    23    16     8   ar
    24     6     1   ar
    25    16    11   ar
    26    19    20    1
@<TRIPOS>MOLECULE
*****
 24 26 0 0 0
SMALL
GASTEIGER

@<TRIPOS>ATOM
      1 C          -8.8734  -16.2421   22.5860 C.ar    1  UNL1        0.1017
      2 C          -9.0041  -15.6079   21.2329 C.ar    1  UNL1        0.1179
      3 N         -10.3293  -15.6066   20.5300 N.ar    1  UNL1       -0.2410
      4 C         -11.5238  -16.2394   21.1803 C.ar    1  UNL1        0.0972
      5 C         -11.3931  -16.8735   22.5333 C.ar    1  UNL1        0.0304
      6 C         -10.0679  -16.8749   23.2361 C.ar    1  UNL1        0.0205
      7 C          -4.9284  -14.9987   25.8680 C.3     1  UNL1        0.0540
      8 C          -5.7350  -15.6719   24.7973 C.ar    1  UNL1        0.0807
      9 N          -7.1349  -15.3160   24.3929 N.ar    1  UNL1       -0.1694
     10 N          -7.5483  -16.2435   23.2888 N.ar    1  UNL1       -0.2285
     11 C          -6.4039  -17.1725   23.0109 C.ar    1  UNL1        0.0840
     12 C          -6.2375  -18.2945   22.0294 C.ar    1  UNL1        0.0192
     13 C          -4.9504  -19.0632   21.9801 C.ar    1  UNL1        0.0015
     14 C          -3.8297  -18.7099   22.9125 C.ar    1  UNL1        0.0001
     15 C          -3.9961  -17.5880   23.8940 C.ar    1  UNL1        0.0027
     16 C          -5.2832  -16.8193   23.9432 C.ar    1  UNL1        0.0329
     17 C         -12.5875  -17.5063   23.1835 C.3     1  UNL1        0.1960
     18 C         -13.7820  -18.1391   23.8337 C.3     1  UNL1        0.0428
     19 O         -13.3567  -16.2300   23.0126 O.3     1  UNL1       -0.3751
     20 H         -12.7943  -15.5690   22.5793 H       1  UNL1        0.2110
     21 C         -11.8183  -18.7827   23.3544 C.3     1  UNL1        0.4231
     22 F         -11.0491  -20.0590   23.5253 F       1  UNL1       -0.1673
     23 F         -11.8846  -18.6231   24.8444 F       1  UNL1       -0.1673
     24 F         -11.5679  -19.2463   21.9501 F       1  UNL1       -0.1673
@<TRIPOS>BOND
     1     7     8    1
     2     8     9   ar
     3     9    10   ar
     4    10     1    1
     5     1     2   ar
     6     2     3   ar
     7     3     4   ar
     8     4     5   ar
     9     5    17    1
    10    17    18    1
    11    17    19    1
    12    17    21    1
    13    21    22    1
    14    21    23    1
    15    21    24    1
    16     5     6   ar
    17    10    11   ar
    18    11    12   ar
    19    12    13   ar
    20    13    14   ar
    21    14    15   ar
    22    15    16   ar
    23    16     8   ar
    24     6     1   ar
    25    16    11   ar
    26    19    20    1
