@<TRIPOS>MOLECULE
*****
 25 28 0 0 0
SMALL
GASTEIGER

@<TRIPOS>ATOM
      1 C         -10.0604  -18.6333   24.0852 C.ar    1  UNL1        0.1386
      2 C          -9.4085  -19.9444   23.7595 C.ar    1  UNL1        0.0369
      3 C          -8.1627  -19.9756   22.9246 C.ar    1  UNL1        0.0043
      4 C          -7.5688  -18.6957   22.4155 C.ar    1  UNL1        0.0152
      5 C          -8.2207  -17.3846   22.7413 C.ar    1  UNL1        0.0043
      6 C          -9.4665  -17.3534   23.5761 C.ar    1  UNL1        0.0369
      7 C          -6.3229  -18.7269   21.5807 C.2     1  UNL1        0.0763
      8 N          -6.4171  -18.6102   20.0882 N.2     1  UNL1       -0.1836
      9 N          -5.1713  -18.6414   19.2534 N.am    1  UNL1       -0.2062
     10 C          -3.8313  -18.7892   19.9110 C.2     1  UNL1        0.2410
     11 O          -2.5855  -18.8204   19.0761 O.2     1  UNL1       -0.2734
     12 C          -3.7371  -18.9059   21.4035 C.3     1  UNL1        0.0841
     13 C          -3.6429  -19.0225   22.8960 C.3     1  UNL1        0.0160
     14 C          -4.9829  -18.8747   22.2384 C.3     1  UNL1        0.0509
     15 H          -5.2332  -18.5649   18.2738 H       1  UNL1        0.1772
     16 O         -11.3062  -18.6021   24.9201 O.3     1  UNL1       -0.4754
     17 C         -12.6522  -18.5834   24.2584 C.3     1  UNL1        0.2068
     18 C         -12.9835  -17.5119   23.2624 C.3     1  UNL1        0.0646
     19 C         -13.1451  -17.8599   21.8123 C.3     1  UNL1        0.0759
     20 C         -11.2663  -15.9907   19.9081 C.3     1  UNL1        0.0173
     21 C         -11.0977  -17.4629   20.1402 C.3     1  UNL1        0.0576
     22 C         -10.0359  -18.3346   19.5379 C.3     1  UNL1        0.0174
     23 C         -10.2432  -19.7325   20.0408 C.3     1  UNL1        0.0187
     24 C         -11.4332  -19.7248   20.9540 C.3     1  UNL1        0.0721
     25 N         -11.9613  -18.3222   21.0155 N.3     1  UNL1       -0.2738
@<TRIPOS>BOND
     1    21    20    1
     2    21    22    1
     3    22    23    1
     4    23    24    1
     5    24    25    1
     6    25    19    1
     7    19    18    1
     8    18    17    1
     9    17    16    1
    10    16     1    1
    11     1     2   ar
    12     2     3   ar
    13     3     4   ar
    14     4     7    1
    15     7     8    2
    16     8     9    1
    17     9    10   am
    18    10    11    2
    19    10    12    1
    20    12    13    1
    21    14    13    1
    22     4     5   ar
    23     5     6   ar
    24    25    21    1
    25     6     1   ar
    26    14     7    1
    27    14    12    1
    28     9    15    1
@<TRIPOS>MOLECULE
*****
 25 28 0 0 0
SMALL
GASTEIGER

@<TRIPOS>ATOM
      1 C         -10.4580  -19.5309   21.2495 C.ar    1  UNL1        0.1386
      2 C          -9.6980  -19.7568   22.5228 C.ar    1  UNL1        0.0369
      3 C          -8.1985  -19.7874   22.5059 C.ar    1  UNL1        0.0043
      4 C          -7.4589  -19.5922   21.2155 C.ar    1  UNL1        0.0152
      5 C          -8.2189  -19.3663   19.9422 C.ar    1  UNL1        0.0043
      6 C          -9.7185  -19.3356   19.9592 C.ar    1  UNL1        0.0369
      7 C          -5.9593  -19.6228   21.1985 C.2     1  UNL1        0.0763
      8 N          -5.2381  -20.4964   20.2153 N.2     1  UNL1       -0.1836
      9 N          -3.7385  -20.5270   20.1983 N.am    1  UNL1       -0.2062
     10 C          -2.9601  -19.6841   21.1646 C.2     1  UNL1        0.2410
     11 O          -1.4605  -19.7148   21.1476 O.2     1  UNL1       -0.2734
     12 C          -3.6813  -18.8106   22.1478 C.3     1  UNL1        0.0841
     13 C          -4.4025  -17.9370   23.1310 C.3     1  UNL1        0.0160
     14 C          -5.1809  -18.7799   22.1648 C.3     1  UNL1        0.0509
     15 H          -3.2651  -21.1004   19.5530 H       1  UNL1        0.1772
     16 O         -11.9576  -19.5002   21.2664 O.3     1  UNL1       -0.4754
     17 C         -12.6791  -18.1988   21.4556 C.3     1  UNL1        0.2068
     18 C         -12.7825  -17.5904   22.8228 C.3     1  UNL1        0.0646
     19 C         -12.0504  -16.3191   23.1353 C.3     1  UNL1        0.0759
     20 C         -10.2887  -15.6756   20.4647 C.3     1  UNL1        0.0173
     21 C          -9.7433  -15.9811   21.8281 C.3     1  UNL1        0.0576
     22 C          -8.2924  -16.0445   22.2036 C.3     1  UNL1        0.0174
     23 C          -8.2054  -16.3794   23.6631 C.3     1  UNL1        0.0187
     24 C          -9.6026  -16.5230   24.1898 C.3     1  UNL1        0.0721
     25 N         -10.5531  -16.2769   23.0557 N.3     1  UNL1       -0.2738
@<TRIPOS>BOND
     1    21    20    1
     2    21    22    1
     3    22    23    1
     4    23    24    1
     5    24    25    1
     6    25    19    1
     7    19    18    1
     8    18    17    1
     9    17    16    1
    10    16     1    1
    11     1     2   ar
    12     2     3   ar
    13     3     4   ar
    14     4     7    1
    15     7     8    2
    16     8     9    1
    17     9    10   am
    18    10    11    2
    19    10    12    1
    20    12    13    1
    21    14    13    1
    22     4     5   ar
    23     5     6   ar
    24    25    21    1
    25     6     1   ar
    26    14     7    1
    27    14    12    1
    28     9    15    1
@<TRIPOS>MOLECULE
*****
 25 28 0 0 0
SMALL
GASTEIGER

@<TRIPOS>ATOM
      1 C          -8.6916  -19.5873   21.0620 C.ar    1  UNL1        0.1386
      2 C          -7.8413  -19.3995   22.2834 C.ar    1  UNL1        0.0369
      3 C          -6.3649  -19.1750   22.1422 C.ar    1  UNL1        0.0043
      4 C          -5.7389  -19.1384   20.7795 C.ar    1  UNL1        0.0152
      5 C          -6.5892  -19.3263   19.5582 C.ar    1  UNL1        0.0043
      6 C          -8.0655  -19.5507   19.6995 C.ar    1  UNL1        0.0369
      7 C          -4.2625  -18.9140   20.6382 C.2     1  UNL1        0.0763
      8 N          -3.5933  -19.1365   19.3144 N.2     1  UNL1       -0.1836
      9 N          -2.1169  -18.9121   19.1731 N.am    1  UNL1       -0.2062
     10 C          -1.3097  -18.4651   20.3557 C.2     1  UNL1        0.2410
     11 O           0.1666  -18.2407   20.2144 O.2     1  UNL1       -0.2734
     12 C          -1.9789  -18.2425   21.6796 C.3     1  UNL1        0.0841
     13 C          -2.6481  -18.0200   23.0035 C.3     1  UNL1        0.0160
     14 C          -3.4553  -18.4670   21.8209 C.3     1  UNL1        0.0509
     15 H          -1.6778  -19.0582   18.3042 H       1  UNL1        0.1772
     16 O         -10.1680  -19.8118   21.2033 O.3     1  UNL1       -0.4754
     17 C         -11.1358  -18.8356   20.6031 C.3     1  UNL1        0.2068
     18 C         -10.8851  -17.3614   20.7221 C.3     1  UNL1        0.0646
     19 C         -11.2054  -16.6471   22.0016 C.3     1  UNL1        0.0759
     20 C         -11.6114  -18.9028   24.3247 C.3     1  UNL1        0.0173
     21 C         -10.5194  -17.8759   24.2742 C.3     1  UNL1        0.0576
     22 C          -9.4221  -17.7053   25.2827 C.3     1  UNL1        0.0174
     23 C          -8.5573  -16.5632   24.8382 C.3     1  UNL1        0.0187
     24 C          -9.1201  -16.0277   23.5550 C.3     1  UNL1        0.0721
     25 N         -10.3327  -16.8390   23.2064 N.3     1  UNL1       -0.2738
@<TRIPOS>BOND
     1    21    20    1
     2    21    22    1
     3    22    23    1
     4    23    24    1
     5    24    25    1
     6    25    19    1
     7    19    18    1
     8    18    17    1
     9    17    16    1
    10    16     1    1
    11     1     2   ar
    12     2     3   ar
    13     3     4   ar
    14     4     7    1
    15     7     8    2
    16     8     9    1
    17     9    10   am
    18    10    11    2
    19    10    12    1
    20    12    13    1
    21    14    13    1
    22     4     5   ar
    23     5     6   ar
    24    25    21    1
    25     6     1   ar
    26    14     7    1
    27    14    12    1
    28     9    15    1
@<TRIPOS>MOLECULE
*****
 25 28 0 0 0
SMALL
GASTEIGER

@<TRIPOS>ATOM
      1 C          -8.0015  -17.4450   23.4871 C.ar    1  UNL1        0.1386
      2 C          -6.8203  -16.6329   23.9293 C.ar    1  UNL1        0.0369
      3 C          -5.4696  -16.8845   23.3275 C.ar    1  UNL1        0.0043
      4 C          -5.3000  -17.9482   22.2834 C.ar    1  UNL1        0.0152
      5 C          -6.4812  -18.7602   21.8413 C.ar    1  UNL1        0.0043
      6 C          -7.8319  -18.5086   22.4431 C.ar    1  UNL1        0.0369
      7 C          -3.9493  -18.1998   21.6816 C.2     1  UNL1        0.0763
      8 N          -3.6371  -19.5337   21.0708 N.2     1  UNL1       -0.1836
      9 N          -2.2863  -19.7854   20.4689 N.am    1  UNL1       -0.2062
     10 C          -1.2478  -18.7031   20.4779 C.2     1  UNL1        0.2410
     11 O           0.1029  -18.9547   19.8761 O.2     1  UNL1       -0.2734
     12 C          -1.5600  -17.3691   21.0888 C.3     1  UNL1        0.0841
     13 C          -1.8723  -16.0352   21.6996 C.3     1  UNL1        0.0160
     14 C          -2.9108  -17.1175   21.6906 C.3     1  UNL1        0.0509
     15 H          -2.0814  -20.6609   20.0680 H       1  UNL1        0.1772
     16 O          -9.3522  -17.1933   24.0889 O.3     1  UNL1       -0.4754
     17 C         -10.2686  -16.1761   23.4762 C.3     1  UNL1        0.2068
     18 C         -11.7235  -16.4917   23.2922 C.3     1  UNL1        0.0646
     19 C         -12.1424  -17.8558   22.8301 C.3     1  UNL1        0.0759
     20 C         -11.6001  -16.4311   19.9447 C.3     1  UNL1        0.0173
     21 C         -11.2194  -17.8321   20.3216 C.3     1  UNL1        0.0576
     22 C         -10.5226  -18.8244   19.4384 C.3     1  UNL1        0.0174
     23 C         -10.3412  -20.0924   20.2189 C.3     1  UNL1        0.0187
     24 C         -10.9259  -19.8840   21.5844 C.3     1  UNL1        0.0721
     25 N         -11.4687  -18.4871   21.6479 N.3     1  UNL1       -0.2738
@<TRIPOS>BOND
     1    21    20    1
     2    21    22    1
     3    22    23    1
     4    23    24    1
     5    24    25    1
     6    25    19    1
     7    19    18    1
     8    18    17    1
     9    17    16    1
    10    16     1    1
    11     1     2   ar
    12     2     3   ar
    13     3     4   ar
    14     4     7    1
    15     7     8    2
    16     8     9    1
    17     9    10   am
    18    10    11    2
    19    10    12    1
    20    12    13    1
    21    14    13    1
    22     4     5   ar
    23     5     6   ar
    24    25    21    1
    25     6     1   ar
    26    14     7    1
    27    14    12    1
    28     9    15    1
@<TRIPOS>MOLECULE
*****
 25 28 0 0 0
SMALL
GASTEIGER

@<TRIPOS>ATOM
      1 C         -11.1247   -3.0977   17.4014 C.ar    1  UNL1        0.1386
      2 C         -12.4255   -3.4228   16.7288 C.ar    1  UNL1        0.0369
      3 C         -13.7143   -2.9128   17.3024 C.ar    1  UNL1        0.0043
      4 C         -13.7022   -2.0777   18.5484 C.ar    1  UNL1        0.0152
      5 C         -12.4015   -1.7527   19.2209 C.ar    1  UNL1        0.0043
      6 C         -11.1127   -2.2627   18.6474 C.ar    1  UNL1        0.0369
      7 C         -14.9910   -1.5677   19.1219 C.2     1  UNL1        0.0763
      8 N         -16.0116   -2.5327   19.6483 N.2     1  UNL1       -0.1836
      9 N         -17.3004   -2.0227   20.2219 N.am    1  UNL1       -0.2062
     10 C         -17.5686   -0.5477   20.2690 C.2     1  UNL1        0.2410
     11 O         -18.8574   -0.0377   20.8425 O.2     1  UNL1       -0.2734
     12 C         -16.5480    0.4174   19.7426 C.3     1  UNL1        0.0841
     13 C         -15.5275    1.3825   19.2161 C.3     1  UNL1        0.0160
     14 C         -15.2592   -0.0926   19.1690 C.3     1  UNL1        0.0509
     15 H         -17.9702   -2.6561   20.5674 H       1  UNL1        0.1772
     16 O          -9.8359   -3.6077   16.8278 O.3     1  UNL1       -0.4754
     17 C          -9.3155   -4.9547   17.2336 C.3     1  UNL1        0.2068
     18 C          -9.6293   -5.5011   18.5948 C.3     1  UNL1        0.0646
     19 C         -10.3626   -6.8026   18.7298 C.3     1  UNL1        0.0759
     20 C         -13.2018   -5.6219   19.8228 C.3     1  UNL1        0.0173
     21 C         -13.0064   -6.4376   18.5794 C.3     1  UNL1        0.0576
     22 C         -14.0817   -6.8539   17.6199 C.3     1  UNL1        0.0174
     23 C         -13.4413   -7.6539   16.5245 C.3     1  UNL1        0.0187
     24 C         -11.9702   -7.7320   16.8070 C.3     1  UNL1        0.0721
     25 N         -11.7014   -6.9804   18.0769 N.3     1  UNL1       -0.2738
@<TRIPOS>BOND
     1    21    20    1
     2    21    22    1
     3    22    23    1
     4    23    24    1
     5    24    25    1
     6    25    19    1
     7    19    18    1
     8    18    17    1
     9    17    16    1
    10    16     1    1
    11     1     2   ar
    12     2     3   ar
    13     3     4   ar
    14     4     7    1
    15     7     8    2
    16     8     9    1
    17     9    10   am
    18    10    11    2
    19    10    12    1
    20    12    13    1
    21    14    13    1
    22     4     5   ar
    23     5     6   ar
    24    25    21    1
    25     6     1   ar
    26    14     7    1
    27    14    12    1
    28     9    15    1
@<TRIPOS>MOLECULE
*****
 25 28 0 0 0
SMALL
GASTEIGER

@<TRIPOS>ATOM
      1 C           5.4838   -2.2844   18.0870 C.ar    1  UNL1        0.1386
      2 C           6.8874   -1.9573   18.5032 C.ar    1  UNL1        0.0369
      3 C           7.5295   -2.7087   19.6315 C.ar    1  UNL1        0.0043
      4 C           6.7680   -3.7872   20.3436 C.ar    1  UNL1        0.0152
      5 C           5.3645   -4.1143   19.9274 C.ar    1  UNL1        0.0043
      6 C           4.7224   -3.3629   18.7991 C.ar    1  UNL1        0.0369
      7 C           7.4101   -4.5386   21.4720 C.2     1  UNL1        0.0763
      8 N           8.4645   -5.5660   21.1848 N.2     1  UNL1       -0.1836
      9 N           9.1066   -6.3174   22.3131 N.am    1  UNL1       -0.2062
     10 C           8.6943   -6.0414   23.7286 C.2     1  UNL1        0.2410
     11 O           9.3363   -6.7928   24.8570 O.2     1  UNL1       -0.2734
     12 C           7.6398   -5.0139   24.0159 C.3     1  UNL1        0.0841
     13 C           6.5853   -3.9865   24.3031 C.3     1  UNL1        0.0160
     14 C           6.9977   -4.2625   22.8876 C.3     1  UNL1        0.0509
     15 H           9.7987   -6.9918   22.1246 H       1  UNL1        0.1772
     16 O           4.8417   -1.5331   16.9586 O.3     1  UNL1       -0.4754
     17 C           3.8979   -0.4043   17.2503 C.3     1  UNL1        0.2068
     18 C           4.4003    0.8384   17.9236 C.3     1  UNL1        0.0646
     19 C           3.9411    1.1779   19.3106 C.3     1  UNL1        0.0759
     20 C           1.6134   -0.9021   20.2623 C.3     1  UNL1        0.0173
     21 C           2.9904   -0.7923   20.8468 C.3     1  UNL1        0.0576
     22 C           3.5394   -1.6193   21.9715 C.3     1  UNL1        0.0174
     23 C           4.9485   -1.1744   22.2291 C.3     1  UNL1        0.0187
     24 C           5.2705   -0.0724   21.2637 C.3     1  UNL1        0.0721
     25 N           4.0604    0.1638   20.4094 N.3     1  UNL1       -0.2738
@<TRIPOS>BOND
     1    21    20    1
     2    21    22    1
     3    22    23    1
     4    23    24    1
     5    24    25    1
     6    25    19    1
     7    19    18    1
     8    18    17    1
     9    17    16    1
    10    16     1    1
    11     1     2   ar
    12     2     3   ar
    13     3     4   ar
    14     4     7    1
    15     7     8    2
    16     8     9    1
    17     9    10   am
    18    10    11    2
    19    10    12    1
    20    12    13    1
    21    14    13    1
    22     4     5   ar
    23     5     6   ar
    24    25    21    1
    25     6     1   ar
    26    14     7    1
    27    14    12    1
    28     9    15    1
@<TRIPOS>MOLECULE
*****
 25 28 0 0 0
SMALL
GASTEIGER

@<TRIPOS>ATOM
      1 C         -11.3043   -3.0896   17.5201 C.ar    1  UNL1        0.1386
      2 C         -12.5365   -3.3978   16.7221 C.ar    1  UNL1        0.0369
      3 C         -13.8898   -3.0498   17.2676 C.ar    1  UNL1        0.0043
      4 C         -14.0108   -2.3937   18.6111 C.ar    1  UNL1        0.0152
      5 C         -12.7786   -2.0856   19.4090 C.ar    1  UNL1        0.0043
      6 C         -11.4254   -2.4335   18.8635 C.ar    1  UNL1        0.0369
      7 C         -15.3641   -2.0458   19.1566 C.2     1  UNL1        0.0763
      8 N         -15.6778   -0.6293   19.5373 N.2     1  UNL1       -0.1836
      9 N         -17.0310   -0.2813   20.0828 N.am    1  UNL1       -0.2062
     10 C         -18.0706   -1.3500   20.2476 C.2     1  UNL1        0.2410
     11 O         -19.4239   -1.0020   20.7932 O.2     1  UNL1       -0.2734
     12 C         -17.7570   -2.7666   19.8670 C.3     1  UNL1        0.0841
     13 C         -17.4433   -4.1831   19.4863 C.3     1  UNL1        0.0160
     14 C         -16.4037   -3.1145   19.3214 C.3     1  UNL1        0.0509
     15 H         -17.2369    0.6484   20.3327 H       1  UNL1        0.1772
     16 O          -9.9510   -3.4375   16.9746 O.3     1  UNL1       -0.4754
     17 C          -9.3641   -4.7935   17.2330 C.3     1  UNL1        0.2068
     18 C          -9.5841   -5.4663   18.5555 C.3     1  UNL1        0.0646
     19 C         -10.4232   -6.7070   18.6354 C.3     1  UNL1        0.0759
     20 C         -12.2977   -7.7930   16.1948 C.3     1  UNL1        0.0173
     21 C         -12.7797   -7.1068   17.4384 C.3     1  UNL1        0.0576
     22 C         -14.2078   -6.7993   17.7787 C.3     1  UNL1        0.0174
     23 C         -14.2289   -6.1101   19.1108 C.3     1  UNL1        0.0187
     24 C         -12.8137   -5.9916   19.5939 C.3     1  UNL1        0.0721
     25 N         -11.9180   -6.6076   18.5603 N.3     1  UNL1       -0.2738
@<TRIPOS>BOND
     1    21    20    1
     2    21    22    1
     3    22    23    1
     4    23    24    1
     5    24    25    1
     6    25    19    1
     7    19    18    1
     8    18    17    1
     9    17    16    1
    10    16     1    1
    11     1     2   ar
    12     2     3   ar
    13     3     4   ar
    14     4     7    1
    15     7     8    2
    16     8     9    1
    17     9    10   am
    18    10    11    2
    19    10    12    1
    20    12    13    1
    21    14    13    1
    22     4     5   ar
    23     5     6   ar
    24    25    21    1
    25     6     1   ar
    26    14     7    1
    27    14    12    1
    28     9    15    1
@<TRIPOS>MOLECULE
*****
 25 28 0 0 0
SMALL
GASTEIGER

@<TRIPOS>ATOM
      1 C           5.3671   -2.6361   18.7766 C.ar    1  UNL1        0.1386
      2 C           4.3720   -3.4101   19.5895 C.ar    1  UNL1        0.0369
      3 C           4.7241   -3.8596   20.9766 C.ar    1  UNL1        0.0043
      4 C           6.0713   -3.5350   21.5508 C.ar    1  UNL1        0.0152
      5 C           7.0664   -2.7611   20.7379 C.ar    1  UNL1        0.0043
      6 C           6.7143   -2.3117   19.3508 C.ar    1  UNL1        0.0369
      7 C           6.4234   -3.9845   22.9379 C.2     1  UNL1        0.0763
      8 N           5.7150   -3.3931   24.1204 N.2     1  UNL1       -0.1836
      9 N           6.0671   -3.8425   25.5075 N.am    1  UNL1       -0.2062
     10 C           7.1276   -4.8834   25.7121 C.2     1  UNL1        0.2410
     11 O           7.4797   -5.3328   27.0992 O.2     1  UNL1       -0.2734
     12 C           7.8360   -5.4749   24.5295 C.3     1  UNL1        0.0841
     13 C           8.5444   -6.0663   23.3470 C.3     1  UNL1        0.0160
     14 C           7.4839   -5.0254   23.1424 C.3     1  UNL1        0.0509
     15 H           5.6021   -3.4543   26.2836 H       1  UNL1        0.1772
     16 O           5.0151   -2.1867   17.3895 O.3     1  UNL1       -0.4754
     17 C           4.0824   -1.0290   17.1903 C.3     1  UNL1        0.2068
     18 C           4.4446    0.3260   17.7221 C.3     1  UNL1        0.0646
     19 C           3.6423    0.9344   18.8340 C.3     1  UNL1        0.0759
     20 C           1.1875   -0.7270   20.1990 C.3     1  UNL1        0.0173
     21 C           2.5240   -0.4567   20.8238 C.3     1  UNL1        0.0576
     22 C           2.9670   -0.9026   22.1858 C.3     1  UNL1        0.0174
     23 C           4.3691   -0.4146   22.4002 C.3     1  UNL1        0.0187
     24 C           4.7927    0.3329   21.1706 C.3     1  UNL1        0.0721
     25 N           3.6524    0.3069   20.1964 N.3     1  UNL1       -0.2738
@<TRIPOS>BOND
     1    21    20    1
     2    21    22    1
     3    22    23    1
     4    23    24    1
     5    24    25    1
     6    25    19    1
     7    19    18    1
     8    18    17    1
     9    17    16    1
    10    16     1    1
    11     1     2   ar
    12     2     3   ar
    13     3     4   ar
    14     4     7    1
    15     7     8    2
    16     8     9    1
    17     9    10   am
    18    10    11    2
    19    10    12    1
    20    12    13    1
    21    14    13    1
    22     4     5   ar
    23     5     6   ar
    24    25    21    1
    25     6     1   ar
    26    14     7    1
    27    14    12    1
    28     9    15    1
