@<TRIPOS>MOLECULE
*****
 35 37 0 0 0
SMALL
GASTEIGER

@<TRIPOS>ATOM
      1 C           6.9068   -4.6210   25.8282 C.ar    1  UNL1        0.0505
      2 C           7.7657   -5.8420   25.6826 C.ar    1  UNL1        0.0170
      3 C           8.3257   -6.2094   24.3404 C.ar    1  UNL1        0.0307
      4 C           8.0268   -5.3557   23.1438 C.ar    1  UNL1        0.1402
      5 F           8.5868   -5.7231   21.8017 F       1  UNL1       -0.2044
      6 C           7.1678   -4.1346   23.2894 C.ar    1  UNL1        0.0528
      7 C           6.6078   -3.7672   24.6316 C.ar    1  UNL1        0.0167
      8 C           6.8688   -3.2810   22.0928 C.3     1  UNL1        0.2223
      9 C           8.0547   -2.5479   22.6460 C.3     1  UNL1        0.0607
     10 C           5.7866   -4.3106   21.9552 C.3     1  UNL1        0.1959
     11 O           4.8174   -4.2318   20.8131 O.3     1  UNL1       -0.3357
     12 C           4.9303   -3.1235   19.8086 C.3     1  UNL1        0.2740
     13 C           4.6314   -2.2699   18.6120 C.3     1  UNL1        0.0512
     14 C           6.0125   -2.0939   19.9462 C.2     1  UNL1        0.3217
     15 N           6.1254   -0.9857   18.9417 N.pl3   1  UNL1       -0.2480
     16 N           6.9817   -2.1727   21.0883 N.2     1  UNL1       -0.0692
     17 H           5.4893   -0.9340   18.1921 H       1  UNL1        0.2882
     18 H           6.8357   -0.3100   19.0320 H       1  UNL1        0.2882
     19 C           3.7443   -3.8567   19.2554 C.3     1  UNL1        0.4305
     20 F           2.5584   -4.5899   18.7022 F       1  UNL1       -0.1670
     21 F           2.8440   -2.7503   19.7193 F       1  UNL1       -0.1670
     22 F           4.6448   -4.9630   18.7915 F       1  UNL1       -0.1670
     23 C           7.2406   -3.6617   28.2195 C.2     1  UNL1        0.2669
     24 O           8.6944   -3.4371   27.9264 O.2     1  UNL1       -0.2682
     25 N           6.3468   -4.2536   27.1704 N.am    1  UNL1       -0.2792
     26 H           5.3926   -4.4010   27.3627 H       1  UNL1        0.1552
     27 C           5.5606   -2.5596   32.2460 C.ar    1  UNL1        0.1575
     28 C           5.3817   -1.6335   31.0797 C.ar    1  UNL1        0.1357
     29 N           5.9417   -2.0009   29.7375 N.ar    1  UNL1       -0.2364
     30 C           6.6806   -3.2943   29.5616 C.ar    1  UNL1        0.1310
     31 C           6.8595   -4.2204   30.7280 C.ar    1  UNL1        0.0033
     32 C           7.5985   -5.5139   30.5521 C.3     1  UNL1        0.0329
     33 C           6.2995   -3.8530   32.0701 C.ar    1  UNL1        0.0359
     34 C           4.2450   -0.9078   33.7595 C.3     1  UNL1        0.2525
     35 O           5.0006   -2.1922   33.5882 O.3     1  UNL1       -0.4699
@<TRIPOS>BOND
     1    34    35    1
     2    35    27    1
     3    27    28   ar
     4    28    29   ar
     5    29    30   ar
     6    30    23    1
     7    23    24    2
     8    23    25   am
     9    25     1    1
    10     1     2   ar
    11     2     3   ar
    12     3     4   ar
    13     4     5    1
    14     4     6   ar
    15     6     8    1
    16     8     9    1
    17     8    10    1
    18    10    11    1
    19    11    12    1
    20    12    13    1
    21    12    19    1
    22    19    20    1
    23    19    21    1
    24    19    22    1
    25    12    14    1
    26    14    15    1
    27    14    16    2
    28     6     7   ar
    29    30    31   ar
    30    31    32    1
    31    31    33   ar
    32    33    27   ar
    33     7     1   ar
    34    16     8    1
    35    25    26    1
    36    15    17    1
    37    15    18    1
@<TRIPOS>MOLECULE
*****
 35 37 0 0 0
SMALL
GASTEIGER

@<TRIPOS>ATOM
      1 C          -5.8294  -16.0684   24.1151 C.ar    1  UNL1        0.0505
      2 C          -5.4277  -15.3177   25.3500 C.ar    1  UNL1        0.0170
      3 C          -6.3818  -15.2033   26.5018 C.ar    1  UNL1        0.0307
      4 C          -7.7375  -15.8396   26.4187 C.ar    1  UNL1        0.1402
      5 F          -8.6916  -15.7252   27.5705 F       1  UNL1       -0.2044
      6 C          -8.1393  -16.5904   25.1837 C.ar    1  UNL1        0.0528
      7 C          -7.1852  -16.7048   24.0319 C.ar    1  UNL1        0.0167
      8 C          -9.4951  -17.2267   25.1006 C.3     1  UNL1        0.2223
      9 C          -9.0120  -17.8109   26.3949 C.3     1  UNL1        0.0607
     10 C          -9.5072  -16.4215   23.8351 C.3     1  UNL1        0.1959
     11 O         -10.7075  -16.4555   22.9361 O.3     1  UNL1       -0.3357
     12 C         -11.8955  -17.2947   23.3025 C.3     1  UNL1        0.2740
     13 C         -13.2513  -17.9311   23.2194 C.3     1  UNL1        0.0512
     14 C         -11.8833  -18.1000   24.5680 C.2     1  UNL1        0.3217
     15 N         -13.0714  -18.9392   24.9344 N.pl3   1  UNL1       -0.2480
     16 N         -10.6831  -18.0659   25.4670 N.2     1  UNL1       -0.0692
     17 H         -13.8591  -18.9615   24.3443 H       1  UNL1        0.2882
     18 H         -13.0634  -19.4677   25.7650 H       1  UNL1        0.2882
     19 C         -12.3785  -16.7105   22.0081 C.3     1  UNL1        0.4305
     20 F         -12.8615  -16.1261   20.7138 F       1  UNL1       -0.1670
     21 F         -12.2592  -18.0561   21.3561 F       1  UNL1       -0.1670
     22 F         -12.4978  -15.3649   22.6602 F       1  UNL1       -0.1670
     23 C          -4.0786  -17.4391   22.7713 C.2     1  UNL1        0.2669
     24 O          -4.2360  -18.5810   23.7310 O.2     1  UNL1       -0.2682
     25 N          -4.8753  -16.1828   22.9633 N.am    1  UNL1       -0.2792
     26 H          -4.7720  -15.4333   22.3334 H       1  UNL1        0.1552
     27 C          -1.2164  -17.7822   19.3159 C.ar    1  UNL1        0.1575
     28 C          -0.9647  -16.7781   20.4013 C.ar    1  UNL1        0.1357
     29 N          -1.9188  -16.6637   21.5531 N.ar    1  UNL1       -0.2364
     30 C          -3.1245  -17.5535   21.6195 C.ar    1  UNL1        0.1310
     31 C          -3.3762  -18.5577   20.5340 C.ar    1  UNL1        0.0033
     32 C          -4.5819  -19.4475   20.6003 C.3     1  UNL1        0.0329
     33 C          -2.4221  -18.6720   19.3822 C.ar    1  UNL1        0.0359
     34 C          -0.7805  -17.8810   16.7565 C.3     1  UNL1        0.2525
     35 O          -0.2623  -17.8966   18.1641 O.3     1  UNL1       -0.4699
@<TRIPOS>BOND
     1    34    35    1
     2    35    27    1
     3    27    28   ar
     4    28    29   ar
     5    29    30   ar
     6    30    23    1
     7    23    24    2
     8    23    25   am
     9    25     1    1
    10     1     2   ar
    11     2     3   ar
    12     3     4   ar
    13     4     5    1
    14     4     6   ar
    15     6     8    1
    16     8     9    1
    17     8    10    1
    18    10    11    1
    19    11    12    1
    20    12    13    1
    21    12    19    1
    22    19    20    1
    23    19    21    1
    24    19    22    1
    25    12    14    1
    26    14    15    1
    27    14    16    2
    28     6     7   ar
    29    30    31   ar
    30    31    32    1
    31    31    33   ar
    32    33    27   ar
    33     7     1   ar
    34    16     8    1
    35    25    26    1
    36    15    17    1
    37    15    18    1
@<TRIPOS>MOLECULE
*****
 35 37 0 0 0
SMALL
GASTEIGER

@<TRIPOS>ATOM
      1 C          -0.1637    1.8879   20.1299 C.ar    1  UNL1        0.0505
      2 C           0.4841    2.7144   19.0589 C.ar    1  UNL1        0.0170
      3 C           1.9148    2.4666   18.6826 C.ar    1  UNL1        0.0307
      4 C           2.6977    1.3922   19.3773 C.ar    1  UNL1        0.1402
      5 F           4.1285    1.1443   19.0010 F       1  UNL1       -0.2044
      6 C           2.0499    0.5656   20.4484 C.ar    1  UNL1        0.0528
      7 C           0.6192    0.8134   20.8247 C.ar    1  UNL1        0.0167
      8 C           2.8328   -0.5088   21.1431 C.3     1  UNL1        0.2223
      9 C           2.6276    0.4430   22.2840 C.3     1  UNL1        0.0607
     10 C           2.7662   -1.0876   19.7608 C.3     1  UNL1        0.1959
     11 O           3.4112   -2.4101   19.4696 O.3     1  UNL1       -0.3357
     12 C           4.1229   -3.1540   20.5606 C.3     1  UNL1        0.2740
     13 C           4.9058   -4.2284   21.2553 C.3     1  UNL1        0.0512
     14 C           4.1895   -2.5752   21.9429 C.2     1  UNL1        0.3217
     15 N           4.9011   -3.3191   23.0339 N.pl3   1  UNL1       -0.2480
     16 N           3.5445   -1.2527   22.2341 N.2     1  UNL1       -0.0692
     17 H           5.3245   -4.1871   22.8427 H       1  UNL1        0.2882
     18 H           4.9449   -2.9392   23.9411 H       1  UNL1        0.2882
     19 C           4.3281   -4.1058   19.4196 C.3     1  UNL1        0.4305
     20 F           4.5332   -5.0576   18.2785 F       1  UNL1       -0.1670
     21 F           5.8139   -3.9804   19.5821 F       1  UNL1       -0.1670
     22 F           2.8422   -4.2311   19.2571 F       1  UNL1       -0.1670
     23 C          -1.9701    3.3867   21.2437 C.2     1  UNL1        0.2669
     24 O          -0.9150    4.3898   21.6049 O.2     1  UNL1       -0.2682
     25 N          -1.5944    2.1357   20.5062 N.am    1  UNL1       -0.2792
     26 H          -2.2869    1.4773   20.2691 H       1  UNL1        0.1552
     27 C          -6.2622    4.1302   22.3725 C.ar    1  UNL1        0.1575
     28 C          -5.8607    4.1027   20.9276 C.ar    1  UNL1        0.1357
     29 N          -4.4300    3.8548   20.5513 N.ar    1  UNL1       -0.2364
     30 C          -3.4008    3.6345   21.6200 C.ar    1  UNL1        0.1310
     31 C          -3.8023    3.6621   23.0649 C.ar    1  UNL1        0.0033
     32 C          -2.7731    3.4418   24.1337 C.3     1  UNL1        0.0329
     33 C          -5.2330    3.9099   23.4412 C.ar    1  UNL1        0.0359
     34 C          -8.0183    5.1547   23.9902 C.3     1  UNL1        0.2525
     35 O          -7.6930    4.3781   22.7488 O.3     1  UNL1       -0.4699
@<TRIPOS>BOND
     1    34    35    1
     2    35    27    1
     3    27    28   ar
     4    28    29   ar
     5    29    30   ar
     6    30    23    1
     7    23    24    2
     8    23    25   am
     9    25     1    1
    10     1     2   ar
    11     2     3   ar
    12     3     4   ar
    13     4     5    1
    14     4     6   ar
    15     6     8    1
    16     8     9    1
    17     8    10    1
    18    10    11    1
    19    11    12    1
    20    12    13    1
    21    12    19    1
    22    19    20    1
    23    19    21    1
    24    19    22    1
    25    12    14    1
    26    14    15    1
    27    14    16    2
    28     6     7   ar
    29    30    31   ar
    30    31    32    1
    31    31    33   ar
    32    33    27   ar
    33     7     1   ar
    34    16     8    1
    35    25    26    1
    36    15    17    1
    37    15    18    1
@<TRIPOS>MOLECULE
*****
 35 37 0 0 0
SMALL
GASTEIGER

@<TRIPOS>ATOM
      1 C           0.0226    1.8294   21.1183 C.ar    1  UNL1        0.0505
      2 C           0.4541    2.4060   22.4341 C.ar    1  UNL1        0.0170
      3 C           1.8583    2.1994   22.9192 C.ar    1  UNL1        0.0307
      4 C           2.8312    1.4162   22.0885 C.ar    1  UNL1        0.1402
      5 F           4.2355    1.2096   22.5736 F       1  UNL1       -0.2044
      6 C           2.3998    0.8396   20.7726 C.ar    1  UNL1        0.0528
      7 C           0.9955    1.0461   20.2875 C.ar    1  UNL1        0.0167
      8 C           3.3727    0.0564   19.9419 C.3     1  UNL1        0.2223
      9 C           3.7349    1.4502   19.5224 C.3     1  UNL1        0.0607
     10 C           2.6726   -1.0655   20.6500 C.3     1  UNL1        0.1959
     11 O           3.0712   -2.4864   20.3816 O.3     1  UNL1       -0.3357
     12 C           4.1699   -2.7856   19.4052 C.3     1  UNL1        0.2740
     13 C           5.1427   -3.5688   18.5745 C.3     1  UNL1        0.0512
     14 C           4.8700   -1.6637   18.6971 C.2     1  UNL1        0.3217
     15 N           5.9687   -1.9628   17.7207 N.pl3   1  UNL1       -0.2480
     16 N           4.4714   -0.2428   18.9655 N.2     1  UNL1       -0.0692
     17 H           6.2303   -2.8955   17.5446 H       1  UNL1        0.2882
     18 H           6.4282   -1.2266   17.2560 H       1  UNL1        0.2882
     19 C           3.8076   -4.1794   19.8248 C.3     1  UNL1        0.4305
     20 F           3.4454   -5.5732   20.2445 F       1  UNL1       -0.1670
     21 F           3.0259   -4.3579   18.5571 F       1  UNL1       -0.1670
     22 F           4.5893   -4.0008   21.0925 F       1  UNL1       -0.1670
     23 C          -1.8650    3.4166   20.3012 C.2     1  UNL1        0.2669
     24 O          -0.9440    4.5906   20.4544 O.2     1  UNL1       -0.2682
     25 N          -1.3816    2.0360   20.6332 N.am    1  UNL1       -0.2792
     26 H          -1.9861    1.2654   20.5327 H       1  UNL1        0.1552
     27 C          -6.0778    4.0363   18.8459 C.ar    1  UNL1        0.1575
     28 C          -4.9426    4.0063   17.8660 C.ar    1  UNL1        0.1357
     29 N          -3.5383    3.7997   18.3511 N.ar    1  UNL1       -0.2364
     30 C          -3.2692    3.6232   19.8161 C.ar    1  UNL1        0.1310
     31 C          -4.4045    3.6532   20.7960 C.ar    1  UNL1        0.0033
     32 C          -4.1354    3.4767   22.2612 C.3     1  UNL1        0.0329
     33 C          -5.8087    3.8598   20.3109 C.ar    1  UNL1        0.0359
     34 C          -8.2188    5.5019   18.7104 C.3     1  UNL1        0.2525
     35 O          -7.4821    4.2429   18.3608 O.3     1  UNL1       -0.4699
@<TRIPOS>BOND
     1    34    35    1
     2    35    27    1
     3    27    28   ar
     4    28    29   ar
     5    29    30   ar
     6    30    23    1
     7    23    24    2
     8    23    25   am
     9    25     1    1
    10     1     2   ar
    11     2     3   ar
    12     3     4   ar
    13     4     5    1
    14     4     6   ar
    15     6     8    1
    16     8     9    1
    17     8    10    1
    18    10    11    1
    19    11    12    1
    20    12    13    1
    21    12    19    1
    22    19    20    1
    23    19    21    1
    24    19    22    1
    25    12    14    1
    26    14    15    1
    27    14    16    2
    28     6     7   ar
    29    30    31   ar
    30    31    32    1
    31    31    33   ar
    32    33    27   ar
    33     7     1   ar
    34    16     8    1
    35    25    26    1
    36    15    17    1
    37    15    18    1
@<TRIPOS>MOLECULE
*****
 35 37 0 0 0
SMALL
GASTEIGER

@<TRIPOS>ATOM
      1 C           1.2575    2.5654   18.5577 C.ar    1  UNL1        0.0505
      2 C           2.2841    3.6462   18.3907 C.ar    1  UNL1        0.0170
      3 C           3.7365    3.2896   18.2745 C.ar    1  UNL1        0.0307
      4 C           4.1622    1.8522   18.3254 C.ar    1  UNL1        0.1402
      5 F           5.6146    1.4956   18.2092 F       1  UNL1       -0.2044
      6 C           3.1356    0.7713   18.4924 C.ar    1  UNL1        0.0528
      7 C           1.6832    1.1279   18.6086 C.ar    1  UNL1        0.0167
      8 C           3.5613   -0.6661   18.5433 C.3     1  UNL1        0.2223
      9 C           3.4512   -0.4794   17.0591 C.3     1  UNL1        0.0607
     10 C           3.5236   -0.3535   20.0100 C.3     1  UNL1        0.1959
     11 O           3.8734   -1.4136   21.0119 O.3     1  UNL1       -0.3357
     12 C           4.2609   -2.7862   20.5473 C.3     1  UNL1        0.2740
     13 C           4.6867   -4.2236   20.5981 C.3     1  UNL1        0.0512
     14 C           4.2986   -3.0987   19.0806 C.2     1  UNL1        0.3217
     15 N           4.6862   -4.4713   18.6160 N.pl3   1  UNL1       -0.2480
     16 N           3.9489   -2.0386   18.0787 N.2     1  UNL1       -0.0692
     17 H           4.9157   -5.1670   19.2737 H       1  UNL1        0.2882
     18 H           4.7109   -4.6764   17.6535 H       1  UNL1        0.2882
     19 C           4.3711   -2.9728   22.0315 C.3     1  UNL1        0.4305
     20 F           4.4813   -3.1595   23.5158 F       1  UNL1       -0.1670
     21 F           3.2270   -2.0245   22.2357 F       1  UNL1       -0.1670
     22 F           5.5152   -3.9212   21.8273 F       1  UNL1       -0.1670
     23 C          -0.7422    3.4229   19.9775 C.2     1  UNL1        0.2669
     24 O           0.1628    3.5672   21.1650 O.2     1  UNL1       -0.2682
     25 N          -0.1949    2.9220   18.6739 N.am    1  UNL1       -0.2792
     26 H          -0.7888    2.8273   17.8945 H       1  UNL1        0.1552
     27 C          -5.0993    4.4927   20.3261 C.ar    1  UNL1        0.1575
     28 C          -4.6077    3.1722   20.8404 C.ar    1  UNL1        0.1357
     29 N          -3.1554    2.8156   20.7242 N.ar    1  UNL1       -0.2364
     30 C          -2.1945    3.7795   20.0937 C.ar    1  UNL1        0.1310
     31 C          -2.6861    5.1000   19.5794 C.ar    1  UNL1        0.0033
     32 C          -1.7252    6.0640   18.9488 C.3     1  UNL1        0.0329
     33 C          -4.1384    5.4566   19.6956 C.ar    1  UNL1        0.0359
     34 C          -7.0118    5.7763   21.5280 C.3     1  UNL1        0.2525
     35 O          -6.5516    4.8493   20.4423 O.3     1  UNL1       -0.4699
@<TRIPOS>BOND
     1    34    35    1
     2    35    27    1
     3    27    28   ar
     4    28    29   ar
     5    29    30   ar
     6    30    23    1
     7    23    24    2
     8    23    25   am
     9    25     1    1
    10     1     2   ar
    11     2     3   ar
    12     3     4   ar
    13     4     5    1
    14     4     6   ar
    15     6     8    1
    16     8     9    1
    17     8    10    1
    18    10    11    1
    19    11    12    1
    20    12    13    1
    21    12    19    1
    22    19    20    1
    23    19    21    1
    24    19    22    1
    25    12    14    1
    26    14    15    1
    27    14    16    2
    28     6     7   ar
    29    30    31   ar
    30    31    32    1
    31    31    33   ar
    32    33    27   ar
    33     7     1   ar
    34    16     8    1
    35    25    26    1
    36    15    17    1
    37    15    18    1
@<TRIPOS>MOLECULE
*****
 35 37 0 0 0
SMALL
GASTEIGER

@<TRIPOS>ATOM
      1 C           3.1790    0.6598   31.6286 C.ar    1  UNL1        0.0505
      2 C           3.5556   -0.7879   31.7387 C.ar    1  UNL1        0.0170
      3 C           4.1947   -1.3032   32.9941 C.ar    1  UNL1        0.0307
      4 C           4.4570   -0.3708   34.1394 C.ar    1  UNL1        0.1402
      5 F           5.0961   -0.8862   35.3948 F       1  UNL1       -0.2044
      6 C           4.0804    1.0770   34.0293 C.ar    1  UNL1        0.0528
      7 C           3.4414    1.5923   32.7739 C.ar    1  UNL1        0.0167
      8 C           4.3428    2.0094   35.1746 C.3     1  UNL1        0.2223
      9 C           5.6512    2.1139   34.4486 C.3     1  UNL1        0.0607
     10 C           2.9432    1.5811   35.5028 C.3     1  UNL1        0.1959
     11 O           2.2605    2.1215   36.7242 O.3     1  UNL1       -0.3357
     12 C           2.9773    3.0902   37.6174 C.3     1  UNL1        0.2740
     13 C           3.2397    4.0226   38.7627 C.3     1  UNL1        0.0512
     14 C           4.3769    3.5185   37.2892 C.2     1  UNL1        0.3217
     15 N           5.0937    4.4872   38.1824 N.pl3   1  UNL1       -0.2480
     16 N           5.0596    2.9781   36.0678 N.2     1  UNL1       -0.0692
     17 H           4.6456    4.8419   38.9840 H       1  UNL1        0.2882
     18 H           6.0123    4.7684   37.9670 H       1  UNL1        0.2882
     19 C           1.6688    2.9857   38.3434 C.3     1  UNL1        0.4305
     20 F           0.3602    2.8813   39.0692 F       1  UNL1       -0.1670
     21 F           2.2787    2.0063   39.3018 F       1  UNL1       -0.1670
     22 F           1.0589    3.9652   37.3848 F       1  UNL1       -0.1670
     23 C           1.1179    1.6517   30.3965 C.2     1  UNL1        0.2669
     24 O           0.3349    1.6130   31.6753 O.2     1  UNL1       -0.2682
     25 N           2.5400    1.1751   30.3732 N.am    1  UNL1       -0.2792
     26 H           3.0539    1.2006   29.5338 H       1  UNL1        0.1552
     27 C          -0.7992    3.1977   26.6302 C.ar    1  UNL1        0.1575
     28 C           0.0535    4.1063   27.4653 C.ar    1  UNL1        0.1357
     29 N           0.6925    3.5910   28.7207 N.ar    1  UNL1       -0.2364
     30 C           0.4789    2.1670   29.1411 C.ar    1  UNL1        0.1310
     31 C          -0.3738    1.2584   28.3060 C.ar    1  UNL1        0.0033
     32 C          -0.5874   -0.1656   28.7263 C.3     1  UNL1        0.0329
     33 C          -1.0128    1.7738   27.0506 C.ar    1  UNL1        0.0359
     34 C          -2.9236    3.9133   25.3170 C.3     1  UNL1        0.2525
     35 O          -1.4382    3.7130   25.3748 O.3     1  UNL1       -0.4699
@<TRIPOS>BOND
     1    34    35    1
     2    35    27    1
     3    27    28   ar
     4    28    29   ar
     5    29    30   ar
     6    30    23    1
     7    23    24    2
     8    23    25   am
     9    25     1    1
    10     1     2   ar
    11     2     3   ar
    12     3     4   ar
    13     4     5    1
    14     4     6   ar
    15     6     8    1
    16     8     9    1
    17     8    10    1
    18    10    11    1
    19    11    12    1
    20    12    13    1
    21    12    19    1
    22    19    20    1
    23    19    21    1
    24    19    22    1
    25    12    14    1
    26    14    15    1
    27    14    16    2
    28     6     7   ar
    29    30    31   ar
    30    31    32    1
    31    31    33   ar
    32    33    27   ar
    33     7     1   ar
    34    16     8    1
    35    25    26    1
    36    15    17    1
    37    15    18    1
@<TRIPOS>MOLECULE
*****
 35 37 0 0 0
SMALL
GASTEIGER

@<TRIPOS>ATOM
      1 C           2.3755    1.8495   23.4709 C.ar    1  UNL1        0.0505
      2 C           2.1406    3.1242   22.7159 C.ar    1  UNL1        0.0170
      3 C           2.1566    3.1214   21.2160 C.ar    1  UNL1        0.0307
      4 C           2.4074    1.8439   20.4711 C.ar    1  UNL1        0.1402
      5 F           2.4234    1.8411   18.9711 F       1  UNL1       -0.2044
      6 C           2.6424    0.5691   21.2260 C.ar    1  UNL1        0.0528
      7 C           2.6264    0.5720   22.7259 C.ar    1  UNL1        0.0167
      8 C           2.8932   -0.7084   20.4810 C.3     1  UNL1        0.2223
      9 C           1.3944   -0.7279   20.5343 C.3     1  UNL1        0.0607
     10 C           4.3051   -0.2451   20.6865 C.3     1  UNL1        0.1959
     11 O           5.4471   -1.0662   20.1655 O.3     1  UNL1       -0.3357
     12 C           5.1774   -2.3506   19.4390 C.3     1  UNL1        0.2740
     13 C           5.4283   -3.6280   18.6940 C.3     1  UNL1        0.0512
     14 C           3.7656   -2.8138   19.2335 C.2     1  UNL1        0.3217
     15 N           3.4959   -4.0981   18.5070 N.pl3   1  UNL1       -0.2480
     16 N           2.6235   -1.9927   19.7545 N.2     1  UNL1       -0.0692
     17 H           4.2455   -4.6370   18.1650 H       1  UNL1        0.2882
     18 H           2.5693   -4.4022   18.3721 H       1  UNL1        0.2882
     19 C           6.6763   -2.3309   19.3858 C.3     1  UNL1        0.4305
     20 F           8.1753   -2.3113   19.3327 F       1  UNL1       -0.1670
     21 F           6.6236   -2.3593   17.8870 F       1  UNL1       -0.1670
     22 F           6.7290   -2.3025   20.8846 F       1  UNL1       -0.1670
     23 C           1.1257    1.4244   25.7085 C.2     1  UNL1        0.2669
     24 O          -0.0923    0.9935   24.9463 O.2     1  UNL1       -0.2682
     25 N           2.3596    1.8524   24.9708 N.am    1  UNL1       -0.2792
     26 H           3.1590    2.1351   25.4710 H       1  UNL1        0.1552
     27 C           1.0778    1.4328   30.2083 C.ar    1  UNL1        0.1575
     28 C           1.5407    0.2147   29.4654 C.ar    1  UNL1        0.1357
     29 N           1.5567    0.2119   27.9655 N.ar    1  UNL1       -0.2364
     30 C           1.1097    1.4272   27.2084 C.ar    1  UNL1        0.1310
     31 C           0.6468    2.6453   27.9513 C.ar    1  UNL1        0.0033
     32 C           0.1999    3.8607   27.1942 C.3     1  UNL1        0.0329
     33 C           0.6309    2.6481   29.4512 C.ar    1  UNL1        0.0359
     34 C           2.3465    1.5651   32.4716 C.3     1  UNL1        0.2525
     35 O           1.0619    1.4356   31.7082 O.3     1  UNL1       -0.4699
@<TRIPOS>BOND
     1    34    35    1
     2    35    27    1
     3    27    28   ar
     4    28    29   ar
     5    29    30   ar
     6    30    23    1
     7    23    24    2
     8    23    25   am
     9    25     1    1
    10     1     2   ar
    11     2     3   ar
    12     3     4   ar
    13     4     5    1
    14     4     6   ar
    15     6     8    1
    16     8     9    1
    17     8    10    1
    18    10    11    1
    19    11    12    1
    20    12    13    1
    21    12    19    1
    22    19    20    1
    23    19    21    1
    24    19    22    1
    25    12    14    1
    26    14    15    1
    27    14    16    2
    28     6     7   ar
    29    30    31   ar
    30    31    32    1
    31    31    33   ar
    32    33    27   ar
    33     7     1   ar
    34    16     8    1
    35    25    26    1
    36    15    17    1
    37    15    18    1
@<TRIPOS>MOLECULE
*****
 35 37 0 0 0
SMALL
GASTEIGER

@<TRIPOS>ATOM
      1 C           0.2749    3.3535   18.3732 C.ar    1  UNL1        0.0505
      2 C           0.9060    4.6803   18.0715 C.ar    1  UNL1        0.0170
      3 C           0.1233    5.9449   18.2671 C.ar    1  UNL1        0.0307
      4 C          -1.2905    5.8826   18.7644 C.ar    1  UNL1        0.1402
      5 F          -2.0731    7.1472   18.9600 F       1  UNL1       -0.2044
      6 C          -1.9216    4.5557   19.0662 C.ar    1  UNL1        0.0528
      7 C          -1.1389    3.2911   18.8706 C.ar    1  UNL1        0.0167
      8 C          -3.3354    4.4934   19.5635 C.3     1  UNL1        0.2223
      9 C          -3.5834    4.6984   18.0985 C.3     1  UNL1        0.0607
     10 C          -2.5963    4.3100   20.8559 C.3     1  UNL1        0.1959
     11 O          -3.3572    4.1356   22.1367 O.3     1  UNL1       -0.3357
     12 C          -4.8572    4.1445   22.1252 C.3     1  UNL1        0.2740
     13 C          -6.2709    4.0822   22.6226 C.3     1  UNL1        0.0512
     14 C          -5.5962    4.3279   20.8329 C.2     1  UNL1        0.3217
     15 N          -7.0961    4.3367   20.8214 N.pl3   1  UNL1       -0.2480
     16 N          -4.8353    4.5023   19.5520 N.2     1  UNL1       -0.0692
     17 H          -7.5955    4.2222   21.6621 H       1  UNL1        0.2882
     18 H          -7.5812    4.4571   19.9732 H       1  UNL1        0.2882
     19 C          -4.6090    3.9395   23.5903 C.3     1  UNL1        0.4305
     20 F          -4.3609    3.7346   25.0554 F       1  UNL1       -0.1670
     21 F          -4.9092    2.4779   23.4367 F       1  UNL1       -0.1670
     22 F          -4.3089    5.4012   23.7439 F       1  UNL1       -0.1670
     23 C           2.1244    1.7075   19.1607 C.2     1  UNL1        0.2669
     24 O           2.4086    2.5907   20.3393 O.2     1  UNL1       -0.2682
     25 N           1.0576    2.0889   18.1777 N.am    1  UNL1       -0.2792
     26 H           0.8711    1.5092   17.4041 H       1  UNL1        0.1552
     27 C           4.4724   -2.0862   18.5739 C.ar    1  UNL1        0.1575
     28 C           4.9098   -0.8212   17.8970 C.ar    1  UNL1        0.1357
     29 N           4.1272    0.4434   18.0925 N.ar    1  UNL1       -0.2364
     30 C           2.9071    0.4429   18.9651 C.ar    1  UNL1        0.1310
     31 C           2.4697   -0.8221   19.6421 C.ar    1  UNL1        0.0033
     32 C           1.2496   -0.8226   20.5147 C.3     1  UNL1        0.0329
     33 C           3.2524   -2.0867   19.4465 C.ar    1  UNL1        0.0359
     34 C           4.6674   -4.6679   18.7903 C.3     1  UNL1        0.2525
     35 O           5.2551   -3.3508   18.3784 O.3     1  UNL1       -0.4699
@<TRIPOS>BOND
     1    34    35    1
     2    35    27    1
     3    27    28   ar
     4    28    29   ar
     5    29    30   ar
     6    30    23    1
     7    23    24    2
     8    23    25   am
     9    25     1    1
    10     1     2   ar
    11     2     3   ar
    12     3     4   ar
    13     4     5    1
    14     4     6   ar
    15     6     8    1
    16     8     9    1
    17     8    10    1
    18    10    11    1
    19    11    12    1
    20    12    13    1
    21    12    19    1
    22    19    20    1
    23    19    21    1
    24    19    22    1
    25    12    14    1
    26    14    15    1
    27    14    16    2
    28     6     7   ar
    29    30    31   ar
    30    31    32    1
    31    31    33   ar
    32    33    27   ar
    33     7     1   ar
    34    16     8    1
    35    25    26    1
    36    15    17    1
    37    15    18    1
@<TRIPOS>MOLECULE
*****
 35 37 0 0 0
SMALL
GASTEIGER

@<TRIPOS>ATOM
      1 C           1.5774    0.8505   24.3986 C.ar    1  UNL1        0.0505
      2 C           2.4463    0.5993   25.5952 C.ar    1  UNL1        0.0170
      3 C           3.8653    0.1496   25.4106 C.ar    1  UNL1        0.0307
      4 C           4.4155   -0.0489   24.0293 C.ar    1  UNL1        0.1402
      5 F           5.8345   -0.4986   23.8447 F       1  UNL1       -0.2044
      6 C           3.5466    0.2023   22.8326 C.ar    1  UNL1        0.0528
      7 C           2.1275    0.6520   23.0173 C.ar    1  UNL1        0.0167
      8 C           4.0967    0.0038   21.4514 C.3     1  UNL1        0.2223
      9 C           4.3503    1.4720   21.6243 C.3     1  UNL1        0.0607
     10 C           3.6520   -1.3956   21.7582 C.3     1  UNL1        0.1959
     11 O           3.8456   -2.4834   20.7438 O.3     1  UNL1       -0.3357
     12 C           4.4839   -2.1721   19.4226 C.3     1  UNL1        0.2740
     13 C           5.0340   -2.3706   18.0413 C.3     1  UNL1        0.0512
     14 C           4.9286   -0.7727   19.1157 C.2     1  UNL1        0.3217
     15 N           5.5668   -0.4613   17.7945 N.pl3   1  UNL1       -0.2480
     16 N           4.7350    0.3151   20.1302 N.2     1  UNL1       -0.0692
     17 H           5.6939   -1.1754   17.1287 H       1  UNL1        0.2882
     18 H           5.8587    0.4571   17.5931 H       1  UNL1        0.2882
     19 C           4.2303   -3.6403   19.2498 C.3     1  UNL1        0.4305
     20 F           3.9765   -5.1086   19.0770 F       1  UNL1       -0.1670
     21 F           5.7073   -3.8846   19.1569 F       1  UNL1       -0.1670
     22 F           2.7532   -3.3960   19.3427 F       1  UNL1       -0.1670
     23 C          -0.1419    2.7458   24.8479 C.2     1  UNL1        0.2669
     24 O           0.9769    3.7416   24.9280 O.2     1  UNL1       -0.2682
     25 N           0.1583    1.3002   24.5833 N.am    1  UNL1       -0.2792
     26 H          -0.5760    0.6465   24.5307 H       1  UNL1        0.1552
     27 C          -4.3990    4.0948   25.4019 C.ar    1  UNL1        0.1575
     28 C          -3.5780    3.6954   26.5919 C.ar    1  UNL1        0.1357
     29 N          -2.1589    3.2458   26.4073 N.ar    1  UNL1       -0.2364
     30 C          -1.5610    3.1954   25.0326 C.ar    1  UNL1        0.1310
     31 C          -2.3820    3.5948   23.8425 C.ar    1  UNL1        0.0033
     32 C          -1.7841    3.5445   22.4677 C.3     1  UNL1        0.0329
     33 C          -3.8011    4.0445   24.0272 C.ar    1  UNL1        0.0359
     34 C          -6.1222    5.7310   26.4523 C.3     1  UNL1        0.2525
     35 O          -5.8181    4.5445   25.5865 O.3     1  UNL1       -0.4699
@<TRIPOS>BOND
     1    34    35    1
     2    35    27    1
     3    27    28   ar
     4    28    29   ar
     5    29    30   ar
     6    30    23    1
     7    23    24    2
     8    23    25   am
     9    25     1    1
    10     1     2   ar
    11     2     3   ar
    12     3     4   ar
    13     4     5    1
    14     4     6   ar
    15     6     8    1
    16     8     9    1
    17     8    10    1
    18    10    11    1
    19    11    12    1
    20    12    13    1
    21    12    19    1
    22    19    20    1
    23    19    21    1
    24    19    22    1
    25    12    14    1
    26    14    15    1
    27    14    16    2
    28     6     7   ar
    29    30    31   ar
    30    31    32    1
    31    31    33   ar
    32    33    27   ar
    33     7     1   ar
    34    16     8    1
    35    25    26    1
    36    15    17    1
    37    15    18    1
