@<TRIPOS>MOLECULE
*****
 32 34 0 0 0
SMALL
GASTEIGER

@<TRIPOS>ATOM
      1 C          -4.6569  -17.3686   22.4574 C.ar    1  UNL1        0.1357
      2 N          -3.2662  -16.8367   22.2759 N.ar    1  UNL1       -0.1992
      3 C          -2.2996  -17.5541   21.3808 C.ar    1  UNL1        0.2148
      4 N          -0.9089  -17.0221   21.1994 N.pl3   1  UNL1       -0.3274
      5 N          -2.7238  -18.8033   20.6672 N.ar    1  UNL1       -0.2138
      6 C          -4.1145  -19.3353   20.8486 C.ar    1  UNL1        0.0898
      7 C          -4.5387  -20.5846   20.1349 C.ar    1  UNL1        0.0195
      8 C          -5.9294  -21.1166   20.3164 C.ar    1  UNL1        0.0047
      9 C          -6.8959  -20.3992   21.2114 C.ar    1  UNL1        0.0371
     10 C          -6.4718  -19.1499   21.9251 C.ar    1  UNL1        0.1431
     11 C          -5.0811  -18.6180   21.7437 C.ar    1  UNL1        0.0831
     12 H          -0.6305  -16.2021   21.6678 H       1  UNL1        0.1452
     13 H          -0.2745  -17.4929   20.6119 H       1  UNL1        0.1452
     14 N          -5.6234  -16.6513   23.3524 N.pl3   1  UNL1       -0.3179
     15 H          -6.5671  -16.5618   23.0866 H       1  UNL1        0.1482
     16 C          -5.1522  -16.0703   24.6525 C.3     1  UNL1        0.0882
     17 C          -6.0489  -15.1570   25.4347 C.3     1  UNL1        0.0212
     18 C          -7.8759  -15.5316   27.2435 C.3     1  UNL1        0.0001
     19 C          -6.4307  -15.5060   26.8428 C.3     1  UNL1        0.0017
     20 O          -7.4383  -18.4326   22.8202 O.3     1  UNL1       -0.4704
     21 C          -8.5919  -17.6790   22.2275 C.3     1  UNL1        0.2350
     22 C          -9.9665  -17.8341   22.8075 C.ar    1  UNL1        0.0551
     23 C         -10.2097  -18.8272   23.9051 C.ar    1  UNL1        0.0021
     24 C         -11.5843  -18.9823   24.4851 C.ar    1  UNL1       -0.0019
     25 C         -12.7157  -18.1442   23.9675 C.ar    1  UNL1        0.0099
     26 C         -12.4724  -17.1512   22.8700 C.ar    1  UNL1        0.0348
     27 C         -11.0978  -16.9961   22.2900 C.ar    1  UNL1        0.1379
     28 C         -14.0903  -18.2993   24.5476 C.3     1  UNL1        0.1637
     29 O         -14.2576  -18.6826   25.9881 O.3     1  UNL1       -0.3772
     30 H         -13.9214  -19.5822   26.1245 H       1  UNL1        0.2109
     31 O         -10.8545  -16.0031   21.1924 O.3     1  UNL1       -0.4716
     32 C         -11.6432  -16.0843   19.9191 C.3     1  UNL1        0.2525
@<TRIPOS>BOND
     1    18    19    1
     2    19    17    1
     3    17    16    1
     4    16    14    1
     5    14     1    1
     6     1     2   ar
     7     2     3   ar
     8     3     4    1
     9     3     5   ar
    10     5     6   ar
    11     6     7   ar
    12     7     8   ar
    13     8     9   ar
    14     9    10   ar
    15    10    20    1
    16    20    21    1
    17    21    22    1
    18    22    23   ar
    19    23    24   ar
    20    24    25   ar
    21    25    28    1
    22    28    29    1
    23    25    26   ar
    24    26    27   ar
    25    27    31    1
    26    31    32    1
    27    10    11   ar
    28    11     1   ar
    29    11     6   ar
    30    27    22   ar
    31    14    15    1
    32     4    12    1
    33     4    13    1
    34    29    30    1
@<TRIPOS>MOLECULE
*****
 32 34 0 0 0
SMALL
GASTEIGER

@<TRIPOS>ATOM
      1 C          -9.6054  -17.9011   23.1236 C.ar    1  UNL1        0.1357
      2 N         -10.9719  -17.6358   23.6822 N.ar    1  UNL1       -0.1992
      3 C         -12.1908  -18.0089   22.8916 C.ar    1  UNL1        0.2148
      4 N         -13.5574  -17.7436   23.4503 N.pl3   1  UNL1       -0.3274
      5 N         -12.0432  -18.6472   21.5423 N.ar    1  UNL1       -0.2138
      6 C         -10.6766  -18.9125   20.9835 C.ar    1  UNL1        0.0898
      7 C         -10.5290  -19.5508   19.6342 C.ar    1  UNL1        0.0195
      8 C          -9.1624  -19.8161   19.0755 C.ar    1  UNL1        0.0047
      9 C          -7.9435  -19.4430   19.8662 C.ar    1  UNL1        0.0371
     10 C          -8.0912  -18.8047   21.2155 C.ar    1  UNL1        0.1431
     11 C          -9.4577  -18.5395   21.7742 C.ar    1  UNL1        0.0831
     12 H         -13.6543  -17.3247   24.3360 H       1  UNL1        0.1452
     13 H         -14.3574  -17.9885   22.9314 H       1  UNL1        0.1452
     14 N          -8.3865  -17.5280   23.9142 N.pl3   1  UNL1       -0.3179
     15 H          -7.7450  -18.2232   24.1871 H       1  UNL1        0.1482
     16 C          -8.1450  -16.0959   24.2891 C.3     1  UNL1        0.0882
     17 C          -8.7200  -15.5463   25.5608 C.3     1  UNL1        0.0212
     18 C          -6.6928  -15.5801   27.1854 C.3     1  UNL1        0.0001
     19 C          -8.1199  -15.9278   26.8816 C.3     1  UNL1        0.0017
     20 O          -6.8723  -18.4317   22.0061 O.3     1  UNL1       -0.4704
     21 C          -5.7059  -19.3723   22.0747 C.3     1  UNL1        0.2350
     22 C          -4.3773  -18.9617   21.5122 C.ar    1  UNL1        0.0551
     23 C          -3.9934  -19.3700   20.1208 C.ar    1  UNL1        0.0021
     24 C          -2.6648  -18.9595   19.5584 C.ar    1  UNL1       -0.0019
     25 C          -1.7201  -18.1407   20.3874 C.ar    1  UNL1        0.0099
     26 C          -2.1040  -17.7325   21.7788 C.ar    1  UNL1        0.0348
     27 C          -3.4326  -18.1430   22.3412 C.ar    1  UNL1        0.1379
     28 C          -0.3915  -17.7302   19.8250 C.3     1  UNL1        0.1637
     29 O           0.8645  -17.9875   20.6038 O.3     1  UNL1       -0.3772
     30 H           0.8585  -17.4526   21.4130 H       1  UNL1        0.2109
     31 O          -3.8165  -17.7347   23.7325 O.3     1  UNL1       -0.4716
     32 C          -4.5818  -16.4643   23.9572 C.3     1  UNL1        0.2525
@<TRIPOS>BOND
     1    18    19    1
     2    19    17    1
     3    17    16    1
     4    16    14    1
     5    14     1    1
     6     1     2   ar
     7     2     3   ar
     8     3     4    1
     9     3     5   ar
    10     5     6   ar
    11     6     7   ar
    12     7     8   ar
    13     8     9   ar
    14     9    10   ar
    15    10    20    1
    16    20    21    1
    17    21    22    1
    18    22    23   ar
    19    23    24   ar
    20    24    25   ar
    21    25    28    1
    22    28    29    1
    23    25    26   ar
    24    26    27   ar
    25    27    31    1
    26    31    32    1
    27    10    11   ar
    28    11     1   ar
    29    11     6   ar
    30    27    22   ar
    31    14    15    1
    32     4    12    1
    33     4    13    1
    34    29    30    1
@<TRIPOS>MOLECULE
*****
 32 34 0 0 0
SMALL
GASTEIGER

@<TRIPOS>ATOM
      1 C          -5.9486  -19.1590   21.5765 C.ar    1  UNL1        0.1357
      2 N          -4.7303  -19.9526   21.2077 N.ar    1  UNL1       -0.1992
      3 C          -3.3847  -19.5484   21.7328 C.ar    1  UNL1        0.2148
      4 N          -2.1664  -20.3421   21.3640 N.pl3   1  UNL1       -0.3274
      5 N          -3.2572  -18.3507   22.6267 N.ar    1  UNL1       -0.2138
      6 C          -4.4755  -17.5570   22.9955 C.ar    1  UNL1        0.0898
      7 C          -4.3480  -16.3593   23.8894 C.ar    1  UNL1        0.0195
      8 C          -5.5663  -15.5657   24.2582 C.ar    1  UNL1        0.0047
      9 C          -6.9120  -15.9699   23.7331 C.ar    1  UNL1        0.0371
     10 C          -7.0394  -17.1676   22.8392 C.ar    1  UNL1        0.1431
     11 C          -5.8212  -17.9612   22.4704 C.ar    1  UNL1        0.0831
     12 H          -2.2500  -21.1282   20.7773 H       1  UNL1        0.1452
     13 H          -1.2831  -20.0769   21.7086 H       1  UNL1        0.1452
     14 N          -7.2943  -19.5632   21.0513 N.pl3   1  UNL1       -0.3179
     15 H          -8.0594  -19.6410   21.6659 H       1  UNL1        0.1482
     16 C          -7.4742  -19.8488   19.5899 C.3     1  UNL1        0.0882
     17 C          -8.8431  -19.7981   18.9787 C.3     1  UNL1        0.0212
     18 C         -10.8721  -19.8229   20.6013 C.3     1  UNL1        0.0001
     19 C          -9.9524  -19.0743   19.6827 C.3     1  UNL1        0.0017
     20 O          -8.3851  -17.5718   22.3141 O.3     1  UNL1       -0.4704
     21 C          -9.5483  -16.6317   22.4290 C.3     1  UNL1        0.2350
     22 C         -10.8375  -17.1040   23.0332 C.ar    1  UNL1        0.0551
     23 C         -12.1261  -16.4235   22.6776 C.ar    1  UNL1        0.0021
     24 C         -13.4153  -16.8958   23.2817 C.ar    1  UNL1       -0.0019
     25 C         -13.4158  -18.0486   24.2414 C.ar    1  UNL1        0.0099
     26 C         -12.1272  -18.7291   24.5970 C.ar    1  UNL1        0.0348
     27 C         -10.8381  -18.2568   23.9928 C.ar    1  UNL1        0.1379
     28 C         -14.7050  -18.5210   24.8456 C.3     1  UNL1        0.1637
     29 O         -14.7806  -18.8184   26.3139 O.3     1  UNL1       -0.3772
     30 H         -14.2164  -19.5804   26.5189 H       1  UNL1        0.2109
     31 O          -9.5495  -18.9373   24.3484 O.3     1  UNL1       -0.4716
     32 C          -9.3984  -20.4148   24.1374 C.3     1  UNL1        0.2525
@<TRIPOS>BOND
     1    18    19    1
     2    19    17    1
     3    17    16    1
     4    16    14    1
     5    14     1    1
     6     1     2   ar
     7     2     3   ar
     8     3     4    1
     9     3     5   ar
    10     5     6   ar
    11     6     7   ar
    12     7     8   ar
    13     8     9   ar
    14     9    10   ar
    15    10    20    1
    16    20    21    1
    17    21    22    1
    18    22    23   ar
    19    23    24   ar
    20    24    25   ar
    21    25    28    1
    22    28    29    1
    23    25    26   ar
    24    26    27   ar
    25    27    31    1
    26    31    32    1
    27    10    11   ar
    28    11     1   ar
    29    11     6   ar
    30    27    22   ar
    31    14    15    1
    32     4    12    1
    33     4    13    1
    34    29    30    1
@<TRIPOS>MOLECULE
*****
 32 34 0 0 0
SMALL
GASTEIGER

@<TRIPOS>ATOM
      1 C          -4.1592  -17.6706   22.2615 C.ar    1  UNL1        0.1357
      2 N          -2.8325  -16.9973   22.0707 N.ar    1  UNL1       -0.1992
      3 C          -1.8455  -17.5504   21.0859 C.ar    1  UNL1        0.2148
      4 N          -0.5187  -16.8770   20.8951 N.pl3   1  UNL1       -0.3274
      5 N          -2.1851  -18.7769   20.2920 N.ar    1  UNL1       -0.2138
      6 C          -3.5118  -19.4503   20.4829 C.ar    1  UNL1        0.0898
      7 C          -3.8515  -20.6768   19.6890 C.ar    1  UNL1        0.0195
      8 C          -5.1782  -21.3502   19.8798 C.ar    1  UNL1        0.0047
      9 C          -6.1652  -20.7970   20.8646 C.ar    1  UNL1        0.0371
     10 C          -5.8256  -19.5705   21.6585 C.ar    1  UNL1        0.1431
     11 C          -4.4989  -18.8972   21.4676 C.ar    1  UNL1        0.0831
     12 H          -0.2958  -16.0720   21.4162 H       1  UNL1        0.1452
     13 H           0.1292  -17.2401   20.2488 H       1  UNL1        0.1452
     14 N          -5.1463  -17.1174   23.2463 N.pl3   1  UNL1       -0.3179
     15 H          -5.9577  -17.6283   23.4697 H       1  UNL1        0.1482
     16 C          -4.8971  -15.7860   23.8905 C.3     1  UNL1        0.0882
     17 C          -5.8589  -15.2553   24.9120 C.3     1  UNL1        0.0212
     18 C          -6.8487  -15.4257   27.3081 C.3     1  UNL1        0.0001
     19 C          -5.7129  -15.6449   26.3532 C.3     1  UNL1        0.0017
     20 O          -6.8127  -19.0173   22.6432 O.3     1  UNL1       -0.4704
     21 C          -8.2506  -19.4397   22.5816 C.3     1  UNL1        0.2350
     22 C          -9.2618  -18.5623   21.9051 C.ar    1  UNL1        0.0551
     23 C         -10.0635  -19.0920   20.7533 C.ar    1  UNL1        0.0021
     24 C         -11.0746  -18.2146   20.0768 C.ar    1  UNL1       -0.0019
     25 C         -11.2841  -16.8074   20.5522 C.ar    1  UNL1        0.0099
     26 C         -10.4825  -16.2777   21.7040 C.ar    1  UNL1        0.0348
     27 C          -9.4713  -17.1551   22.3805 C.ar    1  UNL1        0.1379
     28 C         -12.2953  -15.9299   19.8758 C.3     1  UNL1        0.1637
     29 O         -11.9055  -15.1291   18.6687 O.3     1  UNL1       -0.3772
     30 H         -11.2525  -14.4583   18.9228 H       1  UNL1        0.2109
     31 O          -8.6696  -16.6255   23.5323 O.3     1  UNL1       -0.4716
     32 C          -9.3411  -15.8238   24.6077 C.3     1  UNL1        0.2525
@<TRIPOS>BOND
     1    18    19    1
     2    19    17    1
     3    17    16    1
     4    16    14    1
     5    14     1    1
     6     1     2   ar
     7     2     3   ar
     8     3     4    1
     9     3     5   ar
    10     5     6   ar
    11     6     7   ar
    12     7     8   ar
    13     8     9   ar
    14     9    10   ar
    15    10    20    1
    16    20    21    1
    17    21    22    1
    18    22    23   ar
    19    23    24   ar
    20    24    25   ar
    21    25    28    1
    22    28    29    1
    23    25    26   ar
    24    26    27   ar
    25    27    31    1
    26    31    32    1
    27    10    11   ar
    28    11     1   ar
    29    11     6   ar
    30    27    22   ar
    31    14    15    1
    32     4    12    1
    33     4    13    1
    34    29    30    1
@<TRIPOS>MOLECULE
*****
 32 34 0 0 0
SMALL
GASTEIGER

@<TRIPOS>ATOM
      1 C          -4.5101  -17.4598   22.5152 C.ar    1  UNL1        0.1357
      2 N          -3.2106  -16.7295   22.3480 N.ar    1  UNL1       -0.1992
      3 C          -2.1729  -17.2528   21.3997 C.ar    1  UNL1        0.2148
      4 N          -0.8733  -16.5225   21.2325 N.pl3   1  UNL1       -0.3274
      5 N          -2.4346  -18.5063   20.6186 N.ar    1  UNL1       -0.2138
      6 C          -3.7342  -19.2367   20.7858 C.ar    1  UNL1        0.0898
      7 C          -3.9959  -20.4902   20.0047 C.ar    1  UNL1        0.0195
      8 C          -5.2954  -21.2204   20.1720 C.ar    1  UNL1        0.0047
      9 C          -6.3331  -20.6972   21.1203 C.ar    1  UNL1        0.0371
     10 C          -6.0714  -19.4437   21.9013 C.ar    1  UNL1        0.1431
     11 C          -4.7719  -18.7134   21.7341 C.ar    1  UNL1        0.0831
     12 H          -0.7015  -15.6997   21.7451 H       1  UNL1        0.1452
     13 H          -0.1922  -16.8659   20.6101 H       1  UNL1        0.1452
     14 N          -5.5479  -16.9365   23.4635 N.pl3   1  UNL1       -0.3179
     15 H          -6.3438  -17.4780   23.6699 H       1  UNL1        0.1482
     16 C          -5.3729  -15.5884   24.0974 C.3     1  UNL1        0.0882
     17 C          -5.3904  -15.4541   25.5913 C.3     1  UNL1        0.0212
     18 C          -7.9882  -15.4880   25.5795 C.3     1  UNL1        0.0001
     19 C          -6.6922  -15.5116   26.3343 C.3     1  UNL1        0.0017
     20 O          -7.1091  -18.9204   22.8496 O.3     1  UNL1       -0.4704
     21 C          -8.5296  -19.3899   22.7407 C.3     1  UNL1        0.2350
     22 C          -9.5656  -18.5058   22.1121 C.ar    1  UNL1        0.0551
     23 C         -10.0788  -17.3073   22.8540 C.ar    1  UNL1        0.0021
     24 C         -11.1148  -16.4233   22.2255 C.ar    1  UNL1       -0.0019
     25 C         -11.6376  -16.7377   20.8550 C.ar    1  UNL1        0.0099
     26 C         -11.1244  -17.9361   20.1133 C.ar    1  UNL1        0.0348
     27 C         -10.0884  -18.8202   20.7418 C.ar    1  UNL1        0.1379
     28 C         -12.6736  -15.8536   20.2265 C.3     1  UNL1        0.1637
     29 O         -12.4832  -15.3544   18.8249 O.3     1  UNL1       -0.3772
     30 H         -11.7200  -14.7563   18.7955 H       1  UNL1        0.2109
     31 O          -9.5751  -20.0186   20.0000 O.3     1  UNL1       -0.4716
     32 C          -8.7957  -19.8381   18.7311 C.3     1  UNL1        0.2525
@<TRIPOS>BOND
     1    18    19    1
     2    19    17    1
     3    17    16    1
     4    16    14    1
     5    14     1    1
     6     1     2   ar
     7     2     3   ar
     8     3     4    1
     9     3     5   ar
    10     5     6   ar
    11     6     7   ar
    12     7     8   ar
    13     8     9   ar
    14     9    10   ar
    15    10    20    1
    16    20    21    1
    17    21    22    1
    18    22    23   ar
    19    23    24   ar
    20    24    25   ar
    21    25    28    1
    22    28    29    1
    23    25    26   ar
    24    26    27   ar
    25    27    31    1
    26    31    32    1
    27    10    11   ar
    28    11     1   ar
    29    11     6   ar
    30    27    22   ar
    31    14    15    1
    32     4    12    1
    33     4    13    1
    34    29    30    1
@<TRIPOS>MOLECULE
*****
 32 34 0 0 0
SMALL
GASTEIGER

@<TRIPOS>ATOM
      1 C          -5.0804  -17.0735   22.7526 C.ar    1  UNL1        0.1357
      2 N          -3.6560  -16.6074   22.6919 N.ar    1  UNL1       -0.1992
      3 C          -2.6468  -17.3815   21.8967 C.ar    1  UNL1        0.2148
      4 N          -1.2223  -16.9153   21.8360 N.pl3   1  UNL1       -0.3274
      5 N          -3.0621  -18.6216   21.1622 N.ar    1  UNL1       -0.2138
      6 C          -4.4865  -19.0878   21.2229 C.ar    1  UNL1        0.0898
      7 C          -4.9018  -20.3279   20.4884 C.ar    1  UNL1        0.0195
      8 C          -6.3262  -20.7940   20.5491 C.ar    1  UNL1        0.0047
      9 C          -7.3354  -20.0200   21.3443 C.ar    1  UNL1        0.0371
     10 C          -6.9202  -18.7798   22.0788 C.ar    1  UNL1        0.1431
     11 C          -5.4957  -18.3137   22.0181 C.ar    1  UNL1        0.0831
     12 H          -0.9498  -16.1013   22.3181 H       1  UNL1        0.1452
     13 H          -0.5600  -17.4233   21.3141 H       1  UNL1        0.1452
     14 N          -6.0896  -16.2994   23.5478 N.pl3   1  UNL1       -0.3179
     15 H          -7.0490  -16.3886   23.3456 H       1  UNL1        0.1482
     16 C          -5.6371  -15.3896   24.6511 C.3     1  UNL1        0.0882
     17 C          -6.3198  -15.4324   25.9861 C.3     1  UNL1        0.0212
     18 C          -8.3423  -16.4794   27.2365 C.3     1  UNL1        0.0001
     19 C          -7.7901  -15.7184   26.0677 C.3     1  UNL1        0.0017
     20 O          -7.9293  -18.0058   22.8740 O.3     1  UNL1       -0.4704
     21 C          -9.1782  -17.5019   22.2134 C.3     1  UNL1        0.2350
     22 C         -10.5099  -17.7044   22.8734 C.ar    1  UNL1        0.0551
     23 C         -11.7032  -16.9223   22.4101 C.ar    1  UNL1        0.0021
     24 C         -13.0349  -17.1248   23.0701 C.ar    1  UNL1       -0.0019
     25 C         -13.1732  -18.1094   24.1934 C.ar    1  UNL1        0.0099
     26 C         -11.9800  -18.8914   24.6565 C.ar    1  UNL1        0.0348
     27 C         -10.6483  -18.6889   23.9965 C.ar    1  UNL1        0.1379
     28 C         -14.5049  -18.3119   24.8534 C.3     1  UNL1        0.1637
     29 O         -14.5729  -18.7617   26.2828 O.3     1  UNL1       -0.3772
     30 H         -14.2170  -19.6610   26.3560 H       1  UNL1        0.2109
     31 O          -9.4550  -19.4709   24.4597 O.3     1  UNL1       -0.4716
     32 C          -9.3904  -20.9508   24.2235 C.3     1  UNL1        0.2525
@<TRIPOS>BOND
     1    18    19    1
     2    19    17    1
     3    17    16    1
     4    16    14    1
     5    14     1    1
     6     1     2   ar
     7     2     3   ar
     8     3     4    1
     9     3     5   ar
    10     5     6   ar
    11     6     7   ar
    12     7     8   ar
    13     8     9   ar
    14     9    10   ar
    15    10    20    1
    16    20    21    1
    17    21    22    1
    18    22    23   ar
    19    23    24   ar
    20    24    25   ar
    21    25    28    1
    22    28    29    1
    23    25    26   ar
    24    26    27   ar
    25    27    31    1
    26    31    32    1
    27    10    11   ar
    28    11     1   ar
    29    11     6   ar
    30    27    22   ar
    31    14    15    1
    32     4    12    1
    33     4    13    1
    34    29    30    1
@<TRIPOS>MOLECULE
*****
 32 34 0 0 0
SMALL
GASTEIGER

@<TRIPOS>ATOM
      1 C          -5.2914  -19.0233   21.9951 C.ar    1  UNL1        0.1357
      2 N          -3.8378  -19.2402   21.6954 N.ar    1  UNL1       -0.1992
      3 C          -2.8223  -18.2268   22.1335 C.ar    1  UNL1        0.2148
      4 N          -1.3686  -18.4438   21.8338 N.pl3   1  UNL1       -0.3274
      5 N          -3.2605  -16.9966   22.8714 N.ar    1  UNL1       -0.2138
      6 C          -4.7142  -16.7796   23.1711 C.ar    1  UNL1        0.0898
      7 C          -5.1524  -15.5494   23.9089 C.ar    1  UNL1        0.0195
      8 C          -6.6060  -15.3325   24.2086 C.ar    1  UNL1        0.0047
      9 C          -7.6215  -16.3458   23.7705 C.ar    1  UNL1        0.0371
     10 C          -7.1833  -17.5761   23.0326 C.ar    1  UNL1        0.1431
     11 C          -5.7297  -17.7930   22.7329 C.ar    1  UNL1        0.0831
     12 H          -1.0810  -19.2513   21.3495 H       1  UNL1        0.1452
     13 H          -0.7021  -17.7787   22.1214 H       1  UNL1        0.1452
     14 N          -6.3069  -20.0366   21.5569 N.pl3   1  UNL1       -0.3179
     15 H          -6.8445  -20.5166   22.2276 H       1  UNL1        0.1482
     16 C          -6.5033  -20.3187   20.0968 C.3     1  UNL1        0.0882
     17 C          -7.5571  -19.5807   19.3255 C.3     1  UNL1        0.0212
     18 C          -8.8627  -21.1870   17.7554 C.3     1  UNL1        0.0001
     19 C          -8.8318  -20.2740   18.9452 C.3     1  UNL1        0.0017
     20 O          -8.1988  -18.5894   22.5945 O.3     1  UNL1       -0.4704
     21 C          -9.4664  -18.1417   21.9293 C.3     1  UNL1        0.2350
     22 C         -10.7662  -18.2004   22.6755 C.ar    1  UNL1        0.0551
     23 C         -10.7824  -18.5894   24.1242 C.ar    1  UNL1        0.0021
     24 C         -12.0823  -18.6481   24.8705 C.ar    1  UNL1       -0.0019
     25 C         -13.3660  -18.3180   24.1681 C.ar    1  UNL1        0.0099
     26 C         -13.3497  -17.9290   22.7195 C.ar    1  UNL1        0.0348
     27 C         -12.0499  -17.8703   21.9732 C.ar    1  UNL1        0.1379
     28 C         -14.6658  -18.3767   24.9144 C.3     1  UNL1        0.1637
     29 O         -14.6842  -18.7854   26.3576 O.3     1  UNL1       -0.3772
     30 H         -14.4108  -19.7128   26.4345 H       1  UNL1        0.2109
     31 O         -12.0336  -17.4814   20.5246 O.3     1  UNL1       -0.4716
     32 C         -11.6931  -16.0750   20.1294 C.3     1  UNL1        0.2525
@<TRIPOS>BOND
     1    18    19    1
     2    19    17    1
     3    17    16    1
     4    16    14    1
     5    14     1    1
     6     1     2   ar
     7     2     3   ar
     8     3     4    1
     9     3     5   ar
    10     5     6   ar
    11     6     7   ar
    12     7     8   ar
    13     8     9   ar
    14     9    10   ar
    15    10    20    1
    16    20    21    1
    17    21    22    1
    18    22    23   ar
    19    23    24   ar
    20    24    25   ar
    21    25    28    1
    22    28    29    1
    23    25    26   ar
    24    26    27   ar
    25    27    31    1
    26    31    32    1
    27    10    11   ar
    28    11     1   ar
    29    11     6   ar
    30    27    22   ar
    31    14    15    1
    32     4    12    1
    33     4    13    1
    34    29    30    1
@<TRIPOS>MOLECULE
*****
 32 34 0 0 0
SMALL
GASTEIGER

@<TRIPOS>ATOM
      1 C          -5.4558  -19.0581   22.2598 C.ar    1  UNL1        0.1357
      2 N          -4.0156  -19.0671   22.6792 N.ar    1  UNL1       -0.1992
      3 C          -3.4367  -17.8854   23.3992 C.ar    1  UNL1        0.2148
      4 N          -1.9965  -17.8945   23.8186 N.pl3   1  UNL1       -0.3274
      5 N          -4.2979  -16.6947   23.6998 N.ar    1  UNL1       -0.2138
      6 C          -5.7381  -16.6856   23.2804 C.ar    1  UNL1        0.0898
      7 C          -6.5993  -15.4948   23.5811 C.ar    1  UNL1        0.0195
      8 C          -8.0394  -15.4858   23.1617 C.ar    1  UNL1        0.0047
      9 C          -8.6184  -16.6675   22.4416 C.ar    1  UNL1        0.0371
     10 C          -7.7572  -17.8582   22.1410 C.ar    1  UNL1        0.1431
     11 C          -6.3170  -17.8673   22.5604 C.ar    1  UNL1        0.0831
     12 H          -1.4313  -18.6760   23.6213 H       1  UNL1        0.1452
     13 H          -1.6166  -17.1189   24.2912 H       1  UNL1        0.1452
     14 N          -6.0347  -20.2398   21.5397 N.pl3   1  UNL1       -0.3179
     15 H          -6.7965  -20.7278   21.9278 H       1  UNL1        0.1482
     16 C          -5.4529  -20.6778   20.2284 C.3     1  UNL1        0.0882
     17 C          -3.9856  -20.5100   19.9655 C.3     1  UNL1        0.0212
     18 C          -2.1945  -18.6594   19.6236 C.3     1  UNL1        0.0001
     19 C          -3.4895  -19.3032   19.2256 C.3     1  UNL1        0.0017
     20 O          -8.3361  -19.0399   21.4210 O.3     1  UNL1       -0.4704
     21 C          -9.7757  -19.0302   21.0000 C.3     1  UNL1        0.2350
     22 C         -10.8546  -18.8263   22.0220 C.ar    1  UNL1        0.0551
     23 C         -10.7220  -19.4386   23.3850 C.ar    1  UNL1        0.0021
     24 C         -11.8009  -19.2347   24.4070 C.ar    1  UNL1       -0.0019
     25 C         -13.0123  -18.4185   24.0660 C.ar    1  UNL1        0.0099
     26 C         -13.1449  -17.8062   22.7031 C.ar    1  UNL1        0.0348
     27 C         -12.0660  -18.0101   21.6812 C.ar    1  UNL1        0.1379
     28 C         -14.0912  -18.2145   25.0880 C.3     1  UNL1        0.1637
     29 O         -15.4706  -18.7489   24.8392 O.3     1  UNL1       -0.3772
     30 H         -15.8680  -18.2811   24.0882 H       1  UNL1        0.2109
     31 O         -12.1985  -17.3978   20.3183 O.3     1  UNL1       -0.4716
     32 C         -11.5782  -16.0622   20.0325 C.3     1  UNL1        0.2525
@<TRIPOS>BOND
     1    18    19    1
     2    19    17    1
     3    17    16    1
     4    16    14    1
     5    14     1    1
     6     1     2   ar
     7     2     3   ar
     8     3     4    1
     9     3     5   ar
    10     5     6   ar
    11     6     7   ar
    12     7     8   ar
    13     8     9   ar
    14     9    10   ar
    15    10    20    1
    16    20    21    1
    17    21    22    1
    18    22    23   ar
    19    23    24   ar
    20    24    25   ar
    21    25    28    1
    22    28    29    1
    23    25    26   ar
    24    26    27   ar
    25    27    31    1
    26    31    32    1
    27    10    11   ar
    28    11     1   ar
    29    11     6   ar
    30    27    22   ar
    31    14    15    1
    32     4    12    1
    33     4    13    1
    34    29    30    1
@<TRIPOS>MOLECULE
*****
 32 34 0 0 0
SMALL
GASTEIGER

@<TRIPOS>ATOM
      1 C          -9.0920  -17.8955   21.3232 C.ar    1  UNL1        0.1357
      2 N         -10.5418  -17.9372   20.9407 N.ar    1  UNL1       -0.1992
      3 C         -11.5604  -17.2277   21.7827 C.ar    1  UNL1        0.2148
      4 N         -13.0102  -17.2695   21.4001 N.pl3   1  UNL1       -0.3274
      5 N         -11.1292  -16.4765   23.0073 N.ar    1  UNL1       -0.2138
      6 C          -9.6794  -16.4347   23.3899 C.ar    1  UNL1        0.0898
      7 C          -9.2482  -15.6835   24.6145 C.ar    1  UNL1        0.0195
      8 C          -7.7984  -15.6417   24.9970 C.ar    1  UNL1        0.0047
      9 C          -6.7798  -16.3512   24.1550 C.ar    1  UNL1        0.0371
     10 C          -7.2110  -17.1025   22.9304 C.ar    1  UNL1        0.1431
     11 C          -8.6608  -17.1442   22.5478 C.ar    1  UNL1        0.0831
     12 H         -13.2932  -17.7626   20.5964 H       1  UNL1        0.1452
     13 H         -13.6788  -16.8038   21.9528 H       1  UNL1        0.1452
     14 N          -8.0734  -18.6050   20.4811 N.pl3   1  UNL1       -0.3179
     15 H          -7.2051  -18.1795   20.2962 H       1  UNL1        0.1482
     16 C          -8.3778  -19.9627   19.9208 C.3     1  UNL1        0.0882
     17 C          -9.0169  -20.0904   18.5698 C.3     1  UNL1        0.0212
     18 C          -9.3304  -21.4331   16.3677 C.3     1  UNL1        0.0001
     19 C          -8.9012  -21.3750   17.8039 C.3     1  UNL1        0.0017
     20 O          -6.1924  -17.8120   22.0883 O.3     1  UNL1       -0.4704
     21 C          -4.9354  -18.3376   22.7157 C.3     1  UNL1        0.2350
     22 C          -3.6108  -18.1020   22.0524 C.ar    1  UNL1        0.0551
     23 C          -2.9253  -16.7756   22.1965 C.ar    1  UNL1        0.0021
     24 C          -1.6007  -16.5399   21.5332 C.ar    1  UNL1       -0.0019
     25 C          -0.9617  -17.6308   20.7257 C.ar    1  UNL1        0.0099
     26 C          -1.6473  -18.9571   20.5816 C.ar    1  UNL1        0.0348
     27 C          -2.9718  -19.1927   21.2449 C.ar    1  UNL1        0.1379
     28 C           0.3629  -17.3951   20.0624 C.3     1  UNL1        0.1637
     29 O           1.6337  -17.7344   20.7836 O.3     1  UNL1       -0.3772
     30 H           1.7328  -17.1542   21.5545 H       1  UNL1        0.2109
     31 O          -3.6574  -20.5190   21.1009 O.3     1  UNL1       -0.4716
     32 C          -4.7469  -20.6937   20.0846 C.3     1  UNL1        0.2525
@<TRIPOS>BOND
     1    18    19    1
     2    19    17    1
     3    17    16    1
     4    16    14    1
     5    14     1    1
     6     1     2   ar
     7     2     3   ar
     8     3     4    1
     9     3     5   ar
    10     5     6   ar
    11     6     7   ar
    12     7     8   ar
    13     8     9   ar
    14     9    10   ar
    15    10    20    1
    16    20    21    1
    17    21    22    1
    18    22    23   ar
    19    23    24   ar
    20    24    25   ar
    21    25    28    1
    22    28    29    1
    23    25    26   ar
    24    26    27   ar
    25    27    31    1
    26    31    32    1
    27    10    11   ar
    28    11     1   ar
    29    11     6   ar
    30    27    22   ar
    31    14    15    1
    32     4    12    1
    33     4    13    1
    34    29    30    1
