@<TRIPOS>MOLECULE
*****
 32 35 0 0 0
SMALL
GASTEIGER

@<TRIPOS>ATOM
      1 C          -6.2903  -17.5718   23.1545 C.ar    1  UNL1        0.1743
      2 N          -7.7456  -17.9034   23.0061 N.ar    1  UNL1       -0.2173
      3 C          -8.7796  -17.0708   23.7043 C.ar    1  UNL1        0.1834
      4 N          -8.3583  -15.9064   24.5510 N.ar    1  UNL1       -0.1885
      5 C          -6.9030  -15.5747   24.6994 C.ar    1  UNL1        0.2596
      6 O          -6.4817  -14.4104   25.5460 O.3     1  UNL1       -0.4898
      7 C          -5.8690  -16.4075   24.0012 C.ar    1  UNL1        0.2098
      8 O          -4.4137  -16.0758   24.1496 O.3     1  UNL1       -0.5007
      9 H          -7.1276  -13.8903   25.9822 H       1  UNL1        0.2938
     10 H          -4.1505  -15.3485   24.6785 H       1  UNL1        0.2924
     11 C         -10.2349  -17.4025   23.5558 C.ar    1  UNL1        0.1170
     12 N         -10.9338  -18.2019   24.6153 N.ar    1  UNL1       -0.2407
     13 C         -12.3891  -18.5336   24.4668 C.ar    1  UNL1        0.0989
     14 C         -13.1456  -18.0658   23.2590 C.ar    1  UNL1        0.0207
     15 C         -12.4467  -17.2663   22.1995 C.ar    1  UNL1        0.0031
     16 C         -13.2031  -16.7986   20.9916 C.ar    1  UNL1        0.0001
     17 C         -12.5043  -15.9991   19.9322 C.ar    1  UNL1        0.0000
     18 C         -11.0489  -15.6675   20.0807 C.ar    1  UNL1        0.0000
     19 C         -10.2925  -16.1352   21.2885 C.ar    1  UNL1        0.0016
     20 C         -10.9914  -16.9347   22.3479 C.ar    1  UNL1        0.0207
     21 N          -5.4202  -18.7411   21.0038 N.am    1  UNL1       -0.3012
     22 C          -5.2563  -18.4045   22.4563 C.2     1  UNL1        0.2668
     23 O          -4.0584  -18.9005   23.2106 O.2     1  UNL1       -0.2684
     24 H          -6.2064  -18.4155   20.5087 H       1  UNL1        0.1497
     25 C          -4.6724  -21.0107   19.9843 C.3     1  UNL1        0.0213
     26 C          -4.3863  -19.5737   20.3055 C.3     1  UNL1        0.0719
     27 C          -3.0662  -18.9694   19.9285 C.3     1  UNL1        0.0180
     28 C          -2.9592  -18.1020   18.7094 C.3     1  UNL1        0.0016
     29 C          -1.6391  -17.4977   18.3324 C.3     1  UNL1        0.0001
     30 C          -0.4260  -17.7607   19.1745 C.3     1  UNL1        0.0000
     31 C          -0.5330  -18.6280   20.3936 C.3     1  UNL1        0.0001
     32 C          -1.8531  -19.2324   20.7706 C.3     1  UNL1        0.0016
@<TRIPOS>BOND
     1    26    25    1
     2    26    21    1
     3    21    22   am
     4    22    23    2
     5    22     1    1
     6     1     2   ar
     7     2     3   ar
     8     3    11    1
     9    11    12   ar
    10    12    13   ar
    11    13    14   ar
    12    14    15   ar
    13    15    16   ar
    14    16    17   ar
    15    17    18   ar
    16    18    19   ar
    17    19    20   ar
    18     3     4   ar
    19     4     5   ar
    20     5     6    1
    21     5     7   ar
    22     7     8    1
    23    26    27    1
    24    27    28    1
    25    28    29    1
    26    29    30    1
    27    30    31    1
    28    31    32    1
    29     7     1   ar
    30    32    27    1
    31    20    11   ar
    32    20    15   ar
    33    21    24    1
    34     6     9    1
    35     8    10    1
@<TRIPOS>MOLECULE
*****
 32 35 0 0 0
SMALL
GASTEIGER

@<TRIPOS>ATOM
      1 C          -6.2216  -17.3545   22.7852 C.ar    1  UNL1        0.1743
      2 N          -7.6009  -17.3960   22.1973 N.ar    1  UNL1       -0.2173
      3 C          -8.6724  -16.4938   22.7339 C.ar    1  UNL1        0.1834
      4 N          -8.3645  -15.5499   23.8583 N.ar    1  UNL1       -0.1885
      5 C          -6.9851  -15.5084   24.4462 C.ar    1  UNL1        0.2596
      6 O          -6.6771  -14.5645   25.5706 O.3     1  UNL1       -0.4898
      7 C          -5.9136  -16.4107   23.9096 C.ar    1  UNL1        0.2098
      8 O          -4.5343  -16.3692   24.4975 O.3     1  UNL1       -0.5007
      9 H          -7.3464  -14.0009   25.9058 H       1  UNL1        0.2938
     10 H          -4.3419  -15.7796   25.1999 H       1  UNL1        0.2924
     11 C         -10.0517  -16.5353   22.1460 C.ar    1  UNL1        0.1170
     12 N         -10.3261  -15.8717   20.8291 N.ar    1  UNL1       -0.2407
     13 C         -11.7054  -15.9132   20.2412 C.ar    1  UNL1        0.0989
     14 C         -12.8105  -16.6184   20.9702 C.ar    1  UNL1        0.0207
     15 C         -12.5362  -17.2820   22.2872 C.ar    1  UNL1        0.0031
     16 C         -13.6413  -17.9872   23.0162 C.ar    1  UNL1        0.0001
     17 C         -13.3670  -18.6508   24.3331 C.ar    1  UNL1        0.0000
     18 C         -11.9876  -18.6093   24.9210 C.ar    1  UNL1        0.0000
     19 C         -10.8825  -17.9041   24.1920 C.ar    1  UNL1        0.0016
     20 C         -11.1568  -17.2405   22.8751 C.ar    1  UNL1        0.0207
     21 N          -5.1016  -18.5748   20.7835 N.am    1  UNL1       -0.3012
     22 C          -5.1501  -18.2568   22.2486 C.2     1  UNL1        0.2668
     23 O          -4.1272  -18.8412   23.1771 O.2     1  UNL1       -0.2684
     24 H          -5.7730  -18.1912   20.1741 H       1  UNL1        0.1497
     25 C          -4.3158  -20.9334   20.0291 C.3     1  UNL1        0.0213
     26 C          -4.0303  -19.4771   20.2469 C.3     1  UNL1        0.0719
     27 C          -2.6733  -18.9230   19.9281 C.3     1  UNL1        0.0180
     28 C          -1.5808  -18.9777   20.9546 C.3     1  UNL1        0.0016
     29 C          -0.2238  -18.4236   20.6358 C.3     1  UNL1        0.0001
     30 C           0.0407  -17.8148   19.2907 C.3     1  UNL1        0.0000
     31 C          -1.0518  -17.7601   18.2643 C.3     1  UNL1        0.0001
     32 C          -2.4088  -18.3142   18.5830 C.3     1  UNL1        0.0016
@<TRIPOS>BOND
     1    26    25    1
     2    26    21    1
     3    21    22   am
     4    22    23    2
     5    22     1    1
     6     1     2   ar
     7     2     3   ar
     8     3    11    1
     9    11    12   ar
    10    12    13   ar
    11    13    14   ar
    12    14    15   ar
    13    15    16   ar
    14    16    17   ar
    15    17    18   ar
    16    18    19   ar
    17    19    20   ar
    18     3     4   ar
    19     4     5   ar
    20     5     6    1
    21     5     7   ar
    22     7     8    1
    23    26    27    1
    24    27    28    1
    25    28    29    1
    26    29    30    1
    27    30    31    1
    28    31    32    1
    29     7     1   ar
    30    32    27    1
    31    20    11   ar
    32    20    15   ar
    33    21    24    1
    34     6     9    1
    35     8    10    1
@<TRIPOS>MOLECULE
*****
 32 35 0 0 0
SMALL
GASTEIGER

@<TRIPOS>ATOM
      1 C          -6.9562  -19.6168   20.6117 C.ar    1  UNL1        0.1743
      2 N          -8.0982  -18.7057   20.9521 N.ar    1  UNL1       -0.2173
      3 C          -9.4242  -18.8791   20.2726 C.ar    1  UNL1        0.1834
      4 N          -9.6082  -19.9636   19.2527 N.ar    1  UNL1       -0.1885
      5 C          -8.4662  -20.8746   18.9123 C.ar    1  UNL1        0.2596
      6 O          -8.6502  -21.9590   17.8925 O.3     1  UNL1       -0.4898
      7 C          -7.1402  -20.7012   19.5919 C.ar    1  UNL1        0.2098
      8 O          -5.9982  -21.6122   19.2515 O.3     1  UNL1       -0.5007
      9 H          -9.4785  -22.0674   17.4680 H       1  UNL1        0.2938
     10 H          -6.1131  -22.2897   18.6144 H       1  UNL1        0.2924
     11 C         -10.5662  -17.9680   20.6130 C.ar    1  UNL1        0.1170
     12 N         -10.9633  -16.8765   19.6639 N.ar    1  UNL1       -0.2407
     13 C         -12.1053  -15.9654   20.0043 C.ar    1  UNL1        0.0989
     14 C         -12.8501  -16.1459   21.2937 C.ar    1  UNL1        0.0207
     15 C         -12.4529  -17.2375   22.2428 C.ar    1  UNL1        0.0031
     16 C         -13.1977  -17.4180   23.5323 C.ar    1  UNL1        0.0001
     17 C         -12.8006  -18.5095   24.4813 C.ar    1  UNL1        0.0000
     18 C         -11.6586  -19.4206   24.1409 C.ar    1  UNL1        0.0000
     19 C         -10.9138  -19.2401   22.8515 C.ar    1  UNL1        0.0016
     20 C         -11.3110  -18.1486   21.9025 C.ar    1  UNL1        0.0207
     21 N          -5.2186  -18.0933   21.7991 N.am    1  UNL1       -0.3012
     22 C          -5.6302  -19.4433   21.2912 C.2     1  UNL1        0.2668
     23 O          -4.7159  -20.6199   21.4629 O.2     1  UNL1       -0.2684
     24 H          -5.8188  -17.3210   21.6864 H       1  UNL1        0.1497
     25 C          -3.8121  -17.9181   23.9764 C.3     1  UNL1        0.0213
     26 C          -3.8927  -17.9198   22.4786 C.3     1  UNL1        0.0719
     27 C          -2.6474  -17.7481   21.6602 C.3     1  UNL1        0.0180
     28 C          -2.0471  -18.9261   20.9517 C.3     1  UNL1        0.0016
     29 C          -0.8018  -18.7544   20.1334 C.3     1  UNL1        0.0001
     30 C          -0.1567  -17.4047   20.0235 C.3     1  UNL1        0.0000
     31 C          -0.7570  -16.2266   20.7320 C.3     1  UNL1        0.0001
     32 C          -2.0023  -16.3983   21.5503 C.3     1  UNL1        0.0016
@<TRIPOS>BOND
     1    26    25    1
     2    26    21    1
     3    21    22   am
     4    22    23    2
     5    22     1    1
     6     1     2   ar
     7     2     3   ar
     8     3    11    1
     9    11    12   ar
    10    12    13   ar
    11    13    14   ar
    12    14    15   ar
    13    15    16   ar
    14    16    17   ar
    15    17    18   ar
    16    18    19   ar
    17    19    20   ar
    18     3     4   ar
    19     4     5   ar
    20     5     6    1
    21     5     7   ar
    22     7     8    1
    23    26    27    1
    24    27    28    1
    25    28    29    1
    26    29    30    1
    27    30    31    1
    28    31    32    1
    29     7     1   ar
    30    32    27    1
    31    20    11   ar
    32    20    15   ar
    33    21    24    1
    34     6     9    1
    35     8    10    1
@<TRIPOS>MOLECULE
*****
 32 35 0 0 0
SMALL
GASTEIGER

@<TRIPOS>ATOM
      1 C           6.9032   -3.8683   29.4055 C.ar    1  UNL1        0.1743
      2 N           6.3930   -2.6807   30.1665 N.ar    1  UNL1       -0.2173
      3 C           6.1069   -2.7968   31.6343 C.ar    1  UNL1        0.1834
      4 N           6.3312   -4.1007   32.3413 N.ar    1  UNL1       -0.1885
      5 C           6.8415   -5.2884   31.5803 C.ar    1  UNL1        0.2596
      6 O           7.0657   -6.5922   32.2872 O.3     1  UNL1       -0.4898
      7 C           7.1275   -5.1721   30.1124 C.ar    1  UNL1        0.2098
      8 O           7.6378   -6.3598   29.3514 O.3     1  UNL1       -0.5007
      9 H           6.8871   -6.6648   33.2041 H       1  UNL1        0.2938
     10 H           7.7779   -7.1743   29.7930 H       1  UNL1        0.2924
     11 C           5.5966   -1.6092   32.3953 C.ar    1  UNL1        0.1170
     12 N           4.1473   -1.2315   32.3125 N.ar    1  UNL1       -0.2407
     13 C           3.6371   -0.0439   33.0734 C.ar    1  UNL1        0.0989
     14 C           4.5761    0.7661   33.9173 C.ar    1  UNL1        0.0207
     15 C           6.0254    0.3885   34.0001 C.ar    1  UNL1        0.0031
     16 C           6.9644    1.1985   34.8440 C.ar    1  UNL1        0.0001
     17 C           8.4137    0.8209   34.9268 C.ar    1  UNL1        0.0000
     18 C           8.9240   -0.3667   34.1658 C.ar    1  UNL1        0.0000
     19 C           7.9850   -1.1768   33.3220 C.ar    1  UNL1        0.0016
     20 C           6.5357   -0.7991   33.2392 C.ar    1  UNL1        0.0207
     21 N           6.4012   -4.5646   26.9533 N.am    1  UNL1       -0.3012
     22 C           7.1893   -3.7521   27.9376 C.2     1  UNL1        0.2668
     23 O           8.2633   -2.8234   27.4540 O.2     1  UNL1       -0.2684
     24 H           5.6962   -5.1741   27.2707 H       1  UNL1        0.1497
     25 C           6.1080   -3.3120   24.6961 C.3     1  UNL1        0.0213
     26 C           6.6872   -4.4484   25.4854 C.3     1  UNL1        0.0719
     27 C           7.5523   -5.4687   24.8069 C.3     1  UNL1        0.0180
     28 C           8.0406   -5.2277   23.4092 C.3     1  UNL1        0.0016
     29 C           8.9058   -6.2480   22.7306 C.3     1  UNL1        0.0001
     30 C           9.2828   -7.5092   23.4497 C.3     1  UNL1        0.0000
     31 C           8.7945   -7.7503   24.8474 C.3     1  UNL1        0.0001
     32 C           7.9293   -6.7300   25.5260 C.3     1  UNL1        0.0016
@<TRIPOS>BOND
     1    26    25    1
     2    26    21    1
     3    21    22   am
     4    22    23    2
     5    22     1    1
     6     1     2   ar
     7     2     3   ar
     8     3    11    1
     9    11    12   ar
    10    12    13   ar
    11    13    14   ar
    12    14    15   ar
    13    15    16   ar
    14    16    17   ar
    15    17    18   ar
    16    18    19   ar
    17    19    20   ar
    18     3     4   ar
    19     4     5   ar
    20     5     6    1
    21     5     7   ar
    22     7     8    1
    23    26    27    1
    24    27    28    1
    25    28    29    1
    26    29    30    1
    27    30    31    1
    28    31    32    1
    29     7     1   ar
    30    32    27    1
    31    20    11   ar
    32    20    15   ar
    33    21    24    1
    34     6     9    1
    35     8    10    1
@<TRIPOS>MOLECULE
*****
 32 35 0 0 0
SMALL
GASTEIGER

@<TRIPOS>ATOM
      1 C           7.0440   -3.6830   29.3261 C.ar    1  UNL1        0.1743
      2 N           6.8764   -2.4015   30.0876 N.ar    1  UNL1       -0.2173
      3 C           6.6262   -2.4349   31.5661 C.ar    1  UNL1        0.1834
      4 N           6.5436   -3.7498   32.2834 N.ar    1  UNL1       -0.1885
      5 C           6.7112   -5.0312   31.5219 C.ar    1  UNL1        0.2596
      6 O           6.6287   -6.3461   32.2391 O.3     1  UNL1       -0.4898
      7 C           6.9615   -4.9978   30.0433 C.ar    1  UNL1        0.2098
      8 O           7.1291   -6.2793   29.2819 O.3     1  UNL1       -0.5007
      9 H           6.4724   -6.3669   33.1627 H       1  UNL1        0.2938
     10 H           7.0775   -7.1006   29.7298 H       1  UNL1        0.2924
     11 C           6.4586   -1.1534   32.3276 C.ar    1  UNL1        0.1170
     12 N           7.5763   -0.6392   33.1856 N.ar    1  UNL1       -0.2407
     13 C           7.4086    0.6423   33.9470 C.ar    1  UNL1        0.0989
     14 C           6.1233    1.4095   33.8504 C.ar    1  UNL1        0.0207
     15 C           5.0055    0.8952   32.9924 C.ar    1  UNL1        0.0031
     16 C           3.7202    1.6623   32.8958 C.ar    1  UNL1        0.0001
     17 C           2.6025    1.1480   32.0378 C.ar    1  UNL1        0.0000
     18 C           2.7702   -0.1334   31.2764 C.ar    1  UNL1        0.0000
     19 C           4.0555   -0.9006   31.3730 C.ar    1  UNL1        0.0016
     20 C           5.1732   -0.3863   32.2310 C.ar    1  UNL1        0.0207
     21 N           6.4059   -4.4232   26.9188 N.am    1  UNL1       -0.3012
     22 C           7.2943   -3.6495   27.8475 C.2     1  UNL1        0.2668
     23 O           8.4327   -2.8425   27.2975 O.2     1  UNL1       -0.2684
     24 H           5.6587   -4.9529   27.2798 H       1  UNL1        0.1497
     25 C           6.0420   -3.3097   24.5999 C.3     1  UNL1        0.0213
     26 C           6.6561   -4.3898   25.4403 C.3     1  UNL1        0.0719
     27 C           7.5204   -5.4365   24.8020 C.3     1  UNL1        0.0180
     28 C           7.8549   -6.6921   25.5515 C.3     1  UNL1        0.0016
     29 C           8.7192   -7.7388   24.9133 C.3     1  UNL1        0.0001
     30 C           9.2490   -7.5300   23.5256 C.3     1  UNL1        0.0000
     31 C           8.9145   -6.2745   22.7761 C.3     1  UNL1        0.0001
     32 C           8.0502   -5.2277   23.4143 C.3     1  UNL1        0.0016
@<TRIPOS>BOND
     1    26    25    1
     2    26    21    1
     3    21    22   am
     4    22    23    2
     5    22     1    1
     6     1     2   ar
     7     2     3   ar
     8     3    11    1
     9    11    12   ar
    10    12    13   ar
    11    13    14   ar
    12    14    15   ar
    13    15    16   ar
    14    16    17   ar
    15    17    18   ar
    16    18    19   ar
    17    19    20   ar
    18     3     4   ar
    19     4     5   ar
    20     5     6    1
    21     5     7   ar
    22     7     8    1
    23    26    27    1
    24    27    28    1
    25    28    29    1
    26    29    30    1
    27    30    31    1
    28    31    32    1
    29     7     1   ar
    30    32    27    1
    31    20    11   ar
    32    20    15   ar
    33    21    24    1
    34     6     9    1
    35     8    10    1
@<TRIPOS>MOLECULE
*****
 32 35 0 0 0
SMALL
GASTEIGER

@<TRIPOS>ATOM
      1 C           5.6658   -2.3110   25.5089 C.ar    1  UNL1        0.1743
      2 N           6.1351   -2.1632   24.0919 N.ar    1  UNL1       -0.2173
      3 C           5.3195   -1.3754   23.1100 C.ar    1  UNL1        0.1834
      4 N           4.0346   -0.7353   23.5452 N.ar    1  UNL1       -0.1885
      5 C           3.5653   -0.8831   24.9622 C.ar    1  UNL1        0.2596
      6 O           2.2805   -0.2430   25.3974 O.3     1  UNL1       -0.4898
      7 C           4.3810   -1.6710   25.9441 C.ar    1  UNL1        0.2098
      8 O           3.9117   -1.8187   27.3611 O.3     1  UNL1       -0.5007
      9 H           1.7709    0.2491   24.7841 H       1  UNL1        0.2938
     10 H           3.1091   -1.4189   27.6329 H       1  UNL1        0.2924
     11 C           5.7887   -1.2276   21.6930 C.ar    1  UNL1        0.1170
     12 N           6.6712   -0.0763   21.3114 N.ar    1  UNL1       -0.2407
     13 C           7.1405    0.0714   19.8943 C.ar    1  UNL1        0.0989
     14 C           6.7272   -0.9321   18.8589 C.ar    1  UNL1        0.0207
     15 C           5.8447   -2.0835   19.2405 C.ar    1  UNL1        0.0031
     16 C           5.4315   -3.0870   18.2051 C.ar    1  UNL1        0.0001
     17 C           4.5490   -4.2383   18.5867 C.ar    1  UNL1        0.0000
     18 C           4.0797   -4.3861   20.0038 C.ar    1  UNL1        0.0000
     19 C           4.4930   -3.3826   21.0392 C.ar    1  UNL1        0.0016
     20 C           5.3755   -2.2312   20.6576 C.ar    1  UNL1        0.0207
     21 N           5.8159   -4.1054   27.3818 N.am    1  UNL1       -0.3012
     22 C           6.4815   -3.0989   26.4908 C.2     1  UNL1        0.2668
     23 O           7.9627   -2.8803   26.5815 O.2     1  UNL1       -0.2684
     24 H           4.8438   -4.2488   27.3223 H       1  UNL1        0.1497
     25 C           6.7415   -4.4333   29.7872 C.3     1  UNL1        0.0213
     26 C           6.6315   -4.8932   28.3637 C.3     1  UNL1        0.0719
     27 C           7.3372   -6.1410   27.9220 C.3     1  UNL1        0.0180
     28 C           7.0590   -6.7201   26.5664 C.3     1  UNL1        0.0016
     29 C           7.7647   -7.9678   26.1247 C.3     1  UNL1        0.0001
     30 C           8.7484   -8.6365   27.0385 C.3     1  UNL1        0.0000
     31 C           9.0266   -8.0575   28.3940 C.3     1  UNL1        0.0001
     32 C           8.3209   -6.8097   28.8357 C.3     1  UNL1        0.0016
@<TRIPOS>BOND
     1    26    25    1
     2    26    21    1
     3    21    22   am
     4    22    23    2
     5    22     1    1
     6     1     2   ar
     7     2     3   ar
     8     3    11    1
     9    11    12   ar
    10    12    13   ar
    11    13    14   ar
    12    14    15   ar
    13    15    16   ar
    14    16    17   ar
    15    17    18   ar
    16    18    19   ar
    17    19    20   ar
    18     3     4   ar
    19     4     5   ar
    20     5     6    1
    21     5     7   ar
    22     7     8    1
    23    26    27    1
    24    27    28    1
    25    28    29    1
    26    29    30    1
    27    30    31    1
    28    31    32    1
    29     7     1   ar
    30    32    27    1
    31    20    11   ar
    32    20    15   ar
    33    21    24    1
    34     6     9    1
    35     8    10    1
@<TRIPOS>MOLECULE
*****
 32 35 0 0 0
SMALL
GASTEIGER

@<TRIPOS>ATOM
      1 C          -8.2684  -18.6969   21.3177 C.ar    1  UNL1        0.1743
      2 N          -7.9702  -18.1984   22.7006 N.ar    1  UNL1       -0.2173
      3 C          -9.0786  -17.6720   23.5634 C.ar    1  UNL1        0.1834
      4 N         -10.4853  -17.6442   23.0431 N.ar    1  UNL1       -0.1885
      5 C         -10.7835  -18.1427   21.6602 C.ar    1  UNL1        0.2596
      6 O         -12.1901  -18.1149   21.1400 O.3     1  UNL1       -0.4898
      7 C          -9.6750  -18.6691   20.7975 C.ar    1  UNL1        0.2098
      8 O          -9.9732  -19.1677   19.4145 O.3     1  UNL1       -0.5007
      9 H         -12.8825  -17.7861   21.6789 H       1  UNL1        0.2938
     10 H         -10.8518  -19.1503   19.0896 H       1  UNL1        0.2924
     11 C          -8.7804  -17.1735   24.9463 C.ar    1  UNL1        0.1170
     12 N          -9.6893  -17.5312   26.0847 N.ar    1  UNL1       -0.2407
     13 C          -9.3911  -17.0327   27.4676 C.ar    1  UNL1        0.0989
     14 C          -8.1841  -16.1763   27.7122 C.ar    1  UNL1        0.0207
     15 C          -7.2752  -15.8185   26.5737 C.ar    1  UNL1        0.0031
     16 C          -6.0682  -14.9622   26.8183 C.ar    1  UNL1        0.0001
     17 C          -5.1594  -14.6044   25.6799 C.ar    1  UNL1        0.0000
     18 C          -5.4576  -15.1030   24.2969 C.ar    1  UNL1        0.0000
     19 C          -6.6646  -15.9593   24.0524 C.ar    1  UNL1        0.0016
     20 C          -7.5734  -16.3171   25.1908 C.ar    1  UNL1        0.0207
     21 N          -5.8704  -19.6680   21.0791 N.am    1  UNL1       -0.3012
     22 C          -7.1599  -19.2233   20.4550 C.2     1  UNL1        0.2668
     23 O          -7.3409  -19.3051   18.9682 O.2     1  UNL1       -0.2684
     24 H          -5.7516  -19.6143   22.0549 H       1  UNL1        0.1497
     25 C          -4.8850  -21.5467   19.5793 C.3     1  UNL1        0.0213
     26 C          -4.7619  -20.1943   20.2165 C.3     1  UNL1        0.0719
     27 C          -3.5304  -19.3683   19.9910 C.3     1  UNL1        0.0180
     28 C          -3.5075  -18.3378   18.9012 C.3     1  UNL1        0.0016
     29 C          -2.2760  -17.5118   18.6757 C.3     1  UNL1        0.0001
     30 C          -1.0671  -17.7163   19.5400 C.3     1  UNL1        0.0000
     31 C          -1.0899  -18.7467   20.6297 C.3     1  UNL1        0.0001
     32 C          -2.3215  -19.5728   20.8553 C.3     1  UNL1        0.0016
@<TRIPOS>BOND
     1    26    25    1
     2    26    21    1
     3    21    22   am
     4    22    23    2
     5    22     1    1
     6     1     2   ar
     7     2     3   ar
     8     3    11    1
     9    11    12   ar
    10    12    13   ar
    11    13    14   ar
    12    14    15   ar
    13    15    16   ar
    14    16    17   ar
    15    17    18   ar
    16    18    19   ar
    17    19    20   ar
    18     3     4   ar
    19     4     5   ar
    20     5     6    1
    21     5     7   ar
    22     7     8    1
    23    26    27    1
    24    27    28    1
    25    28    29    1
    26    29    30    1
    27    30    31    1
    28    31    32    1
    29     7     1   ar
    30    32    27    1
    31    20    11   ar
    32    20    15   ar
    33    21    24    1
    34     6     9    1
    35     8    10    1
@<TRIPOS>MOLECULE
*****
 32 35 0 0 0
SMALL
GASTEIGER

@<TRIPOS>ATOM
      1 C         -16.1214   -3.8911   18.6533 C.ar    1  UNL1        0.1743
      2 N         -14.7857   -3.8283   17.9736 N.ar    1  UNL1       -0.2173
      3 C         -13.8756   -2.6607   18.2148 C.ar    1  UNL1        0.1834
      4 N         -14.3012   -1.5557   19.1356 N.ar    1  UNL1       -0.1885
      5 C         -15.6369   -1.6184   19.8153 C.ar    1  UNL1        0.2596
      6 O         -16.0625   -0.5134   20.7361 O.3     1  UNL1       -0.4898
      7 C         -16.5470   -2.7861   19.5741 C.ar    1  UNL1        0.2098
      8 O         -17.8828   -2.8488   20.2537 O.3     1  UNL1       -0.5007
      9 H         -15.4940    0.2160   20.8867 H       1  UNL1        0.2938
     10 H         -18.1486   -2.1586   20.8289 H       1  UNL1        0.2924
     11 C         -12.5399   -2.5980   17.5352 C.ar    1  UNL1        0.1170
     12 N         -12.1965   -1.4272   16.6627 N.ar    1  UNL1       -0.2407
     13 C         -10.8608   -1.3644   15.9831 C.ar    1  UNL1        0.0989
     14 C          -9.8684   -2.4726   16.1759 C.ar    1  UNL1        0.0207
     15 C         -10.2117   -3.6435   17.0484 C.ar    1  UNL1        0.0031
     16 C          -9.2194   -4.7516   17.2412 C.ar    1  UNL1        0.0001
     17 C          -9.5627   -5.9224   18.1137 C.ar    1  UNL1        0.0000
     18 C         -10.8984   -5.9851   18.7933 C.ar    1  UNL1        0.0000
     19 C         -11.8908   -4.8770   18.6005 C.ar    1  UNL1        0.0016
     20 C         -11.5475   -3.7062   17.7280 C.ar    1  UNL1        0.0207
     21 N         -17.0727   -5.7113   17.0620 N.am    1  UNL1       -0.3012
     22 C         -17.0316   -5.0588   18.4120 C.2     1  UNL1        0.2668
     23 O         -17.9006   -5.5739   19.5208 O.2     1  UNL1       -0.2684
     24 H         -16.5023   -5.3732   16.3343 H       1  UNL1        0.1497
     25 C         -19.2544   -6.6916   16.0476 C.3     1  UNL1        0.0213
     26 C         -17.9827   -6.8790   16.8208 C.3     1  UNL1        0.0719
     27 C         -17.6212   -8.2341   17.3527 C.3     1  UNL1        0.0180
     28 C         -18.6889   -9.2664   17.5637 C.3     1  UNL1        0.0016
     29 C         -18.3273  -10.6214   18.0956 C.3     1  UNL1        0.0001
     30 C         -16.8980  -10.9443   18.4165 C.3     1  UNL1        0.0000
     31 C         -15.8304   -9.9121   18.2056 C.3     1  UNL1        0.0001
     32 C         -16.1919   -8.5569   17.6736 C.3     1  UNL1        0.0016
@<TRIPOS>BOND
     1    26    25    1
     2    26    21    1
     3    21    22   am
     4    22    23    2
     5    22     1    1
     6     1     2   ar
     7     2     3   ar
     8     3    11    1
     9    11    12   ar
    10    12    13   ar
    11    13    14   ar
    12    14    15   ar
    13    15    16   ar
    14    16    17   ar
    15    17    18   ar
    16    18    19   ar
    17    19    20   ar
    18     3     4   ar
    19     4     5   ar
    20     5     6    1
    21     5     7   ar
    22     7     8    1
    23    26    27    1
    24    27    28    1
    25    28    29    1
    26    29    30    1
    27    30    31    1
    28    31    32    1
    29     7     1   ar
    30    32    27    1
    31    20    11   ar
    32    20    15   ar
    33    21    24    1
    34     6     9    1
    35     8    10    1
@<TRIPOS>MOLECULE
*****
 32 35 0 0 0
SMALL
GASTEIGER

@<TRIPOS>ATOM
      1 C           5.8424   -2.5791   20.9561 C.ar    1  UNL1        0.1743
      2 N           6.1853   -1.3573   20.1562 N.ar    1  UNL1       -0.2173
      3 C           5.4960   -1.0987   18.8494 C.ar    1  UNL1        0.1834
      4 N           4.4637   -2.0617   18.3424 N.ar    1  UNL1       -0.1885
      5 C           4.1208   -3.2835   19.1423 C.ar    1  UNL1        0.2596
      6 O           3.0886   -4.2465   18.6354 O.3     1  UNL1       -0.4898
      7 C           4.8102   -3.5421   20.4492 C.ar    1  UNL1        0.2098
      8 O           4.4673   -4.7638   21.2491 O.3     1  UNL1       -0.5007
      9 H           2.6579   -4.0849   17.8191 H       1  UNL1        0.2938
     10 H           3.8225   -5.3654   20.9325 H       1  UNL1        0.2924
     11 C           5.8388    0.1230   18.0495 C.ar    1  UNL1        0.1170
     12 N           6.9541    0.0749   17.0476 N.ar    1  UNL1       -0.2407
     13 C           7.2969    1.2966   16.2477 C.ar    1  UNL1        0.0989
     14 C           6.5246    2.5665   16.4497 C.ar    1  UNL1        0.0207
     15 C           5.4092    2.6147   17.4517 C.ar    1  UNL1        0.0031
     16 C           4.6369    3.8845   17.6537 C.ar    1  UNL1        0.0001
     17 C           3.5216    3.9327   18.6556 C.ar    1  UNL1        0.0000
     18 C           3.1787    2.7109   19.4555 C.ar    1  UNL1        0.0000
     19 C           3.9511    1.4411   19.2535 C.ar    1  UNL1        0.0016
     20 C           5.0664    1.3930   18.2516 C.ar    1  UNL1        0.0207
     21 N           5.7886   -3.5003   23.3848 N.am    1  UNL1       -0.3012
     22 C           6.5319   -2.8377   22.2630 C.2     1  UNL1        0.2668
     23 O           7.9645   -2.4338   22.4480 O.2     1  UNL1       -0.2684
     24 H           4.8482   -3.7654   23.2634 H       1  UNL1        0.1497
     25 C           6.6023   -2.6596   25.7045 C.3     1  UNL1        0.0213
     26 C           6.4779   -3.7590   24.6917 C.3     1  UNL1        0.0719
     27 C           7.0428   -5.1170   24.9857 C.3     1  UNL1        0.0180
     28 C           6.7970   -5.7590   26.3189 C.3     1  UNL1        0.0016
     29 C           7.3619   -7.1171   26.6129 C.3     1  UNL1        0.0001
     30 C           8.1727   -7.8332   25.5737 C.3     1  UNL1        0.0000
     31 C           8.4184   -7.1913   24.2405 C.3     1  UNL1        0.0001
     32 C           7.8535   -5.8332   23.9465 C.3     1  UNL1        0.0016
@<TRIPOS>BOND
     1    26    25    1
     2    26    21    1
     3    21    22   am
     4    22    23    2
     5    22     1    1
     6     1     2   ar
     7     2     3   ar
     8     3    11    1
     9    11    12   ar
    10    12    13   ar
    11    13    14   ar
    12    14    15   ar
    13    15    16   ar
    14    16    17   ar
    15    17    18   ar
    16    18    19   ar
    17    19    20   ar
    18     3     4   ar
    19     4     5   ar
    20     5     6    1
    21     5     7   ar
    22     7     8    1
    23    26    27    1
    24    27    28    1
    25    28    29    1
    26    29    30    1
    27    30    31    1
    28    31    32    1
    29     7     1   ar
    30    32    27    1
    31    20    11   ar
    32    20    15   ar
    33    21    24    1
    34     6     9    1
    35     8    10    1
