@<TRIPOS>MOLECULE
*****
 59 64 0 0 0
SMALL
GASTEIGER

@<TRIPOS>ATOM
      1 C           4.6330   -0.0580   29.9360 C.ar    1  UNL1        0.0180
      2 C           5.4702    0.6727   28.9285 C.ar    1  UNL1        0.0015
      3 C           4.9265    0.9446   27.5573 C.ar    1  UNL1        0.0000
      4 C           3.5456    0.4857   27.1934 C.ar    1  UNL1        0.0000
      5 C           2.7083   -0.2451   28.2008 C.ar    1  UNL1        0.0000
      6 C           3.2520   -0.5169   29.5721 C.ar    1  UNL1        0.0015
      7 C           5.8766   -0.0371   33.6127 C.ar    1  UNL1        0.1363
      8 N           6.1498   -1.4595   33.2224 N.ar    1  UNL1       -0.2181
      9 C           5.7172   -1.6404   31.7976 C.ar    1  UNL1        0.1551
     10 CL          5.8090   -2.9092   31.0027 Cl      1  UNL1       -0.0598
     11 C           5.1766   -0.3299   31.3073 C.ar    1  UNL1        0.0863
     12 N           5.2752    0.6610   32.4291 N.ar    1  UNL1       -0.3388
     13 H           4.9944    1.6039   32.3946 H       1  UNL1        0.1672
     14 C           3.7487    1.6351   35.4361 C.2     1  UNL1        0.2439
     15 O           3.1819    1.1370   34.1397 O.2     1  UNL1       -0.2731
     16 N           5.1778    1.3476   35.7896 N.am    1  UNL1       -0.2730
     17 C           5.8797    1.7782   37.0434 C.3     1  UNL1        0.0939
     18 C           7.2916    1.2758   36.9801 C.3     1  UNL1        0.0237
     19 C           7.4623    0.5346   35.6872 C.3     1  UNL1        0.0293
     20 C           6.1559    0.5790   34.9515 C.3     1  UNL1        0.1319
     21 C           2.8863    2.4207   36.3790 C.3     1  UNL1        0.1512
     22 C           2.5029    1.9239   38.9002 C.2     1  UNL1        0.4021
     23 O           3.6408    2.8354   39.2529 O.2     1  UNL1       -0.2264
     24 N           2.1256    1.7166   37.4633 N.am    1  UNL1       -0.2640
     25 H           1.3788    1.1184   37.2318 H       1  UNL1        0.1532
     26 C           1.0603   -0.0848   39.6962 C.3     1  UNL1        0.2573
     27 O           1.7422    1.2198   39.9843 O.3     1  UNL1       -0.4306
     28 C           2.7846    3.9106   36.2377 C.3     1  UNL1        0.0270
     29 C           3.9450    4.6938   35.6989 C.3     1  UNL1        0.0022
     30 C           1.5226    4.6174   36.6351 C.3     1  UNL1        0.0022
     31 C           3.0019    0.7576   25.8220 C.ar    1  UNL1        0.0000
     32 C           1.5527    1.1012   25.6443 C.ar    1  UNL1        0.0001
     33 C           1.0090    1.3731   24.2730 C.ar    1  UNL1        0.0035
     34 C           1.9146    1.3014   23.0794 C.ar    1  UNL1        0.0444
     35 C           3.3639    0.9577   23.2571 C.ar    1  UNL1        0.0035
     36 C           3.9075    0.6859   24.6284 C.ar    1  UNL1        0.0001
     37 C           1.3710    1.5733   21.7081 C.2     1  UNL1        0.2354
     38 N           0.8632    2.8926   21.2065 N.2     1  UNL1       -0.0360
     39 C           0.4181    2.7083   19.7860 C.2     1  UNL1        0.3657
     40 N           0.6509    1.2750   19.4096 N.2     1  UNL1       -0.0406
     41 C           1.2398    0.5736   20.5975 C.3     1  UNL1        0.3584
     42 CL          1.6291   -0.8735   20.6633 Cl      1  UNL1       -0.0503
     43 C          -0.1585    3.7707   18.8978 C.3     1  UNL1        0.1874
     44 C           0.5980    4.5817   17.8879 C.3     1  UNL1        0.0344
     45 C          -0.3688    5.5208   17.2295 C.3     1  UNL1        0.0238
     46 C          -1.7227    5.2902   17.8326 C.3     1  UNL1        0.0940
     47 N          -1.5927    4.2085   18.8637 N.am    1  UNL1       -0.2691
     48 C          -2.7022    3.6608   19.7117 C.2     1  UNL1        0.2440
     49 O          -2.4198    2.5737   20.7058 O.2     1  UNL1       -0.2731
     50 C          -4.0942    4.2003   19.5654 C.3     1  UNL1        0.1512
     51 N          -4.5956    5.2490   20.5135 N.am    1  UNL1       -0.2640
     52 C          -5.1750    4.8477   21.8376 C.2     1  UNL1        0.4021
     53 O          -5.2530    3.3977   22.2137 O.2     1  UNL1       -0.2264
     54 H          -4.5445    6.2007   20.2667 H       1  UNL1        0.1532
     55 O          -5.6765    5.8963   22.7857 O.3     1  UNL1       -0.4306
     56 C          -7.1030    6.3538   22.7119 C.3     1  UNL1        0.2573
     57 C          -4.9848    3.6911   18.4711 C.3     1  UNL1        0.0270
     58 C          -4.4797    3.6308   17.0600 C.3     1  UNL1        0.0022
     59 C          -6.3807    3.2423   18.7879 C.3     1  UNL1        0.0022
@<TRIPOS>BOND
     1    26    27    1
     2    27    22    1
     3    22    23    2
     4    22    24   am
     5    21    24    1
     6    21    14    1
     7    14    15    2
     8    14    16   am
     9    16    17    1
    10    17    18    1
    11    18    19    1
    12    19    20    1
    13    20     7    1
    14     7     8   ar
    15     8     9   ar
    16     9    10    1
    17     9    11   ar
    18    11     1    1
    19     1     2   ar
    20     2     3   ar
    21     3     4   ar
    22     4    31    1
    23    31    32   ar
    24    32    33   ar
    25    33    34   ar
    26    34    37    1
    27    37    38    2
    28    38    39    1
    29    43    39    1
    30    43    44    1
    31    44    45    1
    32    45    46    1
    33    46    47    1
    34    47    48   am
    35    48    49    2
    36    48    50    1
    37    50    51    1
    38    51    52   am
    39    52    53    2
    40    52    55    1
    41    55    56    1
    42    50    57    1
    43    57    58    1
    44    57    59    1
    45    39    40    2
    46    40    41    1
    47    41    42    1
    48    34    35   ar
    49    35    36   ar
    50     4     5   ar
    51     5     6   ar
    52    11    12   ar
    53    21    28    1
    54    28    29    1
    55    28    30    1
    56    20    16    1
    57    12     7   ar
    58     6     1   ar
    59    36    31   ar
    60    41    37    1
    61    47    43    1
    62    24    25    1
    63    51    54    1
    64    12    13    1
@<TRIPOS>MOLECULE
*****
 59 64 0 0 0
SMALL
GASTEIGER

@<TRIPOS>ATOM
      1 C           3.4881    0.7016   31.1274 C.ar    1  UNL1        0.0180
      2 C           4.3260    0.7348   29.8837 C.ar    1  UNL1        0.0015
      3 C           3.7008    1.0906   28.5675 C.ar    1  UNL1        0.0000
      4 C           2.2377    1.4133   28.4950 C.ar    1  UNL1        0.0000
      5 C           1.3998    1.3802   29.7387 C.ar    1  UNL1        0.0000
      6 C           2.0250    1.0244   31.0549 C.ar    1  UNL1        0.0015
      7 C           5.0213    0.5135   34.6883 C.ar    1  UNL1        0.1363
      8 N           5.1292   -0.9171   34.2503 N.ar    1  UNL1       -0.2181
      9 C           4.5680   -1.0207   32.8631 C.ar    1  UNL1        0.1551
     10 CL          4.4776   -2.2713   32.0398 Cl      1  UNL1       -0.0598
     11 C           4.1132    0.3458   32.4437 C.ar    1  UNL1        0.0863
     12 N           4.3934    1.2940   33.5718 N.ar    1  UNL1       -0.3388
     13 H           4.1992    2.2591   33.5782 H       1  UNL1        0.1672
     14 C           3.1338    2.0812   36.8398 C.2     1  UNL1        0.2439
     15 O           2.4114    1.6420   35.6008 O.2     1  UNL1       -0.2731
     16 N           4.5960    1.7871   36.9995 N.am    1  UNL1       -0.2730
     17 C           5.4473    2.1619   38.1763 C.3     1  UNL1        0.0939
     18 C           6.8410    1.6730   37.9146 C.3     1  UNL1        0.0237
     19 C           6.8511    0.9960   36.5761 C.3     1  UNL1        0.0293
     20 C           5.4636    1.0665   36.0106 C.3     1  UNL1        0.1319
     21 C           2.3941    2.8146   37.9192 C.3     1  UNL1        0.1512
     22 C           2.0667    5.2690   37.1328 C.2     1  UNL1        0.4021
     23 O           1.2856    4.7851   35.9473 O.2     1  UNL1       -0.2264
     24 N           2.6209    4.2838   38.1188 N.am    1  UNL1       -0.2640
     25 H           3.1336    4.6015   38.8969 H       1  UNL1        0.1532
     26 C           1.1257    7.6787   37.3741 C.3     1  UNL1        0.2573
     27 O           2.2936    6.7382   37.3325 O.3     1  UNL1       -0.4306
     28 C           1.4274    2.0786   38.7989 C.3     1  UNL1        0.0270
     29 C           1.7271    0.6741   39.2320 C.3     1  UNL1        0.0022
     30 C           0.1610    2.7471   39.2457 C.3     1  UNL1        0.0022
     31 C           1.6125    1.7692   27.1787 C.ar    1  UNL1        0.0000
     32 C           0.1887    1.3901   26.8977 C.ar    1  UNL1        0.0001
     33 C          -0.4365    1.7459   25.5814 C.ar    1  UNL1        0.0035
     34 C           0.3622    2.4810   24.5461 C.ar    1  UNL1        0.0444
     35 C           1.7861    2.8601   24.8272 C.ar    1  UNL1        0.0035
     36 C           2.4112    2.5042   26.1434 C.ar    1  UNL1        0.0001
     37 C          -0.2629    2.8368   23.2299 C.2     1  UNL1        0.2354
     38 N          -1.0779    4.0631   22.9438 N.2     1  UNL1       -0.0360
     39 C          -1.5015    4.0131   21.5057 C.2     1  UNL1        0.3657
     40 N          -0.9481    2.7558   20.9030 N.2     1  UNL1       -0.0406
     41 C          -0.1827    2.0289   21.9687 C.3     1  UNL1        0.3584
     42 CL          0.5367    0.7232   21.8022 Cl      1  UNL1       -0.0503
     43 C          -2.3324    5.0400   20.7950 C.3     1  UNL1        0.1874
     44 C          -1.8143    6.2543   20.0831 C.3     1  UNL1        0.0344
     45 C          -2.9890    6.9976   19.5196 C.3     1  UNL1        0.0238
     46 C          -4.2331    6.2426   19.8833 C.3     1  UNL1        0.0940
     47 N          -3.8273    5.0327   20.6716 N.am    1  UNL1       -0.2691
     48 C          -4.7537    3.9973   21.2370 C.2     1  UNL1        0.2440
     49 O          -4.1996    2.8359   22.0078 O.2     1  UNL1       -0.2731
     50 C          -6.2342    4.1234   21.0317 C.3     1  UNL1        0.1512
     51 N          -7.1569    4.1386   22.2143 N.am    1  UNL1       -0.2640
     52 C          -7.3426    5.3999   23.0046 C.2     1  UNL1        0.4021
     53 O          -6.6056    6.6461   22.6123 O.2     1  UNL1       -0.2264
     54 H          -7.6405    3.3207   22.4718 H       1  UNL1        0.1532
     55 O          -8.2652    5.4151   24.1871 O.3     1  UNL1       -0.4306
     56 C          -8.1786    6.5254   25.1919 C.3     1  UNL1        0.2573
     57 C          -6.7922    4.2344   19.6437 C.3     1  UNL1        0.0270
     58 C          -7.7086    5.3686   19.2923 C.3     1  UNL1        0.0022
     59 C          -6.4336    3.2110   18.6072 C.3     1  UNL1        0.0022
@<TRIPOS>BOND
     1    26    27    1
     2    27    22    1
     3    22    23    2
     4    22    24   am
     5    21    24    1
     6    21    14    1
     7    14    15    2
     8    14    16   am
     9    16    17    1
    10    17    18    1
    11    18    19    1
    12    19    20    1
    13    20     7    1
    14     7     8   ar
    15     8     9   ar
    16     9    10    1
    17     9    11   ar
    18    11     1    1
    19     1     2   ar
    20     2     3   ar
    21     3     4   ar
    22     4    31    1
    23    31    32   ar
    24    32    33   ar
    25    33    34   ar
    26    34    37    1
    27    37    38    2
    28    38    39    1
    29    43    39    1
    30    43    44    1
    31    44    45    1
    32    45    46    1
    33    46    47    1
    34    47    48   am
    35    48    49    2
    36    48    50    1
    37    50    51    1
    38    51    52   am
    39    52    53    2
    40    52    55    1
    41    55    56    1
    42    50    57    1
    43    57    58    1
    44    57    59    1
    45    39    40    2
    46    40    41    1
    47    41    42    1
    48    34    35   ar
    49    35    36   ar
    50     4     5   ar
    51     5     6   ar
    52    11    12   ar
    53    21    28    1
    54    28    29    1
    55    28    30    1
    56    20    16    1
    57    12     7   ar
    58     6     1   ar
    59    36    31   ar
    60    41    37    1
    61    47    43    1
    62    24    25    1
    63    51    54    1
    64    12    13    1
@<TRIPOS>MOLECULE
*****
 59 64 0 0 0
SMALL
GASTEIGER

@<TRIPOS>ATOM
      1 C           1.8953    1.3079   23.0376 C.ar    1  UNL1        0.0180
      2 C           3.3654    1.0830   23.2331 C.ar    1  UNL1        0.0015
      3 C           3.9094    0.8326   24.6083 C.ar    1  UNL1        0.0000
      4 C           2.9833    0.8071   25.7880 C.ar    1  UNL1        0.0000
      5 C           1.5132    1.0320   25.5925 C.ar    1  UNL1        0.0000
      6 C           0.9693    1.2824   24.2173 C.ar    1  UNL1        0.0015
      7 C           0.3832    2.6595   19.7281 C.ar    1  UNL1        0.1363
      8 N           0.6450    1.2281   19.3639 N.ar    1  UNL1       -0.2181
      9 C           1.2432    0.5476   20.5593 C.ar    1  UNL1        0.1551
     10 CL          1.6603   -0.8912   20.6378 Cl      1  UNL1       -0.0598
     11 C           1.3513    1.5583   21.6623 C.ar    1  UNL1        0.0863
     12 N           0.8198    2.8636   21.1486 N.ar    1  UNL1       -0.3388
     13 H           0.7667    3.7063   21.6548 H       1  UNL1        0.1672
     14 C          -2.7312    3.6339   19.7170 C.2     1  UNL1        0.2439
     15 O          -2.4284    2.5702   20.7303 O.2     1  UNL1       -0.2731
     16 N          -1.6423    4.1513   18.8245 N.am    1  UNL1       -0.2730
     17 C          -1.7937    5.2075   17.7702 C.3     1  UNL1        0.0939
     18 C          -0.4558    5.4123   17.1237 C.3     1  UNL1        0.0237
     19 C           0.5226    4.4828   17.7785 C.3     1  UNL1        0.0293
     20 C          -0.2107    3.7034   18.8296 C.3     1  UNL1        0.1319
     21 C          -4.1229    4.1803   19.5962 C.3     1  UNL1        0.1512
     22 C          -5.1842    4.8125   21.8818 C.2     1  UNL1        0.4021
     23 O          -5.2800    3.3589   22.2394 O.2     1  UNL1       -0.2264
     24 N          -4.6057    5.2232   20.5602 N.am    1  UNL1       -0.2640
     25 H          -4.5428    6.1772   20.3255 H       1  UNL1        0.1532
     26 C          -7.1266    5.9520   23.1774 C.3     1  UNL1        0.2573
     27 O          -5.6669    5.8554   22.8457 O.3     1  UNL1       -0.4306
     28 C          -5.0319    3.6838   18.5112 C.3     1  UNL1        0.0270
     29 C          -6.4224    3.2316   18.8462 C.3     1  UNL1        0.0022
     30 C          -4.5506    3.6393   17.0912 C.3     1  UNL1        0.0022
     31 C           3.5274    0.5566   27.1633 C.ar    1  UNL1        0.0000
     32 C           4.8991    1.0422   27.5271 C.ar    1  UNL1        0.0001
     33 C           5.4432    0.7918   28.9024 C.ar    1  UNL1        0.0035
     34 C           4.6154    0.0558   29.9139 C.ar    1  UNL1        0.0444
     35 C           3.2435   -0.4298   29.5500 C.ar    1  UNL1        0.0035
     36 C           2.6996   -0.1794   28.1748 C.ar    1  UNL1        0.0001
     37 C           5.1594   -0.1947   31.2891 C.2     1  UNL1        0.2354
     38 N           5.2609    0.8143   32.3944 N.2     1  UNL1       -0.0360
     39 C           5.8616    0.1345   33.5889 C.2     1  UNL1        0.3657
     40 N           6.1313   -1.2947   33.2219 N.2     1  UNL1       -0.0406
     41 C           5.6973   -1.4981   31.8005 C.3     1  UNL1        0.3584
     42 CL          5.7857   -2.7800   31.0266 Cl      1  UNL1       -0.0503
     43 C           6.1432    0.7719   34.9172 C.3     1  UNL1        0.1874
     44 C           7.4634    0.7797   35.6292 C.3     1  UNL1        0.0344
     45 C           7.2901    1.5261   36.9187 C.3     1  UNL1        0.0238
     46 C           5.8629    1.9796   37.0037 C.3     1  UNL1        0.0940
     47 N           5.1540    1.5135   35.7666 N.am    1  UNL1       -0.2691
     48 C           3.7096    1.7478   35.4369 C.2     1  UNL1        0.2440
     49 O           3.1374    1.2186   34.1553 O.2     1  UNL1       -0.2731
     50 C           2.8374    2.5114   36.3889 C.3     1  UNL1        0.1512
     51 N           2.0711    1.7830   37.4530 N.am    1  UNL1       -0.2640
     52 C           2.4463    1.9511   38.8955 C.2     1  UNL1        0.4021
     53 O           3.5878    2.8477   39.2740 O.2     1  UNL1       -0.2264
     54 H           1.3220    1.1945   37.2046 H       1  UNL1        0.1532
     55 O           1.6801    1.2227   39.9596 O.3     1  UNL1       -0.4306
     56 C           1.1293   -0.1449   39.6841 C.3     1  UNL1        0.2573
     57 C           2.7314    4.0035   36.2768 C.3     1  UNL1        0.0270
     58 C           3.8858    4.7995   35.7445 C.3     1  UNL1        0.0022
     59 C           1.4707    4.6995   36.6970 C.3     1  UNL1        0.0022
@<TRIPOS>BOND
     1    26    27    1
     2    27    22    1
     3    22    23    2
     4    22    24   am
     5    21    24    1
     6    21    14    1
     7    14    15    2
     8    14    16   am
     9    16    17    1
    10    17    18    1
    11    18    19    1
    12    19    20    1
    13    20     7    1
    14     7     8   ar
    15     8     9   ar
    16     9    10    1
    17     9    11   ar
    18    11     1    1
    19     1     2   ar
    20     2     3   ar
    21     3     4   ar
    22     4    31    1
    23    31    32   ar
    24    32    33   ar
    25    33    34   ar
    26    34    37    1
    27    37    38    2
    28    38    39    1
    29    43    39    1
    30    43    44    1
    31    44    45    1
    32    45    46    1
    33    46    47    1
    34    47    48   am
    35    48    49    2
    36    48    50    1
    37    50    51    1
    38    51    52   am
    39    52    53    2
    40    52    55    1
    41    55    56    1
    42    50    57    1
    43    57    58    1
    44    57    59    1
    45    39    40    2
    46    40    41    1
    47    41    42    1
    48    34    35   ar
    49    35    36   ar
    50     4     5   ar
    51     5     6   ar
    52    11    12   ar
    53    21    28    1
    54    28    29    1
    55    28    30    1
    56    20    16    1
    57    12     7   ar
    58     6     1   ar
    59    36    31   ar
    60    41    37    1
    61    47    43    1
    62    24    25    1
    63    51    54    1
    64    12    13    1
@<TRIPOS>MOLECULE
*****
 59 64 0 0 0
SMALL
GASTEIGER

@<TRIPOS>ATOM
      1 C           2.2261    2.2287   23.7905 C.ar    1  UNL1        0.0180
      2 C           1.9275    1.2268   24.8661 C.ar    1  UNL1        0.0015
      3 C           1.8664    1.6618   26.3003 C.ar    1  UNL1        0.0000
      4 C           2.1040    3.0988   26.6589 C.ar    1  UNL1        0.0000
      5 C           2.4026    4.1007   25.5834 C.ar    1  UNL1        0.0000
      6 C           2.4636    3.6657   24.1492 C.ar    1  UNL1        0.0015
      7 C           3.1131    0.9787   20.2245 C.ar    1  UNL1        0.1363
      8 N           1.6493    1.2699   20.0739 N.ar    1  UNL1       -0.2181
      9 C           1.1389    1.7736   21.3913 C.ar    1  UNL1        0.1551
     10 CL         -0.2721    2.1850   21.6912 Cl      1  UNL1       -0.0598
     11 C           2.2871    1.7937   22.3562 C.ar    1  UNL1        0.0863
     12 N           3.5072    1.3024   21.6351 N.ar    1  UNL1       -0.3388
     13 H           4.4085    1.2089   22.0201 H       1  UNL1        0.1672
     14 C           4.4143   -2.0115   20.1041 C.2     1  UNL1        0.2439
     15 O           3.5407   -1.7742   21.3001 O.2     1  UNL1       -0.2731
     16 N           4.6209   -0.9189   19.0974 N.am    1  UNL1       -0.2730
     17 C           5.4620   -1.0088   17.8586 C.3     1  UNL1        0.0939
     18 C           5.3836    0.3100   17.1484 C.3     1  UNL1        0.0237
     19 C           4.4942    1.2151   17.9482 C.3     1  UNL1        0.0293
     20 C           4.0228    0.4556   19.1528 C.3     1  UNL1        0.1319
     21 C           5.0813   -3.3417   19.9146 C.3     1  UNL1        0.1512
     22 C           6.6910   -3.9950   21.8465 C.2     1  UNL1        0.4021
     23 O           5.5157   -4.2073   22.7540 O.2     1  UNL1       -0.2264
     24 N           6.4738   -3.5622   20.4268 N.am    1  UNL1       -0.2640
     25 H           7.2452   -3.4229   19.8311 H       1  UNL1        0.1532
     26 C           8.3316   -4.3250   23.8339 C.3     1  UNL1        0.2573
     27 O           8.0835   -4.2155   22.3585 O.3     1  UNL1       -0.4306
     28 C           4.3557   -4.4513   19.2130 C.3     1  UNL1        0.0270
     29 C           2.8681   -4.3798   19.0348 C.3     1  UNL1        0.0022
     30 C           5.1178   -5.6326   18.6896 C.3     1  UNL1        0.0022
     31 C           2.0429    3.5338   28.0932 C.ar    1  UNL1        0.0000
     32 C           2.7097    4.8080   28.5195 C.ar    1  UNL1        0.0001
     33 C           2.6486    5.2430   29.9538 C.ar    1  UNL1        0.0035
     34 C           1.9208    4.4038   30.9617 C.ar    1  UNL1        0.0444
     35 C           1.2540    3.1295   30.5354 C.ar    1  UNL1        0.0035
     36 C           1.3151    2.6946   29.1011 C.ar    1  UNL1        0.0001
     37 C           1.8597    4.8387   32.3959 C.2     1  UNL1        0.2354
     38 N           2.9301    4.6323   33.4263 N.2     1  UNL1       -0.0360
     39 C           2.4495    5.2224   34.7188 C.2     1  UNL1        0.3657
     40 N           1.0819    5.7937   34.4873 N.2     1  UNL1       -0.0406
     41 C           0.7174    5.5565   33.0517 C.3     1  UNL1        0.3584
     42 CL         -0.5643    5.9654   32.3884 Cl      1  UNL1       -0.0503
     43 C           3.2038    5.2386   36.0152 C.3     1  UNL1        0.1874
     44 C           3.9674    6.4013   36.5765 C.3     1  UNL1        0.0344
     45 C           4.5625    5.9761   37.8861 C.3     1  UNL1        0.0238
     46 C           4.1668    4.5507   38.1341 C.3     1  UNL1        0.0940
     47 N           3.3270    4.0949   36.9778 N.am    1  UNL1       -0.2691
     48 C           2.7175    2.7342   36.8131 C.2     1  UNL1        0.2440
     49 O           1.8974    2.4220   35.5966 O.2     1  UNL1       -0.2731
     50 C           2.9283    1.6858   37.8649 C.3     1  UNL1        0.1512
     51 N           4.2543    0.9941   37.9795 N.am    1  UNL1       -0.2640
     52 C           4.7908    0.2044   36.8224 C.2     1  UNL1        0.4021
     53 O           4.0012    0.1065   35.5509 O.2     1  UNL1       -0.2264
     54 H           4.7725    1.0583   38.8141 H       1  UNL1        0.1532
     55 O           6.1168   -0.4873   36.9370 O.3     1  UNL1       -0.4306
     56 C           7.3846    0.3141   36.9219 C.3     1  UNL1        0.2573
     57 C           1.8128    1.3290   38.8023 C.3     1  UNL1        0.0270
     58 C           1.7270   -0.0553   39.3735 C.3     1  UNL1        0.0022
     59 C           0.7832    2.3566   39.1685 C.3     1  UNL1        0.0022
@<TRIPOS>BOND
     1    26    27    1
     2    27    22    1
     3    22    23    2
     4    22    24   am
     5    21    24    1
     6    21    14    1
     7    14    15    2
     8    14    16   am
     9    16    17    1
    10    17    18    1
    11    18    19    1
    12    19    20    1
    13    20     7    1
    14     7     8   ar
    15     8     9   ar
    16     9    10    1
    17     9    11   ar
    18    11     1    1
    19     1     2   ar
    20     2     3   ar
    21     3     4   ar
    22     4    31    1
    23    31    32   ar
    24    32    33   ar
    25    33    34   ar
    26    34    37    1
    27    37    38    2
    28    38    39    1
    29    43    39    1
    30    43    44    1
    31    44    45    1
    32    45    46    1
    33    46    47    1
    34    47    48   am
    35    48    49    2
    36    48    50    1
    37    50    51    1
    38    51    52   am
    39    52    53    2
    40    52    55    1
    41    55    56    1
    42    50    57    1
    43    57    58    1
    44    57    59    1
    45    39    40    2
    46    40    41    1
    47    41    42    1
    48    34    35   ar
    49    35    36   ar
    50     4     5   ar
    51     5     6   ar
    52    11    12   ar
    53    21    28    1
    54    28    29    1
    55    28    30    1
    56    20    16    1
    57    12     7   ar
    58     6     1   ar
    59    36    31   ar
    60    41    37    1
    61    47    43    1
    62    24    25    1
    63    51    54    1
    64    12    13    1
@<TRIPOS>MOLECULE
*****
 59 64 0 0 0
SMALL
GASTEIGER

@<TRIPOS>ATOM
      1 C           1.6163    4.5615   31.0056 C.ar    1  UNL1        0.0180
      2 C           2.0646    5.5237   29.9458 C.ar    1  UNL1        0.0015
      3 C           2.1858    5.0681   28.5219 C.ar    1  UNL1        0.0000
      4 C           1.8587    3.6502   28.1577 C.ar    1  UNL1        0.0000
      5 C           1.4104    2.6880   29.2174 C.ar    1  UNL1        0.0000
      6 C           1.2892    3.1436   30.6414 C.ar    1  UNL1        0.0015
      7 C           2.0052    5.4761   34.7577 C.ar    1  UNL1        0.1363
      8 N           0.6121    5.9603   34.4842 N.ar    1  UNL1       -0.2181
      9 C           0.2968    5.6766   33.0454 C.ar    1  UNL1        0.1551
     10 CL         -0.9907    5.9963   32.3453 Cl      1  UNL1       -0.0598
     11 C           1.4951    5.0171   32.4296 C.ar    1  UNL1        0.0863
     12 N           2.5509    4.8932   33.4879 N.ar    1  UNL1       -0.3388
     13 H           3.4451    4.4986   33.3697 H       1  UNL1        0.1672
     14 C           2.5509    2.9970   36.8083 C.2     1  UNL1        0.2439
     15 O           1.8014    2.6092   35.5682 O.2     1  UNL1       -0.2731
     16 N           2.9768    4.4206   37.0130 N.am    1  UNL1       -0.2730
     17 C           3.7284    4.9546   38.1962 C.3     1  UNL1        0.0939
     18 C           3.9421    6.4242   37.9848 C.3     1  UNL1        0.0237
     19 C           3.3226    6.7984   36.6710 C.3     1  UNL1        0.0293
     20 C           2.7260    5.5601   36.0704 C.3     1  UNL1        0.1319
     21 C           2.8745    1.9611   37.8438 C.3     1  UNL1        0.1512
     22 C           4.8205    0.5034   36.9283 C.2     1  UNL1        0.4021
     23 O           3.9671    0.0952   35.7643 O.2     1  UNL1       -0.2264
     24 N           4.2742    1.4364   37.9681 N.am    1  UNL1       -0.2640
     25 H           4.8343    1.7043   38.7321 H       1  UNL1        0.1532
     26 C           7.1444    0.0201   35.8718 C.3     1  UNL1        0.2573
     27 O           6.2202   -0.0212   37.0527 O.3     1  UNL1       -0.4306
     28 C           1.7983    1.4499   38.7551 C.3     1  UNL1        0.0270
     29 C           1.8037    0.0147   39.1910 C.3     1  UNL1        0.0022
     30 C           0.7165    2.3740   39.2306 C.3     1  UNL1        0.0022
     31 C           1.9799    3.1946   26.7337 C.ar    1  UNL1        0.0000
     32 C           1.2815    1.9457   26.2838 C.ar    1  UNL1        0.0001
     33 C           1.4027    1.4901   24.8597 C.ar    1  UNL1        0.0035
     34 C           2.2223    2.2834   23.8857 C.ar    1  UNL1        0.0444
     35 C           2.9208    3.5323   24.3356 C.ar    1  UNL1        0.0035
     36 C           2.7996    3.9879   25.7596 C.ar    1  UNL1        0.0001
     37 C           2.3436    1.8278   22.4617 C.2     1  UNL1        0.2354
     38 N           3.6106    1.4157   21.7727 N.2     1  UNL1       -0.0360
     39 C           3.2692    1.0375   20.3619 C.2     1  UNL1        0.3657
     40 N           1.7911    1.2160   20.1790 N.2     1  UNL1       -0.0406
     41 C           1.2191    1.7044   21.4767 C.3     1  UNL1        0.3584
     42 CL         -0.2241    2.0149   21.7428 Cl      1  UNL1       -0.0503
     43 C           4.2360    0.5641   19.3173 C.3     1  UNL1        0.1874
     44 C           4.8115    1.3935   18.2079 C.3     1  UNL1        0.0344
     45 C           5.7283    0.5201   17.4038 C.3     1  UNL1        0.0238
     46 C           5.7194   -0.8491   18.0163 C.3     1  UNL1        0.0940
     47 N           4.7972   -0.8219   19.1989 N.am    1  UNL1       -0.2691
     48 C           4.4900   -1.9778   20.1042 C.2     1  UNL1        0.2440
     49 O           3.5424   -1.7995   21.2532 O.2     1  UNL1       -0.2731
     50 C           5.1304   -3.3122   19.8604 C.3     1  UNL1        0.1512
     51 N           6.5476   -3.5534   20.2885 N.am    1  UNL1       -0.2640
     52 C           6.8431   -3.9875   21.6936 C.2     1  UNL1        0.4021
     53 O           5.7213   -4.1804   22.6705 O.2     1  UNL1       -0.2264
     54 H           7.2839   -3.4269   19.6473 H       1  UNL1        0.1532
     55 O           8.2603   -4.2288   22.1217 O.3     1  UNL1       -0.4306
     56 C           9.1519   -5.1120   21.3003 C.3     1  UNL1        0.2573
     57 C           4.3536   -4.4054   19.1883 C.3     1  UNL1        0.0270
     58 C           5.0652   -5.6153   18.6598 C.3     1  UNL1        0.0022
     59 C           2.8649   -4.2885   19.0449 C.3     1  UNL1        0.0022
@<TRIPOS>BOND
     1    26    27    1
     2    27    22    1
     3    22    23    2
     4    22    24   am
     5    21    24    1
     6    21    14    1
     7    14    15    2
     8    14    16   am
     9    16    17    1
    10    17    18    1
    11    18    19    1
    12    19    20    1
    13    20     7    1
    14     7     8   ar
    15     8     9   ar
    16     9    10    1
    17     9    11   ar
    18    11     1    1
    19     1     2   ar
    20     2     3   ar
    21     3     4   ar
    22     4    31    1
    23    31    32   ar
    24    32    33   ar
    25    33    34   ar
    26    34    37    1
    27    37    38    2
    28    38    39    1
    29    43    39    1
    30    43    44    1
    31    44    45    1
    32    45    46    1
    33    46    47    1
    34    47    48   am
    35    48    49    2
    36    48    50    1
    37    50    51    1
    38    51    52   am
    39    52    53    2
    40    52    55    1
    41    55    56    1
    42    50    57    1
    43    57    58    1
    44    57    59    1
    45    39    40    2
    46    40    41    1
    47    41    42    1
    48    34    35   ar
    49    35    36   ar
    50     4     5   ar
    51     5     6   ar
    52    11    12   ar
    53    21    28    1
    54    28    29    1
    55    28    30    1
    56    20    16    1
    57    12     7   ar
    58     6     1   ar
    59    36    31   ar
    60    41    37    1
    61    47    43    1
    62    24    25    1
    63    51    54    1
    64    12    13    1
@<TRIPOS>MOLECULE
*****
 59 64 0 0 0
SMALL
GASTEIGER

@<TRIPOS>ATOM
      1 C           2.8064    1.4059   31.4627 C.ar    1  UNL1        0.0180
      2 C           1.3988    1.8765   31.6800 C.ar    1  UNL1        0.0015
      3 C           0.5907    2.3840   30.5227 C.ar    1  UNL1        0.0000
      4 C           1.1900    2.4208   29.1482 C.ar    1  UNL1        0.0000
      5 C           2.5976    1.9502   28.9309 C.ar    1  UNL1        0.0000
      6 C           3.4058    1.4427   30.0881 C.ar    1  UNL1        0.0015
      7 C           4.8447    0.8008   34.7100 C.ar    1  UNL1        0.1363
      8 N           4.8721   -0.5656   34.0917 N.ar    1  UNL1       -0.2181
      9 C           4.1119   -0.5052   32.8000 C.ar    1  UNL1        0.1551
     10 CL          3.8883   -1.6479   31.8544 Cl      1  UNL1       -0.0598
     11 C           3.6146    0.8984   32.6200 C.ar    1  UNL1        0.0863
     12 N           4.0675    1.7056   33.8004 N.ar    1  UNL1       -0.3388
     13 H           3.8864    2.6614   33.9517 H       1  UNL1        0.1672
     14 C           3.2846    1.8995   37.3573 C.2     1  UNL1        0.2439
     15 O           2.3802    1.5860   36.2025 O.2     1  UNL1       -0.2731
     16 N           4.7653    1.6984   37.2265 N.am    1  UNL1       -0.2730
     17 C           5.7889    1.9670   38.2896 C.3     1  UNL1        0.0939
     18 C           7.1386    1.6280   37.7297 C.3     1  UNL1        0.0237
     19 C           6.9491    1.1498   36.3207 C.3     1  UNL1        0.0293
     20 C           5.4824    1.1934   36.0097 C.3     1  UNL1        0.1319
     21 C           2.7084    2.4142   38.6431 C.3     1  UNL1        0.1512
     22 C           3.3611    4.9251   38.7815 C.2     1  UNL1        0.4021
     23 O           2.6722    5.1763   37.4729 O.2     1  UNL1       -0.2264
     24 N           3.3792    3.5440   39.3665 N.am    1  UNL1       -0.2640
     25 H           3.8314    3.3791   40.2254 H       1  UNL1        0.1532
     26 C           4.1659    6.0146   40.9985 C.3     1  UNL1        0.2573
     27 O           4.0320    6.0549   39.5050 O.3     1  UNL1       -0.4306
     28 C           1.4613    1.7989   39.2053 C.3     1  UNL1        0.0270
     29 C           0.2090    2.6162   39.3230 C.3     1  UNL1        0.0022
     30 C           1.4663    0.3663   39.6500 C.3     1  UNL1        0.0022
     31 C           0.3818    2.9283   27.9909 C.ar    1  UNL1        0.0000
     32 C           0.7617    4.2134   27.3170 C.ar    1  UNL1        0.0001
     33 C          -0.0466    4.7208   26.1597 C.ar    1  UNL1        0.0035
     34 C          -1.2347    3.9432   25.6764 C.ar    1  UNL1        0.0444
     35 C          -1.6146    2.6580   26.3503 C.ar    1  UNL1        0.0035
     36 C          -0.8064    2.1506   27.5076 C.ar    1  UNL1        0.0001
     37 C          -2.0430    4.4506   24.5191 C.2     1  UNL1        0.2354
     38 N          -2.3117    3.7134   23.2407 N.2     1  UNL1       -0.0360
     39 C          -3.1592    4.5915   22.3686 C.2     1  UNL1        0.3657
     40 N          -3.4143    5.8714   23.1080 N.2     1  UNL1       -0.0406
     41 C          -2.7244    5.7843   24.4371 C.3     1  UNL1        0.3584
     42 CL         -2.7173    6.8448   25.4979 Cl      1  UNL1       -0.0503
     43 C          -3.6632    4.2497   20.9978 C.3     1  UNL1        0.1874
     44 C          -5.0917    3.9860   20.6240 C.3     1  UNL1        0.0344
     45 C          -5.1385    3.6849   19.1553 C.3     1  UNL1        0.0238
     46 C          -3.7389    3.7626   18.6214 C.3     1  UNL1        0.0940
     47 N          -2.8271    4.1116   19.7601 N.am    1  UNL1       -0.2691
     48 C          -1.3402    4.2911   19.6760 C.2     1  UNL1        0.2440
     49 O          -0.5563    4.6416   20.9058 O.2     1  UNL1       -0.2731
     50 C          -0.6374    4.1201   18.3619 C.3     1  UNL1        0.1512
     51 N          -0.2628    2.7483   17.8845 N.am    1  UNL1       -0.2640
     52 C           0.9173    2.0421   18.4834 C.2     1  UNL1        0.4021
     53 O           1.7228    2.7077   19.5596 O.2     1  UNL1       -0.2264
     54 H          -0.7914    2.3115   17.1782 H       1  UNL1        0.1532
     55 O           1.2920    0.6704   18.0061 O.3     1  UNL1       -0.4306
     56 C           2.7252    0.2293   18.0412 C.3     1  UNL1        0.2573
     57 C          -0.3091    5.3210   17.5250 C.3     1  UNL1        0.0270
     58 C          -1.3255    6.4090   17.3433 C.3     1  UNL1        0.0022
     59 C           1.0356    5.4337   16.8699 C.3     1  UNL1        0.0022
@<TRIPOS>BOND
     1    26    27    1
     2    27    22    1
     3    22    23    2
     4    22    24   am
     5    21    24    1
     6    21    14    1
     7    14    15    2
     8    14    16   am
     9    16    17    1
    10    17    18    1
    11    18    19    1
    12    19    20    1
    13    20     7    1
    14     7     8   ar
    15     8     9   ar
    16     9    10    1
    17     9    11   ar
    18    11     1    1
    19     1     2   ar
    20     2     3   ar
    21     3     4   ar
    22     4    31    1
    23    31    32   ar
    24    32    33   ar
    25    33    34   ar
    26    34    37    1
    27    37    38    2
    28    38    39    1
    29    43    39    1
    30    43    44    1
    31    44    45    1
    32    45    46    1
    33    46    47    1
    34    47    48   am
    35    48    49    2
    36    48    50    1
    37    50    51    1
    38    51    52   am
    39    52    53    2
    40    52    55    1
    41    55    56    1
    42    50    57    1
    43    57    58    1
    44    57    59    1
    45    39    40    2
    46    40    41    1
    47    41    42    1
    48    34    35   ar
    49    35    36   ar
    50     4     5   ar
    51     5     6   ar
    52    11    12   ar
    53    21    28    1
    54    28    29    1
    55    28    30    1
    56    20    16    1
    57    12     7   ar
    58     6     1   ar
    59    36    31   ar
    60    41    37    1
    61    47    43    1
    62    24    25    1
    63    51    54    1
    64    12    13    1
@<TRIPOS>MOLECULE
*****
 59 64 0 0 0
SMALL
GASTEIGER

@<TRIPOS>ATOM
      1 C           1.0827    4.9760   30.3602 C.ar    1  UNL1        0.0180
      2 C           1.4834    5.9203   29.2658 C.ar    1  UNL1        0.0015
      3 C           1.6704    5.4113   27.8672 C.ar    1  UNL1        0.0000
      4 C           1.4566    3.9581   27.5631 C.ar    1  UNL1        0.0000
      5 C           1.0559    3.0139   28.6575 C.ar    1  UNL1        0.0000
      6 C           0.8689    3.5228   30.0561 C.ar    1  UNL1        0.0015
      7 C           1.2808    5.9958   34.1001 C.ar    1  UNL1        0.1363
      8 N          -0.0648    6.5405   33.7219 N.ar    1  UNL1       -0.2181
      9 C          -0.3027    6.2248   32.2750 C.ar    1  UNL1        0.1551
     10 CL         -1.5246    6.5856   31.4833 Cl      1  UNL1       -0.0598
     11 C           0.8957    5.4850   31.7588 C.ar    1  UNL1        0.0863
     12 N           1.8743    5.3434   32.8868 N.ar    1  UNL1       -0.3388
     13 H           2.7521    4.9002   32.8391 H       1  UNL1        0.1672
     14 C           2.3957    3.4898   35.8681 C.2     1  UNL1        0.2439
     15 O           1.8052    3.0903   34.5484 O.2     1  UNL1       -0.2731
     16 N           2.4328    4.9354   36.2664 N.am    1  UNL1       -0.2730
     17 C           2.9890    5.4830   37.5474 C.3     1  UNL1        0.0939
     18 C           2.8202    6.9734   37.5263 C.3     1  UNL1        0.0237
     19 C           2.1597    7.3468   36.2324 C.3     1  UNL1        0.0293
     20 C           1.9203    6.0873   35.4538 C.3     1  UNL1        0.1319
     21 C           2.9492    2.4435   36.7896 C.3     1  UNL1        0.1512
     22 C           2.0126    2.0697   39.1840 C.2     1  UNL1        0.4021
     23 O           2.9023    3.1605   39.7023 O.2     1  UNL1       -0.2264
     24 N           2.0360    1.7113   37.7276 N.am    1  UNL1       -0.2640
     25 H           1.4521    0.9954   37.3874 H       1  UNL1        0.1532
     26 C           0.9109   -0.1441   39.9811 C.3     1  UNL1        0.2573
     27 O           1.0994    1.3374   40.1219 O.3     1  UNL1       -0.4306
     28 C           4.4159    2.1296   36.7730 C.3     1  UNL1        0.0270
     29 C           4.9275    0.9001   37.4633 C.3     1  UNL1        0.0022
     30 C           5.3710    3.0452   36.0662 C.3     1  UNL1        0.0022
     31 C           1.6436    3.4491   26.1645 C.ar    1  UNL1        0.0000
     32 C           1.4596    1.9907   25.8662 C.ar    1  UNL1        0.0001
     33 C           1.6466    1.4817   24.4676 C.ar    1  UNL1        0.0035
     34 C           2.0176    2.4313   23.3673 C.ar    1  UNL1        0.0444
     35 C           2.2017    3.8898   23.6656 C.ar    1  UNL1        0.0035
     36 C           2.0147    4.3987   25.0642 C.ar    1  UNL1        0.0001
     37 C           2.2046    1.9224   21.9687 C.2     1  UNL1        0.2354
     38 N           3.5042    1.4987   21.3510 N.2     1  UNL1       -0.0360
     39 C           3.2277    1.0623   19.9428 C.2     1  UNL1        0.3657
     40 N           1.7571    1.2164   19.6902 N.2     1  UNL1       -0.0406
     41 C           1.1249    1.7479   20.9423 C.3     1  UNL1        0.3584
     42 CL         -0.3315    2.0517   21.1342 Cl      1  UNL1       -0.0503
     43 C           4.2433    0.5601   18.9599 C.3     1  UNL1        0.1874
     44 C           4.8722    1.3582   17.8565 C.3     1  UNL1        0.0344
     45 C           5.8259    0.4629   17.1224 C.3     1  UNL1        0.0238
     46 C           5.7863   -0.8885   17.7720 C.3     1  UNL1        0.0940
     47 N           4.8082   -0.8285   18.9077 N.am    1  UNL1       -0.2691
     48 C           4.4567   -1.9586   19.8293 C.2     1  UNL1        0.2440
     49 O           3.4551   -1.7483   20.9258 O.2     1  UNL1       -0.2731
     50 C           5.1070   -3.2990   19.6542 C.3     1  UNL1        0.1512
     51 N           6.5398   -3.4953   20.0523 N.am    1  UNL1       -0.2640
     52 C           6.8750   -3.9904   21.4280 C.2     1  UNL1        0.4021
     53 O           5.7773   -4.2892   22.4056 O.2     1  UNL1       -0.2264
     54 H           7.2602   -3.2992   19.4106 H       1  UNL1        0.1532
     55 O           8.3078   -4.1867   21.8260 O.3     1  UNL1       -0.4306
     56 C           8.7660   -3.7912   23.1984 C.3     1  UNL1        0.2573
     57 C           4.3243   -4.4431   19.0811 C.3     1  UNL1        0.0270
     58 C           2.8303   -4.3548   18.9821 C.3     1  UNL1        0.0022
     59 C           5.0359   -5.6757   18.6070 C.3     1  UNL1        0.0022
@<TRIPOS>BOND
     1    26    27    1
     2    27    22    1
     3    22    23    2
     4    22    24   am
     5    21    24    1
     6    21    14    1
     7    14    15    2
     8    14    16   am
     9    16    17    1
    10    17    18    1
    11    18    19    1
    12    19    20    1
    13    20     7    1
    14     7     8   ar
    15     8     9   ar
    16     9    10    1
    17     9    11   ar
    18    11     1    1
    19     1     2   ar
    20     2     3   ar
    21     3     4   ar
    22     4    31    1
    23    31    32   ar
    24    32    33   ar
    25    33    34   ar
    26    34    37    1
    27    37    38    2
    28    38    39    1
    29    43    39    1
    30    43    44    1
    31    44    45    1
    32    45    46    1
    33    46    47    1
    34    47    48   am
    35    48    49    2
    36    48    50    1
    37    50    51    1
    38    51    52   am
    39    52    53    2
    40    52    55    1
    41    55    56    1
    42    50    57    1
    43    57    58    1
    44    57    59    1
    45    39    40    2
    46    40    41    1
    47    41    42    1
    48    34    35   ar
    49    35    36   ar
    50     4     5   ar
    51     5     6   ar
    52    11    12   ar
    53    21    28    1
    54    28    29    1
    55    28    30    1
    56    20    16    1
    57    12     7   ar
    58     6     1   ar
    59    36    31   ar
    60    41    37    1
    61    47    43    1
    62    24    25    1
    63    51    54    1
    64    12    13    1
@<TRIPOS>MOLECULE
*****
 59 64 0 0 0
SMALL
GASTEIGER

@<TRIPOS>ATOM
      1 C           4.4848    1.0586   33.5573 C.ar    1  UNL1        0.0180
      2 C           5.9153    1.0350   33.1068 C.ar    1  UNL1        0.0015
      3 C           6.2998    0.2778   31.8704 C.ar    1  UNL1        0.0000
      4 C           5.2538   -0.4558   31.0845 C.ar    1  UNL1        0.0000
      5 C           3.8233   -0.4322   31.5350 C.ar    1  UNL1        0.0000
      6 C           3.4388    0.3250   32.7714 C.ar    1  UNL1        0.0015
      7 C           3.4251    3.6049   36.2885 C.ar    1  UNL1        0.1363
      8 N           3.5916    2.3572   37.1044 N.ar    1  UNL1       -0.2181
      9 C           4.0088    1.2515   36.1806 C.ar    1  UNL1        0.1551
     10 CL          4.2860   -0.1690   36.5745 Cl      1  UNL1       -0.0598
     11 C           4.1002    1.8158   34.7938 C.ar    1  UNL1        0.0863
     12 N           3.7394    3.2703   34.8605 N.ar    1  UNL1       -0.3388
     13 H           3.7135    3.8955   34.1004 H       1  UNL1        0.1672
     14 C           4.9034    5.2683   38.6753 C.2     1  UNL1        0.2439
     15 O           5.5399    3.9450   38.3693 O.2     1  UNL1       -0.2731
     16 N           3.6956    5.7154   37.9063 N.am    1  UNL1       -0.2730
     17 C           2.9553    7.0056   38.0994 C.3     1  UNL1        0.0939
     18 C           1.8183    7.0384   37.1216 C.3     1  UNL1        0.0237
     19 C           1.8559    5.7685   36.3242 C.3     1  UNL1        0.0293
     20 C           3.0161    4.9508   36.8092 C.3     1  UNL1        0.1319
     21 C           5.4747    6.1446   39.7504 C.3     1  UNL1        0.1512
     22 C           4.7334    5.1873   42.0491 C.2     1  UNL1        0.4021
     23 O           5.4493    3.9045   41.7458 O.2     1  UNL1       -0.2264
     24 N           4.7461    6.3073   41.0515 N.am    1  UNL1       -0.2640
     25 H           4.2763    7.1493   41.2506 H       1  UNL1        0.1532
     26 C           2.6998    6.0885   43.3916 C.3     1  UNL1        0.2573
     27 O           4.0049    5.3501   43.3501 O.3     1  UNL1       -0.4306
     28 C           6.7745    6.8582   39.5244 C.3     1  UNL1        0.0270
     29 C           7.0977    7.4173   38.1705 C.3     1  UNL1        0.0022
     30 C           7.7514    7.0127   40.6522 C.3     1  UNL1        0.0022
     31 C           5.6384   -1.2130   29.8480 C.ar    1  UNL1        0.0000
     32 C           4.7365   -1.1998   28.6496 C.ar    1  UNL1        0.0001
     33 C           5.1211   -1.9571   27.4131 C.ar    1  UNL1        0.0035
     34 C           6.4076   -2.7274   27.3752 C.ar    1  UNL1        0.0444
     35 C           7.3095   -2.7405   28.5737 C.ar    1  UNL1        0.0035
     36 C           6.9249   -1.9833   29.8101 C.ar    1  UNL1        0.0001
     37 C           6.7922   -3.4846   26.1388 C.2     1  UNL1        0.2354
     38 N           7.2113   -2.8822   24.8305 N.2     1  UNL1       -0.0360
     39 C           7.5034   -4.0024   23.8767 C.2     1  UNL1        0.3657
     40 N           7.2648   -5.2972   24.5956 N.2     1  UNL1       -0.0406
     41 C           6.8253   -4.9772   25.9935 C.3     1  UNL1        0.3584
     42 CL          6.4796   -5.9746   27.0592 Cl      1  UNL1       -0.0503
     43 C           7.9547   -3.8540   22.4540 C.3     1  UNL1        0.1874
     44 C           9.3721   -3.9188   21.9674 C.3     1  UNL1        0.0344
     45 C           9.3613   -3.7195   20.4807 C.3     1  UNL1        0.0238
     46 C           7.9373   -3.5315   20.0486 C.3     1  UNL1        0.0940
     47 N           7.0679   -3.6146   21.2682 N.am    1  UNL1       -0.2691
     48 C           5.5741   -3.4817   21.2968 C.2     1  UNL1        0.2440
     49 O           4.8365   -3.5878   22.5986 O.2     1  UNL1       -0.2731
     50 C           4.8179   -3.2426   20.0236 C.3     1  UNL1        0.1512
     51 N           4.6550   -1.8470   19.4987 N.am    1  UNL1       -0.2640
     52 C           5.2901   -1.4563   18.1971 C.2     1  UNL1        0.4021
     53 O           6.0880   -2.4613   17.4204 O.2     1  UNL1       -0.2264
     54 H           4.1314   -1.1873   20.0084 H       1  UNL1        0.1532
     55 O           5.1272   -0.0606   17.6721 O.3     1  UNL1       -0.4306
     56 C           3.9816    0.7875   18.1392 C.3     1  UNL1        0.2573
     57 C           4.2246   -4.3994   19.2752 C.3     1  UNL1        0.0270
     58 C           2.7643   -4.4013   18.9327 C.3     1  UNL1        0.0022
     59 C           5.0917   -5.5542   18.8693 C.3     1  UNL1        0.0022
@<TRIPOS>BOND
     1    26    27    1
     2    27    22    1
     3    22    23    2
     4    22    24   am
     5    21    24    1
     6    21    14    1
     7    14    15    2
     8    14    16   am
     9    16    17    1
    10    17    18    1
    11    18    19    1
    12    19    20    1
    13    20     7    1
    14     7     8   ar
    15     8     9   ar
    16     9    10    1
    17     9    11   ar
    18    11     1    1
    19     1     2   ar
    20     2     3   ar
    21     3     4   ar
    22     4    31    1
    23    31    32   ar
    24    32    33   ar
    25    33    34   ar
    26    34    37    1
    27    37    38    2
    28    38    39    1
    29    43    39    1
    30    43    44    1
    31    44    45    1
    32    45    46    1
    33    46    47    1
    34    47    48   am
    35    48    49    2
    36    48    50    1
    37    50    51    1
    38    51    52   am
    39    52    53    2
    40    52    55    1
    41    55    56    1
    42    50    57    1
    43    57    58    1
    44    57    59    1
    45    39    40    2
    46    40    41    1
    47    41    42    1
    48    34    35   ar
    49    35    36   ar
    50     4     5   ar
    51     5     6   ar
    52    11    12   ar
    53    21    28    1
    54    28    29    1
    55    28    30    1
    56    20    16    1
    57    12     7   ar
    58     6     1   ar
    59    36    31   ar
    60    41    37    1
    61    47    43    1
    62    24    25    1
    63    51    54    1
    64    12    13    1
@<TRIPOS>MOLECULE
*****
 59 64 0 0 0
SMALL
GASTEIGER

@<TRIPOS>ATOM
      1 C           2.2781    1.7653   24.2944 C.ar    1  UNL1        0.0180
      2 C           1.4289    0.8830   25.1606 C.ar    1  UNL1        0.0015
      3 C           1.4046    1.0899   26.6461 C.ar    1  UNL1        0.0000
      4 C           2.2295    2.1790   27.2653 C.ar    1  UNL1        0.0000
      5 C           3.0787    3.0612   26.3990 C.ar    1  UNL1        0.0000
      6 C           3.1030    2.8544   24.9136 C.ar    1  UNL1        0.0015
      7 C           3.0569    1.0240   20.5648 C.ar    1  UNL1        0.1363
      8 N           1.6229    1.4564   20.4811 N.ar    1  UNL1       -0.2181
      9 C           1.1567    1.7867   21.8680 C.ar    1  UNL1        0.1551
     10 CL         -0.2145    2.2618   22.2474 Cl      1  UNL1       -0.0598
     11 C           2.3024    1.5585   22.8089 C.ar    1  UNL1        0.0863
     12 N           3.4768    1.0871   22.0034 N.ar    1  UNL1       -0.3388
     13 H           4.3669    0.8591   22.3570 H       1  UNL1        0.1672
     14 C           4.3977   -1.9220   20.1492 C.2     1  UNL1        0.2439
     15 O           3.5822   -1.7941   21.4016 O.2     1  UNL1       -0.2731
     16 N           4.5357   -0.7516   19.2212 N.am    1  UNL1       -0.2730
     17 C           5.3142   -0.7298   17.9393 C.3     1  UNL1        0.0939
     18 C           5.1791    0.6377   17.3380 C.3     1  UNL1        0.0237
     19 C           4.3170    1.4611   18.2484 C.3     1  UNL1        0.0293
     20 C           3.9194    0.6025   19.4122 C.3     1  UNL1        0.1319
     21 C           5.0753   -3.2203   19.8248 C.3     1  UNL1        0.1512
     22 C           6.8812   -3.9594   21.5401 C.2     1  UNL1        0.4021
     23 O           5.8048   -4.2887   22.5315 O.2     1  UNL1       -0.2264
     24 N           6.5165   -3.4252   20.1867 N.am    1  UNL1       -0.2640
     25 H           7.2230   -3.2091   19.5361 H       1  UNL1        0.1532
     26 C           9.1910   -5.0446   21.0531 C.3     1  UNL1        0.2573
     27 O           8.3224   -4.1643   21.9020 O.3     1  UNL1       -0.4306
     28 C           4.3117   -4.3137   19.1383 C.3     1  UNL1        0.0270
     29 C           2.8237   -4.2056   18.9824 C.3     1  UNL1        0.0022
     30 C           5.0360   -5.5154   18.6076 C.3     1  UNL1        0.0022
     31 C           2.2052    2.3858   28.7508 C.ar    1  UNL1        0.0000
     32 C           3.3335    3.1075   29.4261 C.ar    1  UNL1        0.0001
     33 C           3.3091    3.3144   30.9116 C.ar    1  UNL1        0.0035
     34 C           2.1565    2.7994   31.7218 C.ar    1  UNL1        0.0444
     35 C           1.0282    2.0777   31.0464 C.ar    1  UNL1        0.0035
     36 C           1.0526    1.8709   29.5609 C.ar    1  UNL1        0.0001
     37 C           2.1321    3.0062   33.2072 C.2     1  UNL1        0.2354
     38 N           2.8192    2.1486   34.2282 N.2     1  UNL1       -0.0360
     39 C           2.5281    2.7193   35.5845 C.2     1  UNL1        0.3657
     40 N           1.6612    3.9297   35.4017 N.2     1  UNL1       -0.0406
     41 C           1.4165    4.1070   33.9325 C.3     1  UNL1        0.3584
     42 CL          0.5996    5.1943   33.2997 Cl      1  UNL1       -0.0503
     43 C           3.0179    2.1751   36.8937 C.3     1  UNL1        0.1874
     44 C           2.2512    1.2749   37.8165 C.3     1  UNL1        0.0344
     45 C           3.1199    0.9791   39.0030 C.3     1  UNL1        0.0238
     46 C           4.4235    1.6965   38.8135 C.3     1  UNL1        0.0940
     47 N           4.3605    2.4357   37.5098 N.am    1  UNL1       -0.2691
     48 C           5.4489    3.2862   36.9250 C.2     1  UNL1        0.2440
     49 O           5.2408    3.9676   35.6050 O.2     1  UNL1       -0.2731
     50 C           6.7454    3.4552   37.6602 C.3     1  UNL1        0.1512
     51 N           6.8463    4.4414   38.7859 N.am    1  UNL1       -0.2640
     52 C           7.1483    5.8819   38.4963 C.2     1  UNL1        0.4021
     53 O           7.3495    6.3361   37.0809 O.2     1  UNL1       -0.2264
     54 H           6.7143    4.1433   39.7148 H       1  UNL1        0.1532
     55 O           7.2492    6.8681   39.6220 O.3     1  UNL1       -0.4306
     56 C           7.3528    6.3827   41.0374 C.3     1  UNL1        0.2573
     57 C           7.9411    2.6380   37.2697 C.3     1  UNL1        0.0270
     58 C           8.8576    3.1207   36.1849 C.3     1  UNL1        0.0022
     59 C           8.2203    1.3380   37.9642 C.3     1  UNL1        0.0022
@<TRIPOS>BOND
     1    26    27    1
     2    27    22    1
     3    22    23    2
     4    22    24   am
     5    21    24    1
     6    21    14    1
     7    14    15    2
     8    14    16   am
     9    16    17    1
    10    17    18    1
    11    18    19    1
    12    19    20    1
    13    20     7    1
    14     7     8   ar
    15     8     9   ar
    16     9    10    1
    17     9    11   ar
    18    11     1    1
    19     1     2   ar
    20     2     3   ar
    21     3     4   ar
    22     4    31    1
    23    31    32   ar
    24    32    33   ar
    25    33    34   ar
    26    34    37    1
    27    37    38    2
    28    38    39    1
    29    43    39    1
    30    43    44    1
    31    44    45    1
    32    45    46    1
    33    46    47    1
    34    47    48   am
    35    48    49    2
    36    48    50    1
    37    50    51    1
    38    51    52   am
    39    52    53    2
    40    52    55    1
    41    55    56    1
    42    50    57    1
    43    57    58    1
    44    57    59    1
    45    39    40    2
    46    40    41    1
    47    41    42    1
    48    34    35   ar
    49    35    36   ar
    50     4     5   ar
    51     5     6   ar
    52    11    12   ar
    53    21    28    1
    54    28    29    1
    55    28    30    1
    56    20    16    1
    57    12     7   ar
    58     6     1   ar
    59    36    31   ar
    60    41    37    1
    61    47    43    1
    62    24    25    1
    63    51    54    1
    64    12    13    1
