@<TRIPOS>MOLECULE
*****
 43 47 0 0 0
SMALL
GASTEIGER

@<TRIPOS>ATOM
      1 C           2.7130   -0.9001   20.4085 C.ar    1  UNL1        0.1351
      2 C           3.1676   -0.9033   21.8379 C.ar    1  UNL1        0.0535
      3 C           4.0099   -2.0319   22.3545 C.ar    1  UNL1        0.0857
      4 N           4.3976   -3.1572   21.4416 N.ar    1  UNL1       -0.2232
      5 C           3.9430   -3.1540   20.0121 C.ar    1  UNL1        0.2362
      6 N           3.1007   -2.0255   19.4956 N.ar    1  UNL1       -0.2084
      7 C           4.4646   -2.0351   23.7839 C.ar    1  UNL1        0.0178
      8 C           5.7071   -2.7795   24.1740 C.ar    1  UNL1        0.0012
      9 C           6.1617   -2.7827   25.6034 C.ar    1  UNL1       -0.0042
     10 C           5.3739   -2.0416   26.6427 C.ar    1  UNL1       -0.0225
     11 C           4.1315   -1.2973   26.2526 C.ar    1  UNL1       -0.0042
     12 C           3.6768   -1.2940   24.8232 C.ar    1  UNL1        0.0012
     13 C           5.8286   -2.0449   28.0722 C.3     1  UNL1        0.0224
     14 C           5.7738   -0.7819   28.8796 C.3     1  UNL1        0.0047
     15 C           6.2285   -0.7852   30.3090 C.3     1  UNL1        0.0059
     16 C           6.7380   -2.0515   30.9310 C.3     1  UNL1        0.0366
     17 C           6.7929   -3.3144   30.1236 C.3     1  UNL1        0.0059
     18 C           6.3382   -3.3111   28.6942 C.3     1  UNL1        0.0047
     19 C           7.1927   -2.0547   32.3605 C.2     1  UNL1        0.0500
     20 O           8.5325   -2.6254   32.7200 O.co2   1  UNL1       -0.5492
     21 O           6.3077   -1.4873   33.4303 O.co2   1  UNL1       -0.5492
     22 C           1.3168    1.4933   20.4782 C.3     1  UNL1        0.1525
     23 C           0.6794    1.8245   19.1614 C.3     1  UNL1        0.0506
     24 C           1.2332    0.5598   18.5751 C.3     1  UNL1        0.0948
     25 N           1.8707    0.2284   19.8919 N.pl3   1  UNL1       -0.2868
     26 N           0.3997    1.7636   22.8939 N.am    1  UNL1       -0.3027
     27 C           1.3760    2.1533   21.8238 C.2     1  UNL1        0.2406
     28 O           2.4113    3.2031   22.0994 O.2     1  UNL1       -0.2733
     29 H          -0.2799    1.0746   22.7130 H       1  UNL1        0.1495
     30 C           0.4588    2.4237   24.2396 C.3     1  UNL1        0.0941
     31 C          -0.3904    1.9107   25.3646 C.3     1  UNL1        0.0476
     32 C           1.5478    0.1622   29.0301 C.ar    1  UNL1        0.0684
     33 C           2.3770    0.9069   28.0262 C.ar    1  UNL1        0.0100
     34 C           1.7309    1.4897   26.8043 C.ar    1  UNL1       -0.0035
     35 C           0.2557    1.3279   26.5864 C.ar    1  UNL1       -0.0204
     36 C          -0.5734    0.5832   27.5904 C.ar    1  UNL1       -0.0035
     37 C           0.0726    0.0004   28.8122 C.ar    1  UNL1        0.0100
     38 N           2.8400   -1.0034   31.4738 N.1     1  UNL1       -0.1908
     39 C           2.1939   -0.4206   30.2520 C.1     1  UNL1        0.1004
     40 C           4.3307   -4.2794   19.0993 C.3     1  UNL1        0.4523
     41 F           4.7184   -5.4047   18.1864 F       1  UNL1       -0.1632
     42 F           2.9320   -4.8169   19.1680 F       1  UNL1       -0.1632
     43 F           5.7294   -3.7418   19.0307 F       1  UNL1       -0.1632
@<TRIPOS>UNITY_ATOM_ATTR
20 1
charge -1
@<TRIPOS>BOND
     1    38    39    3
     2    39    32    1
     3    32    33   ar
     4    33    34   ar
     5    34    35   ar
     6    35    31    1
     7    31    30    1
     8    30    26    1
     9    26    27   am
    10    27    28    2
    11    22    27    1
    12    22    23    1
    13    23    24    1
    14    24    25    1
    15    25     1    1
    16     1     2   ar
    17     2     3   ar
    18     3     7    1
    19     7     8   ar
    20     8     9   ar
    21     9    10   ar
    22    13    10    1
    23    13    14    1
    24    14    15    1
    25    15    16    1
    26    16    19    1
    27    19    20   ar
    28    19    21   ar
    29    16    17    1
    30    17    18    1
    31    10    11   ar
    32    11    12   ar
    33     3     4   ar
    34     4     5   ar
    35     5    40    1
    36    40    41    1
    37    40    42    1
    38    40    43    1
    39     5     6   ar
    40    35    36   ar
    41    36    37   ar
    42    37    32   ar
    43    25    22    1
    44     6     1   ar
    45    12     7   ar
    46    18    13    1
    47    26    29    1
@<TRIPOS>MOLECULE
*****
 43 47 0 0 0
SMALL
GASTEIGER

@<TRIPOS>ATOM
      1 C           4.3562   -2.3201   22.4570 C.ar    1  UNL1        0.1351
      2 C           3.4836   -1.1998   21.9740 C.ar    1  UNL1        0.0535
      3 C           2.9300   -1.2277   20.5801 C.ar    1  UNL1        0.0857
      4 N           3.2489   -2.3760   19.6693 N.ar    1  UNL1       -0.2232
      5 C           4.1216   -3.4965   20.1523 C.ar    1  UNL1        0.2362
      6 N           4.6752   -3.4685   21.5462 N.ar    1  UNL1       -0.2084
      7 C           2.0575   -0.1073   20.0971 C.ar    1  UNL1        0.0178
      8 C           0.7005    0.1007   20.7018 C.ar    1  UNL1        0.0012
      9 C          -0.1720    1.2211   20.2187 C.ar    1  UNL1       -0.0042
     10 C           0.3123    2.1335   19.1311 C.ar    1  UNL1       -0.0225
     11 C           1.6691    1.9255   18.5264 C.ar    1  UNL1       -0.0042
     12 C           2.5418    0.8051   19.0095 C.ar    1  UNL1        0.0012
     13 C          -0.5604    3.2539   18.6481 C.3     1  UNL1        0.0224
     14 C          -0.1835    4.0198   17.4147 C.3     1  UNL1        0.0047
     15 C          -1.0561    5.1402   16.9318 C.3     1  UNL1        0.0059
     16 C          -2.3056    5.4946   17.6822 C.3     1  UNL1        0.0366
     17 C          -2.6825    4.7286   18.9155 C.3     1  UNL1        0.0059
     18 C          -1.8099    3.6083   19.3985 C.3     1  UNL1        0.0047
     19 C          -3.1783    6.6150   17.1992 C.2     1  UNL1        0.0500
     20 O          -2.5968    7.7054   16.3489 O.co2   1  UNL1       -0.5492
     21 O          -4.6323    6.6450   17.5664 O.co2   1  UNL1       -0.5492
     22 C           4.7472   -1.3909   25.0388 C.3     1  UNL1        0.1525
     23 C           5.6928   -2.2527   25.8219 C.3     1  UNL1        0.0506
     24 C           5.8554   -3.1539   24.6340 C.3     1  UNL1        0.0948
     25 N           4.9098   -2.2922   23.8508 N.pl3   1  UNL1       -0.2868
     26 N           2.4646   -0.1911   25.3556 N.am    1  UNL1       -0.3027
     27 C           3.9637   -0.1443   25.3250 C.2     1  UNL1        0.2406
     28 O           4.6790    1.1491   25.5807 O.2     1  UNL1       -0.2733
     29 H           1.9951   -1.0400   25.1878 H       1  UNL1        0.1495
     30 C           1.6811    1.0556   25.6419 C.3     1  UNL1        0.0941
     31 C           0.6426    1.5287   24.6685 C.3     1  UNL1        0.0476
     32 C           1.7708    4.4021   21.3942 C.ar    1  UNL1        0.0684
     33 C           0.4245    4.5011   22.0479 C.ar    1  UNL1        0.0100
     34 C           0.0484    3.5434   23.1394 C.ar    1  UNL1       -0.0035
     35 C           1.0186    2.4865   23.5770 C.ar    1  UNL1       -0.0204
     36 C           2.3650    2.3875   22.9233 C.ar    1  UNL1       -0.0035
     37 C           2.7411    3.3452   21.8319 C.ar    1  UNL1        0.0100
     38 N           2.5230    6.3176   19.2113 N.1     1  UNL1       -0.1908
     39 C           2.1469    5.3599   20.3028 C.1     1  UNL1        0.1004
     40 C           4.4405   -4.6448   19.2416 C.3     1  UNL1        0.4523
     41 F           4.7595   -5.7932   18.3307 F       1  UNL1       -0.1632
     42 F           3.0227   -4.6502   18.7518 F       1  UNL1       -0.1632
     43 F           5.8583   -4.6394   19.7313 F       1  UNL1       -0.1632
@<TRIPOS>UNITY_ATOM_ATTR
20 1
charge -1
@<TRIPOS>BOND
     1    38    39    3
     2    39    32    1
     3    32    33   ar
     4    33    34   ar
     5    34    35   ar
     6    35    31    1
     7    31    30    1
     8    30    26    1
     9    26    27   am
    10    27    28    2
    11    22    27    1
    12    22    23    1
    13    23    24    1
    14    24    25    1
    15    25     1    1
    16     1     2   ar
    17     2     3   ar
    18     3     7    1
    19     7     8   ar
    20     8     9   ar
    21     9    10   ar
    22    13    10    1
    23    13    14    1
    24    14    15    1
    25    15    16    1
    26    16    19    1
    27    19    20   ar
    28    19    21   ar
    29    16    17    1
    30    17    18    1
    31    10    11   ar
    32    11    12   ar
    33     3     4   ar
    34     4     5   ar
    35     5    40    1
    36    40    41    1
    37    40    42    1
    38    40    43    1
    39     5     6   ar
    40    35    36   ar
    41    36    37   ar
    42    37    32   ar
    43    25    22    1
    44     6     1   ar
    45    12     7   ar
    46    18    13    1
    47    26    29    1
@<TRIPOS>MOLECULE
*****
 43 47 0 0 0
SMALL
GASTEIGER

@<TRIPOS>ATOM
      1 C           3.3441   -0.4502   20.0441 C.ar    1  UNL1        0.1351
      2 C           3.5844   -0.4457   21.5247 C.ar    1  UNL1        0.0535
      3 C           4.0923   -1.6819   22.2058 C.ar    1  UNL1        0.0857
      4 N           4.3599   -2.9225   21.4063 N.ar    1  UNL1       -0.2232
      5 C           4.1196   -2.9270   19.9257 C.ar    1  UNL1        0.2362
      6 N           3.6117   -1.6909   19.2446 N.ar    1  UNL1       -0.2084
      7 C           4.3327   -1.6774   23.6864 C.ar    1  UNL1        0.0178
      8 C           5.4894   -2.4404   24.2608 C.ar    1  UNL1        0.0012
      9 C           5.7298   -2.4360   25.7414 C.ar    1  UNL1       -0.0042
     10 C           4.8134   -1.6686   26.6476 C.ar    1  UNL1       -0.0225
     11 C           3.6567   -0.9056   26.0733 C.ar    1  UNL1       -0.0042
     12 C           3.4163   -0.9100   24.5927 C.ar    1  UNL1        0.0012
     13 C           5.0538   -1.6641   28.1283 C.3     1  UNL1        0.0224
     14 C           4.1621   -0.8636   29.0305 C.3     1  UNL1        0.0047
     15 C           4.4025   -0.8592   30.5111 C.3     1  UNL1        0.0059
     16 C           5.5346   -1.6553   31.0894 C.3     1  UNL1        0.0366
     17 C           6.4263   -2.4558   30.1872 C.3     1  UNL1        0.0059
     18 C           6.1859   -2.4602   28.7067 C.3     1  UNL1        0.0047
     19 C           5.7750   -1.6509   32.5701 C.2     1  UNL1        0.0500
     20 O           4.7305   -2.1915   33.5011 O.co2   1  UNL1       -0.5492
     21 O           7.0599   -1.1059   33.1197 O.co2   1  UNL1       -0.5492
     22 C           1.6389    1.6738   19.5313 C.3     1  UNL1        0.1525
     23 C           2.1179    2.5342   18.3998 C.3     1  UNL1        0.0506
     24 C           3.3151    1.6464   18.2315 C.3     1  UNL1        0.0948
     25 N           2.8362    0.7860   19.3630 N.pl3   1  UNL1       -0.2868
     26 N          -0.0643    2.9980   20.9790 N.am    1  UNL1       -0.3027
     27 C           0.4536    1.6932   20.4504 C.2     1  UNL1        0.2406
     28 O          -0.2139    0.4079   20.8408 O.2     1  UNL1       -0.2733
     29 H           0.3738    3.8416   20.7228 H       1  UNL1        0.1495
     30 C          -1.2496    3.0174   21.8981 C.3     1  UNL1        0.0941
     31 C          -1.1641    3.7260   23.2174 C.3     1  UNL1        0.0476
     32 C          -0.3417    1.3919   26.9759 C.ar    1  UNL1        0.0684
     33 C          -1.4200    2.4345   26.9613 C.ar    1  UNL1        0.0100
     34 C          -1.6942    3.2125   25.7085 C.ar    1  UNL1       -0.0035
     35 C          -0.8900    2.9480   24.4702 C.ar    1  UNL1       -0.0204
     36 C           0.1883    1.9054   24.4848 C.ar    1  UNL1       -0.0035
     37 C           0.4624    1.1274   25.7376 C.ar    1  UNL1        0.0100
     38 N           0.2065   -0.1641   29.4815 N.1     1  UNL1       -0.1908
     39 C          -0.0676    0.6139   28.2287 C.1     1  UNL1        0.1004
     40 C           4.3871   -4.1677   19.1262 C.3     1  UNL1        0.4523
     41 F           4.6547   -5.4084   18.3267 F       1  UNL1       -0.1632
     42 F           5.8605   -3.9906   19.3446 F       1  UNL1       -0.1632
     43 F           2.9137   -4.3446   18.9078 F       1  UNL1       -0.1632
@<TRIPOS>UNITY_ATOM_ATTR
20 1
charge -1
@<TRIPOS>BOND
     1    38    39    3
     2    39    32    1
     3    32    33   ar
     4    33    34   ar
     5    34    35   ar
     6    35    31    1
     7    31    30    1
     8    30    26    1
     9    26    27   am
    10    27    28    2
    11    22    27    1
    12    22    23    1
    13    23    24    1
    14    24    25    1
    15    25     1    1
    16     1     2   ar
    17     2     3   ar
    18     3     7    1
    19     7     8   ar
    20     8     9   ar
    21     9    10   ar
    22    13    10    1
    23    13    14    1
    24    14    15    1
    25    15    16    1
    26    16    19    1
    27    19    20   ar
    28    19    21   ar
    29    16    17    1
    30    17    18    1
    31    10    11   ar
    32    11    12   ar
    33     3     4   ar
    34     4     5   ar
    35     5    40    1
    36    40    41    1
    37    40    42    1
    38    40    43    1
    39     5     6   ar
    40    35    36   ar
    41    36    37   ar
    42    37    32   ar
    43    25    22    1
    44     6     1   ar
    45    12     7   ar
    46    18    13    1
    47    26    29    1
@<TRIPOS>MOLECULE
*****
 43 47 0 0 0
SMALL
GASTEIGER

@<TRIPOS>ATOM
      1 C           2.1279    0.1808   20.2681 C.ar    1  UNL1        0.1351
      2 C           2.3589    0.1697   21.7501 C.ar    1  UNL1        0.0535
      3 C           3.1817   -0.9189   22.3729 C.ar    1  UNL1        0.0857
      4 N           3.7735   -1.9965   21.5136 N.ar    1  UNL1       -0.2232
      5 C           3.5426   -1.9855   20.0315 C.ar    1  UNL1        0.2362
      6 N           2.7197   -0.8969   19.4087 N.ar    1  UNL1       -0.2084
      7 C           3.4127   -0.9299   23.8549 C.ar    1  UNL1        0.0178
      8 C           2.6788    0.0375   24.7356 C.ar    1  UNL1        0.0012
      9 C           2.9098    0.0265   26.2177 C.ar    1  UNL1       -0.0042
     10 C           3.8746   -0.9519   26.8191 C.ar    1  UNL1       -0.0225
     11 C           4.6085   -1.9193   25.9385 C.ar    1  UNL1       -0.0042
     12 C           4.3776   -1.9083   24.4564 C.ar    1  UNL1        0.0012
     13 C           4.1056   -0.9629   28.3012 C.3     1  UNL1        0.0224
     14 C           5.4534   -1.3303   28.8475 C.3     1  UNL1        0.0047
     15 C           5.6843   -1.3412   30.3296 C.3     1  UNL1        0.0059
     16 C           4.5674   -0.9848   31.2653 C.3     1  UNL1        0.0366
     17 C           3.2197   -0.6174   30.7190 C.3     1  UNL1        0.0059
     18 C           2.9888   -0.6064   29.2369 C.3     1  UNL1        0.0047
     19 C           4.7984   -0.9958   32.7474 C.2     1  UNL1        0.0500
     20 O           3.9857   -1.8995   33.6264 O.co2   1  UNL1       -0.5492
     21 O           5.8421   -0.1030   33.3505 O.co2   1  UNL1       -0.5492
     22 C           0.3146    2.2740   20.1553 C.3     1  UNL1        0.1525
     23 C           0.1414    2.8089   18.7647 C.3     1  UNL1        0.0506
     24 C           1.1318    1.8045   18.2548 C.3     1  UNL1        0.0948
     25 N           1.3050    1.2694   19.6454 N.pl3   1  UNL1       -0.2868
     26 N           0.6350    2.7146   22.6956 N.am    1  UNL1       -0.3027
     27 C          -0.2632    2.6060   21.4991 C.2     1  UNL1        0.2406
     28 O          -1.7391    2.8294   21.6464 O.2     1  UNL1       -0.2733
     29 H           1.6037    2.5679   22.5989 H       1  UNL1        0.1495
     30 C           0.0571    3.0466   24.0394 C.3     1  UNL1        0.0941
     31 C          -0.4798    1.9540   24.9157 C.3     1  UNL1        0.0476
     32 C           0.4076    1.9668   29.3273 C.ar    1  UNL1        0.0684
     33 C          -0.2946    0.7955   28.7069 C.ar    1  UNL1        0.0100
     34 C          -0.5904    0.7912   27.2364 C.ar    1  UNL1       -0.0035
     35 C          -0.1840    1.9582   26.3862 C.ar    1  UNL1       -0.0204
     36 C           0.5182    3.1295   27.0066 C.ar    1  UNL1       -0.0035
     37 C           0.8140    3.1338   28.4771 C.ar    1  UNL1        0.0100
     38 N           0.9992    1.9753   32.2683 N.1     1  UNL1       -0.1908
     39 C           0.7034    1.9710   30.7978 C.1     1  UNL1        0.1004
     40 C           4.1344   -3.0632   19.1722 C.3     1  UNL1        0.4523
     41 F           4.7263   -4.1408   18.3129 F       1  UNL1       -0.1632
     42 F           2.8692   -3.8589   19.2987 F       1  UNL1       -0.1632
     43 F           5.3996   -2.2674   19.0457 F       1  UNL1       -0.1632
@<TRIPOS>UNITY_ATOM_ATTR
20 1
charge -1
@<TRIPOS>BOND
     1    38    39    3
     2    39    32    1
     3    32    33   ar
     4    33    34   ar
     5    34    35   ar
     6    35    31    1
     7    31    30    1
     8    30    26    1
     9    26    27   am
    10    27    28    2
    11    22    27    1
    12    22    23    1
    13    23    24    1
    14    24    25    1
    15    25     1    1
    16     1     2   ar
    17     2     3   ar
    18     3     7    1
    19     7     8   ar
    20     8     9   ar
    21     9    10   ar
    22    13    10    1
    23    13    14    1
    24    14    15    1
    25    15    16    1
    26    16    19    1
    27    19    20   ar
    28    19    21   ar
    29    16    17    1
    30    17    18    1
    31    10    11   ar
    32    11    12   ar
    33     3     4   ar
    34     4     5   ar
    35     5    40    1
    36    40    41    1
    37    40    42    1
    38    40    43    1
    39     5     6   ar
    40    35    36   ar
    41    36    37   ar
    42    37    32   ar
    43    25    22    1
    44     6     1   ar
    45    12     7   ar
    46    18    13    1
    47    26    29    1
@<TRIPOS>MOLECULE
*****
 43 47 0 0 0
SMALL
GASTEIGER

@<TRIPOS>ATOM
      1 C           6.8304   -4.5732   25.9658 C.ar    1  UNL1        0.1351
      2 C           6.6112   -3.7905   27.2264 C.ar    1  UNL1        0.0535
      3 C           6.8699   -4.4277   28.5594 C.ar    1  UNL1        0.0857
      4 N           7.3477   -5.8477   28.6319 N.ar    1  UNL1       -0.2232
      5 C           7.5670   -6.6305   27.3712 C.ar    1  UNL1        0.2362
      6 N           7.3083   -5.9933   26.0381 N.ar    1  UNL1       -0.2084
      7 C           6.6507   -3.6450   29.8201 C.ar    1  UNL1        0.0178
      8 C           6.3045   -2.1873   29.7472 C.ar    1  UNL1        0.0012
      9 C           6.0853   -1.4046   31.0079 C.ar    1  UNL1       -0.0042
     10 C           6.2123   -2.0795   32.3414 C.ar    1  UNL1       -0.0225
     11 C           6.5585   -3.5372   32.4143 C.ar    1  UNL1       -0.0042
     12 C           6.7777   -4.3200   31.1536 C.ar    1  UNL1        0.0012
     13 C           5.9930   -1.2967   33.6021 C.3     1  UNL1        0.0224
     14 C           4.6624   -1.3445   34.2928 C.3     1  UNL1        0.0047
     15 C           4.4432   -0.5617   35.5534 C.3     1  UNL1        0.0059
     16 C           5.5547    0.2688   36.1233 C.3     1  UNL1        0.0366
     17 C           6.8853    0.3166   35.4326 C.3     1  UNL1        0.0059
     18 C           7.1045   -0.4662   34.1720 C.3     1  UNL1        0.0047
     19 C           5.3355    1.0516   37.3840 C.2     1  UNL1        0.0500
     20 O           4.0224    0.9621   38.1036 O.co2   1  UNL1       -0.5492
     21 O           6.4293    1.9239   37.9250 O.co2   1  UNL1       -0.5492
     22 C           5.8938   -2.6800   24.1711 C.3     1  UNL1        0.1525
     23 C           6.2060   -3.0348   22.7475 C.3     1  UNL1        0.0506
     24 C           6.8839   -4.2906   23.2091 C.3     1  UNL1        0.0948
     25 N           6.5718   -3.9360   24.6327 N.pl3   1  UNL1       -0.2868
     26 N           4.2514   -1.8109   25.9870 N.am    1  UNL1       -0.3027
     27 C           5.1936   -1.5411   24.8514 C.2     1  UNL1        0.2406
     28 O           5.4356   -0.1326   24.3961 O.2     1  UNL1       -0.2733
     29 H           4.0926   -2.7354   26.2858 H       1  UNL1        0.1495
     30 C           3.5513   -0.6720   26.6673 C.3     1  UNL1        0.0941
     31 C           2.7847   -0.9122   27.9340 C.3     1  UNL1        0.0476
     32 C           3.7887    1.4215   31.6483 C.ar    1  UNL1        0.0684
     33 C           2.8323    0.2684   31.7227 C.ar    1  UNL1        0.0100
     34 C           2.4976   -0.5094   30.4846 C.ar    1  UNL1       -0.0035
     35 C           3.1194   -0.1343   29.1721 C.ar    1  UNL1       -0.0204
     36 C           4.0759    1.0188   29.0978 C.ar    1  UNL1       -0.0035
     37 C           4.4106    1.7966   30.3359 C.ar    1  UNL1        0.0100
     38 N           4.4581    2.9772   34.1245 N.1     1  UNL1       -0.1908
     39 C           4.1234    2.1993   32.8864 C.1     1  UNL1        0.1004
     40 C           8.0448   -8.0505   27.4436 C.3     1  UNL1        0.4523
     41 F           8.5227   -9.4706   27.5159 F       1  UNL1       -0.1632
     42 F           8.6137   -7.7896   28.8067 F       1  UNL1       -0.1632
     43 F           7.4759   -8.3114   26.0803 F       1  UNL1       -0.1632
@<TRIPOS>UNITY_ATOM_ATTR
20 1
charge -1
@<TRIPOS>BOND
     1    38    39    3
     2    39    32    1
     3    32    33   ar
     4    33    34   ar
     5    34    35   ar
     6    35    31    1
     7    31    30    1
     8    30    26    1
     9    26    27   am
    10    27    28    2
    11    22    27    1
    12    22    23    1
    13    23    24    1
    14    24    25    1
    15    25     1    1
    16     1     2   ar
    17     2     3   ar
    18     3     7    1
    19     7     8   ar
    20     8     9   ar
    21     9    10   ar
    22    13    10    1
    23    13    14    1
    24    14    15    1
    25    15    16    1
    26    16    19    1
    27    19    20   ar
    28    19    21   ar
    29    16    17    1
    30    17    18    1
    31    10    11   ar
    32    11    12   ar
    33     3     4   ar
    34     4     5   ar
    35     5    40    1
    36    40    41    1
    37    40    42    1
    38    40    43    1
    39     5     6   ar
    40    35    36   ar
    41    36    37   ar
    42    37    32   ar
    43    25    22    1
    44     6     1   ar
    45    12     7   ar
    46    18    13    1
    47    26    29    1
@<TRIPOS>MOLECULE
*****
 43 47 0 0 0
SMALL
GASTEIGER

@<TRIPOS>ATOM
      1 C          -0.6064    2.9446   25.2092 C.ar    1  UNL1        0.1351
      2 C          -0.3685    3.1589   26.6746 C.ar    1  UNL1        0.0535
      3 C           0.7112    2.3921   27.3791 C.ar    1  UNL1        0.0857
      4 N           1.5530    1.4112   26.6182 N.ar    1  UNL1       -0.2232
      5 C           1.3152    1.1969   25.1527 C.ar    1  UNL1        0.2362
      6 N           0.2355    1.9636   24.4482 N.ar    1  UNL1       -0.2084
      7 C           0.9491    2.6063   28.8445 C.ar    1  UNL1        0.0178
      8 C           1.4347    1.4732   29.6991 C.ar    1  UNL1        0.0012
      9 C           1.6726    1.6874   31.1645 C.ar    1  UNL1       -0.0042
     10 C           1.4248    3.0347   31.7755 C.ar    1  UNL1       -0.0225
     11 C           0.9392    4.1679   30.9210 C.ar    1  UNL1       -0.0042
     12 C           0.7013    3.9537   29.4555 C.ar    1  UNL1        0.0012
     13 C           1.6627    3.2489   33.2410 C.3     1  UNL1        0.0224
     14 C           1.1563    4.4927   33.9091 C.3     1  UNL1        0.0047
     15 C           1.3942    4.7068   35.3745 C.3     1  UNL1        0.0059
     16 C           2.1385    3.6771   36.1718 C.3     1  UNL1        0.0366
     17 C           2.6450    2.4333   35.5037 C.3     1  UNL1        0.0059
     18 C           2.4071    2.2192   34.0383 C.3     1  UNL1        0.0047
     19 C           2.3764    3.8913   37.6373 C.2     1  UNL1        0.0500
     20 O           1.8506    2.9022   38.6349 O.co2   1  UNL1       -0.5492
     21 O           3.1402    5.0945   38.1052 O.co2   1  UNL1       -0.5492
     22 C          -2.1835    3.7876   23.0915 C.3     1  UNL1        0.1525
     23 C          -3.2130    4.7957   23.5083 C.3     1  UNL1        0.0506
     24 C          -2.7156    4.7196   24.9213 C.3     1  UNL1        0.0948
     25 N          -1.6861    3.7114   24.5047 N.pl3   1  UNL1       -0.2868
     26 N          -0.3782    2.7572   21.5329 N.am    1  UNL1       -0.3027
     27 C          -1.8072    3.1285   21.7977 C.2     1  UNL1        0.2406
     28 O          -2.8599    2.8408   20.7686 O.2     1  UNL1       -0.2733
     29 H           0.3127    2.9460   22.2083 H       1  UNL1        0.1495
     30 C          -0.0019    2.0981   20.2390 C.3     1  UNL1        0.0941
     31 C           0.1609    0.6084   20.1757 C.3     1  UNL1        0.0476
     32 C           3.9643   -1.1727   18.5596 C.ar    1  UNL1        0.0684
     33 C           3.4202   -1.6362   19.8783 C.ar    1  UNL1        0.0100
     34 C           2.1524   -1.0425   20.4170 C.ar    1  UNL1       -0.0035
     35 C           1.4287    0.0147   19.6370 C.ar    1  UNL1       -0.0204
     36 C           1.9728    0.4782   18.3183 C.ar    1  UNL1       -0.0035
     37 C           3.2406   -0.1155   17.7795 C.ar    1  UNL1        0.0100
     38 N           6.4999   -2.3601   17.4821 N.1     1  UNL1       -0.1908
     39 C           5.2321   -1.7664   18.0208 C.1     1  UNL1        0.1004
     40 C           2.1570    0.2160   24.3919 C.3     1  UNL1        0.4523
     41 F           2.9989   -0.7651   23.6310 F       1  UNL1       -0.1632
     42 F           1.4207    0.5616   23.1316 F       1  UNL1       -0.1632
     43 F           2.8933   -0.1297   25.6522 F       1  UNL1       -0.1632
@<TRIPOS>UNITY_ATOM_ATTR
20 1
charge -1
@<TRIPOS>BOND
     1    38    39    3
     2    39    32    1
     3    32    33   ar
     4    33    34   ar
     5    34    35   ar
     6    35    31    1
     7    31    30    1
     8    30    26    1
     9    26    27   am
    10    27    28    2
    11    22    27    1
    12    22    23    1
    13    23    24    1
    14    24    25    1
    15    25     1    1
    16     1     2   ar
    17     2     3   ar
    18     3     7    1
    19     7     8   ar
    20     8     9   ar
    21     9    10   ar
    22    13    10    1
    23    13    14    1
    24    14    15    1
    25    15    16    1
    26    16    19    1
    27    19    20   ar
    28    19    21   ar
    29    16    17    1
    30    17    18    1
    31    10    11   ar
    32    11    12   ar
    33     3     4   ar
    34     4     5   ar
    35     5    40    1
    36    40    41    1
    37    40    42    1
    38    40    43    1
    39     5     6   ar
    40    35    36   ar
    41    36    37   ar
    42    37    32   ar
    43    25    22    1
    44     6     1   ar
    45    12     7   ar
    46    18    13    1
    47    26    29    1
@<TRIPOS>MOLECULE
*****
 43 47 0 0 0
SMALL
GASTEIGER

@<TRIPOS>ATOM
      1 C           3.2093   -0.3856   29.1505 C.ar    1  UNL1        0.1351
      2 C           3.6222    0.3214   30.4073 C.ar    1  UNL1        0.0535
      3 C           2.6157    1.1148   31.1867 C.ar    1  UNL1        0.0857
      4 N           1.1964    1.2012   30.7094 N.ar    1  UNL1       -0.2232
      5 C           0.7834    0.4942   29.4525 C.ar    1  UNL1        0.2362
      6 N           1.7898   -0.2992   28.6731 N.ar    1  UNL1       -0.2084
      7 C           3.0287    1.8218   32.4435 C.ar    1  UNL1        0.0178
      8 C           4.4645    2.2023   32.6529 C.ar    1  UNL1        0.0012
      9 C           4.8774    2.9093   33.9097 C.ar    1  UNL1       -0.0042
     10 C           3.8546    3.2358   34.9572 C.ar    1  UNL1       -0.0225
     11 C           2.4189    2.8554   34.7479 C.ar    1  UNL1       -0.0042
     12 C           2.0059    2.1483   33.4910 C.ar    1  UNL1        0.0012
     13 C           4.2676    3.9428   36.2141 C.3     1  UNL1        0.0224
     14 C           3.2339    4.3374   37.2269 C.3     1  UNL1        0.0047
     15 C           3.6470    5.0444   38.4836 C.3     1  UNL1        0.0059
     16 C           5.0936    5.3568   38.7276 C.3     1  UNL1        0.0366
     17 C           6.1273    4.9622   37.7148 C.3     1  UNL1        0.0059
     18 C           5.7143    4.2553   36.4580 C.3     1  UNL1        0.0047
     19 C           5.5066    6.0639   39.9845 C.2     1  UNL1        0.0500
     20 O           4.5158    6.9073   40.7307 O.co2   1  UNL1       -0.5492
     21 O           6.9104    5.9274   40.4951 O.co2   1  UNL1       -0.5492
     22 C           5.5459   -1.8000   28.6794 C.3     1  UNL1        0.1525
     23 C           5.6390   -2.3010   27.2686 C.3     1  UNL1        0.0506
     24 C           4.3090   -1.6800   26.9602 C.3     1  UNL1        0.0948
     25 N           4.2157   -1.1790   28.3710 N.pl3   1  UNL1       -0.2868
     26 N           5.8214   -2.2237   31.2279 N.am    1  UNL1       -0.3027
     27 C           6.4205   -1.8849   29.8951 C.2     1  UNL1        0.2406
     28 O           7.8942   -1.6309   29.7780 O.2     1  UNL1       -0.2733
     29 H           4.8542   -2.3904   31.3047 H       1  UNL1        0.1495
     30 C           6.6960   -2.3086   32.4435 C.3     1  UNL1        0.0941
     31 C           7.1455   -1.0546   33.1331 C.3     1  UNL1        0.0476
     32 C           4.9990    0.3794   36.8190 C.ar    1  UNL1        0.0684
     33 C           6.4524    0.6962   36.6265 C.ar    1  UNL1        0.0100
     34 C           7.1679    0.2182   35.3979 C.ar    1  UNL1       -0.0035
     35 C           6.4300   -0.5766   34.3617 C.ar    1  UNL1       -0.0204
     36 C           4.9766   -0.8935   34.5543 C.ar    1  UNL1       -0.0035
     37 C           4.2611   -0.4155   35.7829 C.ar    1  UNL1        0.0100
     38 N           3.5681    1.3354   39.2764 N.1     1  UNL1       -0.1908
     39 C           4.2835    0.8574   38.0477 C.1     1  UNL1        0.1004
     40 C          -0.6360    0.5806   28.9752 C.3     1  UNL1        0.4523
     41 F          -2.0554    0.6671   28.4979 F       1  UNL1       -0.1632
     42 F          -0.8410   -0.8639   29.3233 F       1  UNL1       -0.1632
     43 F          -0.4309    2.0252   28.6271 F       1  UNL1       -0.1632
@<TRIPOS>UNITY_ATOM_ATTR
20 1
charge -1
@<TRIPOS>BOND
     1    38    39    3
     2    39    32    1
     3    32    33   ar
     4    33    34   ar
     5    34    35   ar
     6    35    31    1
     7    31    30    1
     8    30    26    1
     9    26    27   am
    10    27    28    2
    11    22    27    1
    12    22    23    1
    13    23    24    1
    14    24    25    1
    15    25     1    1
    16     1     2   ar
    17     2     3   ar
    18     3     7    1
    19     7     8   ar
    20     8     9   ar
    21     9    10   ar
    22    13    10    1
    23    13    14    1
    24    14    15    1
    25    15    16    1
    26    16    19    1
    27    19    20   ar
    28    19    21   ar
    29    16    17    1
    30    17    18    1
    31    10    11   ar
    32    11    12   ar
    33     3     4   ar
    34     4     5   ar
    35     5    40    1
    36    40    41    1
    37    40    42    1
    38    40    43    1
    39     5     6   ar
    40    35    36   ar
    41    36    37   ar
    42    37    32   ar
    43    25    22    1
    44     6     1   ar
    45    12     7   ar
    46    18    13    1
    47    26    29    1
@<TRIPOS>MOLECULE
*****
 43 47 0 0 0
SMALL
GASTEIGER

@<TRIPOS>ATOM
      1 C          -0.5946    4.5703   18.7579 C.ar    1  UNL1        0.1351
      2 C           0.3999    3.5854   19.2972 C.ar    1  UNL1        0.0535
      3 C          -0.0472    2.5079   20.2400 C.ar    1  UNL1        0.0857
      4 N          -1.4889    2.4152   20.6436 N.ar    1  UNL1       -0.2232
      5 C          -2.4836    3.4001   20.1042 C.ar    1  UNL1        0.2362
      6 N          -2.0364    4.4776   19.1614 N.ar    1  UNL1       -0.2084
      7 C           0.9473    1.5230   20.7794 C.ar    1  UNL1        0.0178
      8 C           0.8407    0.0723   20.4127 C.ar    1  UNL1        0.0012
      9 C           1.8353   -0.9125   20.9521 C.ar    1  UNL1       -0.0042
     10 C           2.9363   -0.4468   21.8580 C.ar    1  UNL1       -0.0225
     11 C           3.0429    1.0037   22.2247 C.ar    1  UNL1       -0.0042
     12 C           2.0483    1.9887   21.6853 C.ar    1  UNL1        0.0012
     13 C           3.9309   -1.4318   22.3974 C.3     1  UNL1        0.0224
     14 C           3.9123   -2.8539   21.9206 C.3     1  UNL1        0.0047
     15 C           4.9068   -3.8387   22.4599 C.3     1  UNL1        0.0059
     16 C           5.9199   -3.4016   23.4760 C.3     1  UNL1        0.0366
     17 C           5.9385   -1.9795   23.9528 C.3     1  UNL1        0.0059
     18 C           4.9440   -0.9946   23.4134 C.3     1  UNL1        0.0047
     19 C           6.9145   -4.3865   24.0153 C.2     1  UNL1        0.0500
     20 O           7.3038   -4.3427   25.4633 O.co2   1  UNL1       -0.5492
     21 O           7.5196   -5.4152   23.1068 O.co2   1  UNL1       -0.5492
     22 C           1.1804    6.1432   17.3235 C.3     1  UNL1        0.1525
     23 C           0.4850    7.1716   16.4817 C.3     1  UNL1        0.0506
     24 C          -0.8427    6.6763   16.9732 C.3     1  UNL1        0.0948
     25 N          -0.1474    5.6478   17.8150 N.pl3   1  UNL1       -0.2868
     26 N           3.0341    4.3298   17.4837 N.am    1  UNL1       -0.3027
     27 C           2.6110    5.7663   17.5712 C.2     1  UNL1        0.2406
     28 O           3.6185    6.8257   17.9064 O.2     1  UNL1       -0.2733
     29 H           2.3728    3.6344   17.2637 H       1  UNL1        0.1495
     30 C           4.4646    3.9528   17.7314 C.3     1  UNL1        0.0941
     31 C           4.8259    3.1276   18.9307 C.3     1  UNL1        0.0476
     32 C           4.7271   -1.3645   18.6835 C.ar    1  UNL1        0.0684
     33 C           5.8109   -0.6799   19.4623 C.ar    1  UNL1        0.0100
     34 C           5.8438    0.8174   19.5447 C.ar    1  UNL1       -0.0035
     35 C           4.7930    1.6302   18.8483 C.ar    1  UNL1       -0.0204
     36 C           3.7091    0.9456   18.0695 C.ar    1  UNL1       -0.0035
     37 C           3.6762   -0.5518   17.9871 C.ar    1  UNL1        0.0100
     38 N           4.6612   -4.3593   18.5187 N.1     1  UNL1       -0.1908
     39 C           4.6941   -2.8619   18.6011 C.1     1  UNL1        0.1004
     40 C          -3.9252    3.3074   20.5078 C.3     1  UNL1        0.4523
     41 F          -5.3670    3.2148   20.9113 F       1  UNL1       -0.1632
     42 F          -3.5160    3.2109   21.9476 F       1  UNL1       -0.1632
     43 F          -4.3344    3.4040   19.0678 F       1  UNL1       -0.1632
@<TRIPOS>UNITY_ATOM_ATTR
20 1
charge -1
@<TRIPOS>BOND
     1    38    39    3
     2    39    32    1
     3    32    33   ar
     4    33    34   ar
     5    34    35   ar
     6    35    31    1
     7    31    30    1
     8    30    26    1
     9    26    27   am
    10    27    28    2
    11    22    27    1
    12    22    23    1
    13    23    24    1
    14    24    25    1
    15    25     1    1
    16     1     2   ar
    17     2     3   ar
    18     3     7    1
    19     7     8   ar
    20     8     9   ar
    21     9    10   ar
    22    13    10    1
    23    13    14    1
    24    14    15    1
    25    15    16    1
    26    16    19    1
    27    19    20   ar
    28    19    21   ar
    29    16    17    1
    30    17    18    1
    31    10    11   ar
    32    11    12   ar
    33     3     4   ar
    34     4     5   ar
    35     5    40    1
    36    40    41    1
    37    40    42    1
    38    40    43    1
    39     5     6   ar
    40    35    36   ar
    41    36    37   ar
    42    37    32   ar
    43    25    22    1
    44     6     1   ar
    45    12     7   ar
    46    18    13    1
    47    26    29    1
@<TRIPOS>MOLECULE
*****
 43 47 0 0 0
SMALL
GASTEIGER

@<TRIPOS>ATOM
      1 C           0.1900    1.9935   25.9073 C.ar    1  UNL1        0.1351
      2 C           0.5517    2.0180   27.3628 C.ar    1  UNL1        0.0535
      3 C           1.7189    1.2171   27.8591 C.ar    1  UNL1        0.0857
      4 N           2.5244    0.3919   26.8999 N.ar    1  UNL1       -0.2232
      5 C           2.1627    0.3674   25.4444 C.ar    1  UNL1        0.2362
      6 N           0.9955    1.1682   24.9480 N.ar    1  UNL1       -0.2084
      7 C           2.0806    1.2416   29.3146 C.ar    1  UNL1        0.0178
      8 C           1.6092    2.3681   30.1858 C.ar    1  UNL1        0.0012
      9 C           1.9709    2.3926   31.6413 C.ar    1  UNL1       -0.0042
     10 C           2.8040    1.2906   32.2257 C.ar    1  UNL1       -0.0225
     11 C           3.2755    0.1642   31.3546 C.ar    1  UNL1       -0.0042
     12 C           2.9138    0.1397   29.8990 C.ar    1  UNL1        0.0012
     13 C           3.1658    1.3151   33.6813 C.3     1  UNL1        0.0224
     14 C           2.5136    2.3058   34.5995 C.3     1  UNL1        0.0047
     15 C           2.8754    2.3303   36.0550 C.3     1  UNL1        0.0059
     16 C           3.8892    1.3641   36.5923 C.3     1  UNL1        0.0366
     17 C           4.5413    0.3734   35.6740 C.3     1  UNL1        0.0059
     18 C           4.1796    0.3489   34.2185 C.3     1  UNL1        0.0047
     19 C           4.2509    1.3886   38.0478 C.2     1  UNL1        0.0500
     20 O           3.2749    0.8894   39.0717 O.co2   1  UNL1       -0.5492
     21 O           5.5886    1.9122   38.4795 O.co2   1  UNL1       -0.5492
     22 C          -1.4443    3.2669   24.0661 C.3     1  UNL1        0.1525
     23 C          -2.6279    3.9268   24.7091 C.3     1  UNL1        0.0506
     24 C          -2.1610    3.4542   26.0538 C.3     1  UNL1        0.0948
     25 N          -0.9773    2.7943   25.4110 N.pl3   1  UNL1       -0.2868
     26 N          -0.2548    1.8715   22.2253 N.am    1  UNL1       -0.3027
     27 C          -0.9375    3.1344   22.6605 C.2     1  UNL1        0.2406
     28 O          -1.1134    4.2646   21.6902 O.2     1  UNL1       -0.2733
     29 H          -0.1394    1.1297   22.8622 H       1  UNL1        0.1495
     30 C           0.2519    1.7390   20.8197 C.3     1  UNL1        0.0941
     31 C           0.3055    0.3902   20.1658 C.3     1  UNL1        0.0476
     32 C           4.2061   -1.1799   18.5627 C.ar    1  UNL1        0.0684
     33 C           3.4910   -0.0739   17.8449 C.ar    1  UNL1        0.0100
     34 C           2.1908    0.4495   18.3792 C.ar    1  UNL1       -0.0035
     35 C           1.6057   -0.1332   19.6314 C.ar    1  UNL1       -0.0204
     36 C           2.3207   -1.2392   20.3493 C.ar    1  UNL1       -0.0035
     37 C           3.6210   -1.7626   19.8149 C.ar    1  UNL1        0.0100
     38 N           6.8065   -2.2267   17.4940 N.1     1  UNL1       -0.1908
     39 C           5.5063   -1.7033   18.0284 C.1     1  UNL1        0.1004
     40 C           2.9682   -0.4579   24.4852 C.3     1  UNL1        0.4523
     41 F           3.7737   -1.2832   23.5260 F       1  UNL1       -0.1632
     42 F           2.3677    0.2936   23.3343 F       1  UNL1       -0.1632
     43 F           3.5686   -1.2094   25.6362 F       1  UNL1       -0.1632
@<TRIPOS>UNITY_ATOM_ATTR
20 1
charge -1
@<TRIPOS>BOND
     1    38    39    3
     2    39    32    1
     3    32    33   ar
     4    33    34   ar
     5    34    35   ar
     6    35    31    1
     7    31    30    1
     8    30    26    1
     9    26    27   am
    10    27    28    2
    11    22    27    1
    12    22    23    1
    13    23    24    1
    14    24    25    1
    15    25     1    1
    16     1     2   ar
    17     2     3   ar
    18     3     7    1
    19     7     8   ar
    20     8     9   ar
    21     9    10   ar
    22    13    10    1
    23    13    14    1
    24    14    15    1
    25    15    16    1
    26    16    19    1
    27    19    20   ar
    28    19    21   ar
    29    16    17    1
    30    17    18    1
    31    10    11   ar
    32    11    12   ar
    33     3     4   ar
    34     4     5   ar
    35     5    40    1
    36    40    41    1
    37    40    42    1
    38    40    43    1
    39     5     6   ar
    40    35    36   ar
    41    36    37   ar
    42    37    32   ar
    43    25    22    1
    44     6     1   ar
    45    12     7   ar
    46    18    13    1
    47    26    29    1
