@<TRIPOS>MOLECULE
*****
 30 32 0 0 0
SMALL
GASTEIGER

@<TRIPOS>ATOM
      1 C          -9.1851  -18.9247   20.7567 C.ar    1  UNL1        0.2445
      2 N         -10.2170  -19.0874   19.6801 N.ar    1  UNL1       -0.2078
      3 C          -9.9919  -20.0680   18.5676 C.ar    1  UNL1        0.1135
      4 C          -8.7351  -20.8859   18.5315 C.ar    1  UNL1        0.0783
      5 CL         -8.5100  -21.8665   17.4190 Cl      1  UNL1       -0.0806
      6 C          -7.7032  -20.7232   19.6080 C.ar    1  UNL1        0.0336
      7 C          -7.9282  -19.7426   20.7206 C.ar    1  UNL1        0.1190
      8 N          -6.8964  -19.5799   21.7970 N.pl3   1  UNL1       -0.2104
      9 H          -7.1467  -19.7019   22.7413 H       1  UNL1        0.1739
     10 S          -5.4831  -19.2314   21.4348 S.O2    1  UNL1        0.0737
     11 O          -5.9805  -18.4176   20.2771 O.2     1  UNL1       -0.1499
     12 O          -4.9857  -20.0452   22.5924 O.2     1  UNL1       -0.1499
     13 C          -4.0698  -18.8829   21.0725 C.ar    1  UNL1        0.1261
     14 C          -2.9951  -18.9266   22.1179 C.ar    1  UNL1        0.0211
     15 C          -1.5818  -18.5781   21.7556 C.ar    1  UNL1        0.0136
     16 C          -1.2433  -18.1859   20.3479 C.ar    1  UNL1        0.0683
     17 CL          0.1699  -17.8374   19.9857 Cl      1  UNL1       -0.0814
     18 C          -2.3181  -18.1422   19.3025 C.ar    1  UNL1        0.0695
     19 CL         -1.9796  -17.7500   17.8948 Cl      1  UNL1       -0.0813
     20 C          -3.7314  -18.4907   19.6647 C.ar    1  UNL1        0.0324
     21 O          -9.4101  -17.9441   21.8692 O.3     1  UNL1       -0.4350
     22 C         -11.8215  -16.9941   22.0506 C.ar    1  UNL1        0.0486
     23 C         -13.1484  -16.9428   22.7482 C.ar    1  UNL1        0.0042
     24 C         -13.3909  -17.7902   23.9619 C.ar    1  UNL1        0.0002
     25 C         -12.3065  -18.6888   24.4781 C.ar    1  UNL1        0.0031
     26 C         -10.9796  -18.7402   23.7805 C.ar    1  UNL1        0.0376
     27 C         -10.7371  -17.8928   22.5668 C.ar    1  UNL1        0.1482
     28 O         -12.6220  -16.0594   19.7625 O.co2   1  UNL1       -0.5445
     29 C         -11.5789  -16.1467   20.8369 C.2     1  UNL1        0.0758
     30 O         -10.2933  -15.3866   20.6975 O.co2   1  UNL1       -0.5445
@<TRIPOS>UNITY_ATOM_ATTR
28 1
charge -1
@<TRIPOS>BOND
     1    28    29   ar
     2    29    30   ar
     3    29    22    1
     4    22    23   ar
     5    23    24   ar
     6    24    25   ar
     7    25    26   ar
     8    26    27   ar
     9    27    21    1
    10    21     1    1
    11     1     2   ar
    12     2     3   ar
    13     3     4   ar
    14     4     5    1
    15     4     6   ar
    16     6     7   ar
    17     7     8    1
    18     8    10    1
    19    10    11    2
    20    10    12    2
    21    10    13    1
    22    13    14   ar
    23    14    15   ar
    24    15    16   ar
    25    16    17    1
    26    16    18   ar
    27    18    19    1
    28    18    20   ar
    29    27    22   ar
    30     7     1   ar
    31    20    13   ar
    32     8     9    1
@<TRIPOS>MOLECULE
*****
 30 32 0 0 0
SMALL
GASTEIGER

@<TRIPOS>ATOM
      1 C          -8.0031  -17.3103   21.8738 C.ar    1  UNL1        0.2445
      2 N          -9.1361  -16.3741   21.5740 N.ar    1  UNL1       -0.2078
      3 C         -10.3960  -16.8970   20.9500 C.ar    1  UNL1        0.1135
      4 C         -10.5228  -18.3560   20.6259 C.ar    1  UNL1        0.0783
      5 CL        -11.7827  -18.8789   20.0020 Cl      1  UNL1       -0.0806
      6 C          -9.3899  -19.2922   20.9257 C.ar    1  UNL1        0.0336
      7 C          -8.1299  -18.7693   21.5496 C.ar    1  UNL1        0.1190
      8 N          -6.9970  -19.7055   21.8494 N.pl3   1  UNL1       -0.2104
      9 H          -7.1669  -20.5438   22.3369 H       1  UNL1        0.1739
     10 S          -5.6050  -19.3645   21.4065 S.O2    1  UNL1        0.0737
     11 O          -6.1380  -18.9131   20.0790 O.2     1  UNL1       -0.1499
     12 O          -5.0720  -19.8158   22.7340 O.2     1  UNL1       -0.1499
     13 C          -4.2131  -19.0234   20.9636 C.ar    1  UNL1        0.1261
     14 C          -3.0431  -19.3641   21.8383 C.ar    1  UNL1        0.0211
     15 C          -1.6511  -19.0230   21.3954 C.ar    1  UNL1        0.0136
     16 C          -1.4291  -18.3413   20.0779 C.ar    1  UNL1        0.0683
     17 CL         -0.0372  -18.0003   19.6350 Cl      1  UNL1       -0.0814
     18 C          -2.5992  -18.0007   19.2031 C.ar    1  UNL1        0.0695
     19 CL         -2.3772  -17.3190   17.8856 Cl      1  UNL1       -0.0813
     20 C          -3.9911  -18.3417   19.6460 C.ar    1  UNL1        0.0324
     21 O          -6.7432  -16.7874   22.4977 O.3     1  UNL1       -0.4350
     22 C          -5.4694  -16.2337   24.6933 C.ar    1  UNL1        0.0486
     23 C          -5.4785  -15.7574   26.1156 C.ar    1  UNL1        0.0042
     24 C          -6.7707  -15.3585   26.7647 C.ar    1  UNL1        0.0002
     25 C          -8.0536  -15.4360   25.9915 C.ar    1  UNL1        0.0031
     26 C          -8.0445  -15.9123   24.5692 C.ar    1  UNL1        0.0376
     27 C          -6.7523  -16.3111   23.9201 C.ar    1  UNL1        0.1482
     28 O          -3.7107  -15.9263   22.8059 O.co2   1  UNL1       -0.5445
     29 C          -4.1772  -16.6325   24.0442 C.2     1  UNL1        0.0758
     30 O          -3.3516  -17.7375   24.6335 O.co2   1  UNL1       -0.5445
@<TRIPOS>UNITY_ATOM_ATTR
28 1
charge -1
@<TRIPOS>BOND
     1    28    29   ar
     2    29    30   ar
     3    29    22    1
     4    22    23   ar
     5    23    24   ar
     6    24    25   ar
     7    25    26   ar
     8    26    27   ar
     9    27    21    1
    10    21     1    1
    11     1     2   ar
    12     2     3   ar
    13     3     4   ar
    14     4     5    1
    15     4     6   ar
    16     6     7   ar
    17     7     8    1
    18     8    10    1
    19    10    11    2
    20    10    12    2
    21    10    13    1
    22    13    14   ar
    23    14    15   ar
    24    15    16   ar
    25    16    17    1
    26    16    18   ar
    27    18    19    1
    28    18    20   ar
    29    27    22   ar
    30     7     1   ar
    31    20    13   ar
    32     8     9    1
@<TRIPOS>MOLECULE
*****
 30 32 0 0 0
SMALL
GASTEIGER

@<TRIPOS>ATOM
      1 C          -9.5166  -17.4481   22.9415 C.ar    1  UNL1        0.2445
      2 N         -10.4020  -16.2720   23.2296 N.ar    1  UNL1       -0.2078
      3 C         -11.4655  -15.8757   22.2489 C.ar    1  UNL1        0.1135
      4 C         -11.6436  -16.6555   20.9799 C.ar    1  UNL1        0.0783
      5 CL        -12.7071  -16.2592   19.9992 Cl      1  UNL1       -0.0806
      6 C         -10.7583  -17.8315   20.6917 C.ar    1  UNL1        0.0336
      7 C          -9.6947  -18.2278   21.6725 C.ar    1  UNL1        0.1190
      8 N          -8.8094  -19.4039   21.3843 N.pl3   1  UNL1       -0.2104
      9 H          -9.2067  -20.2851   21.1980 H       1  UNL1        0.1739
     10 S          -7.3187  -19.2372   21.3800 S.O2    1  UNL1        0.0737
     11 O          -7.1866  -20.3941   22.3255 O.2     1  UNL1       -0.1499
     12 O          -7.4508  -18.0803   20.4344 O.2     1  UNL1       -0.1499
     13 C          -5.8280  -19.0705   21.3756 C.ar    1  UNL1        0.1261
     14 C          -5.0870  -18.9142   22.6704 C.ar    1  UNL1        0.0211
     15 C          -3.5963  -18.7475   22.6661 C.ar    1  UNL1        0.0136
     16 C          -2.8466  -18.7372   21.3670 C.ar    1  UNL1        0.0683
     17 CL         -1.3559  -18.5705   21.3626 Cl      1  UNL1       -0.0814
     18 C          -3.5875  -18.8935   20.0721 C.ar    1  UNL1        0.0695
     19 CL         -2.8378  -18.8832   18.7730 Cl      1  UNL1       -0.0813
     20 C          -5.0782  -19.0602   20.0764 C.ar    1  UNL1        0.0324
     21 O          -8.4531  -17.8444   23.9222 O.3     1  UNL1       -0.4350
     22 C          -7.1775  -15.8253   24.9451 C.ar    1  UNL1        0.0486
     23 C          -6.8714  -14.9411   26.1174 C.ar    1  UNL1        0.0042
     24 C          -7.5346  -15.1917   27.4393 C.ar    1  UNL1        0.0002
     25 C          -8.5040  -16.3265   27.5888 C.ar    1  UNL1        0.0031
     26 C          -8.8101  -17.2107   26.4164 C.ar    1  UNL1        0.0376
     27 C          -8.1469  -16.9601   25.0946 C.ar    1  UNL1        0.1482
     28 O          -5.0232  -15.6817   23.5000 O.co2   1  UNL1       -0.5445
     29 C          -6.5143  -15.5746   23.6232 C.2     1  UNL1        0.0758
     30 O          -7.3421  -15.2169   22.4246 O.co2   1  UNL1       -0.5445
@<TRIPOS>UNITY_ATOM_ATTR
28 1
charge -1
@<TRIPOS>BOND
     1    28    29   ar
     2    29    30   ar
     3    29    22    1
     4    22    23   ar
     5    23    24   ar
     6    24    25   ar
     7    25    26   ar
     8    26    27   ar
     9    27    21    1
    10    21     1    1
    11     1     2   ar
    12     2     3   ar
    13     3     4   ar
    14     4     5    1
    15     4     6   ar
    16     6     7   ar
    17     7     8    1
    18     8    10    1
    19    10    11    2
    20    10    12    2
    21    10    13    1
    22    13    14   ar
    23    14    15   ar
    24    15    16   ar
    25    16    17    1
    26    16    18   ar
    27    18    19    1
    28    18    20   ar
    29    27    22   ar
    30     7     1   ar
    31    20    13   ar
    32     8     9    1
@<TRIPOS>MOLECULE
*****
 30 32 0 0 0
SMALL
GASTEIGER

@<TRIPOS>ATOM
      1 C          -8.8449  -19.1470   19.9969 C.ar    1  UNL1        0.2445
      2 N          -8.3897  -20.4786   19.4776 N.ar    1  UNL1       -0.2078
      3 C          -6.9655  -20.9101   19.6660 C.ar    1  UNL1        0.1135
      4 C          -5.9965  -20.0100   20.3736 C.ar    1  UNL1        0.0783
      5 CL         -4.5723  -20.4414   20.5620 Cl      1  UNL1       -0.0806
      6 C          -6.4516  -18.6784   20.8929 C.ar    1  UNL1        0.0336
      7 C          -7.8758  -18.2468   20.7046 C.ar    1  UNL1        0.1190
      8 N          -8.3310  -16.9153   21.2238 N.pl3   1  UNL1       -0.2104
      9 H          -8.8288  -16.3018   20.6364 H       1  UNL1        0.1739
     10 S          -8.0276  -16.5183   22.6382 S.O2    1  UNL1        0.0737
     11 O          -8.6493  -17.7920   23.1291 O.2     1  UNL1       -0.1499
     12 O          -7.4059  -15.2445   22.1473 O.2     1  UNL1       -0.1499
     13 C          -7.7242  -16.1213   24.0525 C.ar    1  UNL1        0.1261
     14 C          -8.7964  -16.1957   25.0988 C.ar    1  UNL1        0.0211
     15 C          -8.4931  -15.7987   26.5131 C.ar    1  UNL1        0.0136
     16 C          -7.1175  -15.3273   26.8812 C.ar    1  UNL1        0.0683
     17 CL         -6.8141  -14.9303   28.2955 Cl      1  UNL1       -0.0814
     18 C          -6.0452  -15.2528   25.8349 C.ar    1  UNL1        0.0695
     19 CL         -4.6696  -14.7814   26.2029 Cl      1  UNL1       -0.0813
     20 C          -6.3486  -15.6498   24.4205 C.ar    1  UNL1        0.0324
     21 O         -10.2690  -18.7155   19.8085 O.3     1  UNL1       -0.4350
     22 C         -11.7404  -17.0091   21.1021 C.ar    1  UNL1        0.0486
     23 C         -12.5822  -16.6604   22.2936 C.ar    1  UNL1        0.0042
     24 C         -12.7946  -17.6694   23.3830 C.ar    1  UNL1        0.0002
     25 C         -12.1652  -19.0271   23.2809 C.ar    1  UNL1        0.0031
     26 C         -11.3234  -19.3757   22.0894 C.ar    1  UNL1        0.0376
     27 C         -11.1109  -18.3667   21.0000 C.ar    1  UNL1        0.1482
     28 O         -12.6001  -15.7625   18.9910 O.co2   1  UNL1       -0.5445
     29 C         -11.5279  -16.0001   20.0127 C.2     1  UNL1        0.0758
     30 O         -10.2433  -15.2286   19.9451 O.co2   1  UNL1       -0.5445
@<TRIPOS>UNITY_ATOM_ATTR
28 1
charge -1
@<TRIPOS>BOND
     1    28    29   ar
     2    29    30   ar
     3    29    22    1
     4    22    23   ar
     5    23    24   ar
     6    24    25   ar
     7    25    26   ar
     8    26    27   ar
     9    27    21    1
    10    21     1    1
    11     1     2   ar
    12     2     3   ar
    13     3     4   ar
    14     4     5    1
    15     4     6   ar
    16     6     7   ar
    17     7     8    1
    18     8    10    1
    19    10    11    2
    20    10    12    2
    21    10    13    1
    22    13    14   ar
    23    14    15   ar
    24    15    16   ar
    25    16    17    1
    26    16    18   ar
    27    18    19    1
    28    18    20   ar
    29    27    22   ar
    30     7     1   ar
    31    20    13   ar
    32     8     9    1
@<TRIPOS>MOLECULE
*****
 30 32 0 0 0
SMALL
GASTEIGER

@<TRIPOS>ATOM
      1 C          -4.1506  -17.5576   22.0811 C.ar    1  UNL1        0.2445
      2 N          -3.2709  -16.3551   22.2554 N.ar    1  UNL1       -0.2078
      3 C          -1.9239  -16.3096   21.5972 C.ar    1  UNL1        0.1135
      4 C          -1.4564  -17.4664   20.7647 C.ar    1  UNL1        0.0783
      5 CL         -0.1093  -17.4209   20.1064 Cl      1  UNL1       -0.0806
      6 C          -2.3360  -18.6689   20.5903 C.ar    1  UNL1        0.0336
      7 C          -3.6831  -18.7145   21.2486 C.ar    1  UNL1        0.1190
      8 N          -4.5627  -19.9169   21.0742 N.pl3   1  UNL1       -0.2104
      9 H          -4.1612  -20.8105   20.9765 H       1  UNL1        0.1739
     10 S          -6.0540  -19.7579   21.0489 S.O2    1  UNL1        0.0737
     11 O          -5.9391  -18.8717   19.8441 O.2     1  UNL1       -0.1499
     12 O          -6.1690  -20.6441   22.2536 O.2     1  UNL1       -0.1499
     13 C          -7.5454  -19.5989   21.0235 C.ar    1  UNL1        0.1261
     14 C          -8.2445  -19.2863   19.7337 C.ar    1  UNL1        0.0211
     15 C          -9.7358  -19.1273   19.7083 C.ar    1  UNL1        0.0136
     16 C         -10.5280  -19.2809   20.9727 C.ar    1  UNL1        0.0683
     17 CL        -12.0194  -19.1219   20.9473 Cl      1  UNL1       -0.0814
     18 C          -9.8290  -19.5935   22.2626 C.ar    1  UNL1        0.0695
     19 CL        -10.6212  -19.7471   23.5270 Cl      1  UNL1       -0.0813
     20 C          -8.3376  -19.7525   22.2880 C.ar    1  UNL1        0.0324
     21 O          -5.4977  -17.6032   22.7393 O.3     1  UNL1       -0.4350
     22 C          -7.1214  -16.0153   24.0012 C.ar    1  UNL1        0.0486
     23 C          -7.4173  -15.1186   25.1666 C.ar    1  UNL1        0.0042
     24 C          -6.3855  -14.9131   26.2358 C.ar    1  UNL1        0.0002
     25 C          -5.0578  -15.6043   26.1395 C.ar    1  UNL1        0.0031
     26 C          -4.7618  -16.5010   24.9741 C.ar    1  UNL1        0.0376
     27 C          -5.7936  -16.7065   23.9049 C.ar    1  UNL1        0.1482
     28 O          -9.5836  -16.4701   23.3081 O.co2   1  UNL1       -0.5445
     29 C          -8.1532  -16.2207   22.9320 C.2     1  UNL1        0.0758
     30 O          -7.7545  -16.1768   21.4866 O.co2   1  UNL1       -0.5445
@<TRIPOS>UNITY_ATOM_ATTR
28 1
charge -1
@<TRIPOS>BOND
     1    28    29   ar
     2    29    30   ar
     3    29    22    1
     4    22    23   ar
     5    23    24   ar
     6    24    25   ar
     7    25    26   ar
     8    26    27   ar
     9    27    21    1
    10    21     1    1
    11     1     2   ar
    12     2     3   ar
    13     3     4   ar
    14     4     5    1
    15     4     6   ar
    16     6     7   ar
    17     7     8    1
    18     8    10    1
    19    10    11    2
    20    10    12    2
    21    10    13    1
    22    13    14   ar
    23    14    15   ar
    24    15    16   ar
    25    16    17    1
    26    16    18   ar
    27    18    19    1
    28    18    20   ar
    29    27    22   ar
    30     7     1   ar
    31    20    13   ar
    32     8     9    1
@<TRIPOS>MOLECULE
*****
 30 32 0 0 0
SMALL
GASTEIGER

@<TRIPOS>ATOM
      1 C          -4.4929  -17.9487   23.7047 C.ar    1  UNL1        0.2445
      2 N          -3.6153  -17.6830   24.8918 N.ar    1  UNL1       -0.2078
      3 C          -3.9691  -16.5901   25.8564 C.ar    1  UNL1        0.1135
      4 C          -5.2004  -15.7629   25.6339 C.ar    1  UNL1        0.0783
      5 CL         -5.5542  -14.6700   26.5985 Cl      1  UNL1       -0.0806
      6 C          -6.0780  -16.0286   24.4468 C.ar    1  UNL1        0.0336
      7 C          -5.7243  -17.1215   23.4822 C.ar    1  UNL1        0.1190
      8 N          -6.6019  -17.3872   22.2951 N.pl3   1  UNL1       -0.2104
      9 H          -6.2033  -17.4839   21.4001 H       1  UNL1        0.1739
     10 S          -8.0868  -17.5055   22.4717 S.O2    1  UNL1        0.0737
     11 O          -8.2660  -16.1387   21.8801 O.2     1  UNL1       -0.1499
     12 O          -7.9076  -18.8722   23.0632 O.2     1  UNL1       -0.1499
     13 C          -9.5716  -17.6237   22.6482 C.ar    1  UNL1        0.1261
     14 C         -10.1301  -18.3821   23.8157 C.ar    1  UNL1        0.0211
     15 C         -11.6150  -18.5004   23.9922 C.ar    1  UNL1        0.0136
     16 C         -12.5414  -17.8603   23.0013 C.ar    1  UNL1        0.0683
     17 CL        -14.0263  -17.9786   23.1778 Cl      1  UNL1       -0.0814
     18 C         -11.9830  -17.1019   21.8337 C.ar    1  UNL1        0.0695
     19 CL        -12.9094  -16.4618   20.8428 Cl      1  UNL1       -0.0813
     20 C         -10.4981  -16.9836   21.6572 C.ar    1  UNL1        0.0324
     21 O          -4.1392  -19.0416   22.7401 O.3     1  UNL1       -0.4350
     22 C          -3.8365  -19.0194   20.1598 C.ar    1  UNL1        0.0486
     23 C          -3.0009  -18.7127   18.9525 C.ar    1  UNL1        0.0042
     24 C          -1.6323  -18.1214   19.1181 C.ar    1  UNL1        0.0002
     25 C          -1.0994  -17.8368   20.4910 C.ar    1  UNL1        0.0031
     26 C          -1.9350  -18.1436   21.6983 C.ar    1  UNL1        0.0376
     27 C          -3.3035  -18.7348   21.5327 C.ar    1  UNL1        0.1482
     28 O          -6.3790  -18.7188   19.7183 O.co2   1  UNL1       -0.5445
     29 C          -5.2050  -19.6107   19.9942 C.2     1  UNL1        0.0758
     30 O          -5.3996  -21.0939   20.1044 O.co2   1  UNL1       -0.5445
@<TRIPOS>UNITY_ATOM_ATTR
28 1
charge -1
@<TRIPOS>BOND
     1    28    29   ar
     2    29    30   ar
     3    29    22    1
     4    22    23   ar
     5    23    24   ar
     6    24    25   ar
     7    25    26   ar
     8    26    27   ar
     9    27    21    1
    10    21     1    1
    11     1     2   ar
    12     2     3   ar
    13     3     4   ar
    14     4     5    1
    15     4     6   ar
    16     6     7   ar
    17     7     8    1
    18     8    10    1
    19    10    11    2
    20    10    12    2
    21    10    13    1
    22    13    14   ar
    23    14    15   ar
    24    15    16   ar
    25    16    17    1
    26    16    18   ar
    27    18    19    1
    28    18    20   ar
    29    27    22   ar
    30     7     1   ar
    31    20    13   ar
    32     8     9    1
@<TRIPOS>MOLECULE
*****
 30 32 0 0 0
SMALL
GASTEIGER

@<TRIPOS>ATOM
      1 C          -8.4366  -17.4195   23.3806 C.ar    1  UNL1        0.2445
      2 N          -8.9127  -16.3150   24.2770 N.ar    1  UNL1       -0.2078
      3 C          -7.9195  -15.4158   24.9515 C.ar    1  UNL1        0.1135
      4 C          -6.4503  -15.6210   24.7296 C.ar    1  UNL1        0.0783
      5 CL         -5.4571  -14.7218   25.4040 Cl      1  UNL1       -0.0806
      6 C          -5.9742  -16.7255   23.8332 C.ar    1  UNL1        0.0336
      7 C          -6.9674  -17.6248   23.1586 C.ar    1  UNL1        0.1190
      8 N          -6.4913  -18.7292   22.2623 N.pl3   1  UNL1       -0.2104
      9 H          -7.0865  -19.4852   22.0540 H       1  UNL1        0.1739
     10 S          -5.1084  -18.6817   21.6832 S.O2    1  UNL1        0.0737
     11 O          -4.5351  -19.0342   23.0238 O.2     1  UNL1       -0.1499
     12 O          -5.6818  -18.3293   20.3427 O.2     1  UNL1       -0.1499
     13 C          -3.7255  -18.6343   21.1042 C.ar    1  UNL1        0.1261
     14 C          -2.5466  -19.0260   21.9448 C.ar    1  UNL1        0.0211
     15 C          -1.1637  -18.9786   21.3658 C.ar    1  UNL1        0.0136
     16 C          -0.9597  -18.5394   19.9461 C.ar    1  UNL1        0.0683
     17 CL          0.4233  -18.4920   19.3671 Cl      1  UNL1       -0.0814
     18 C          -2.1386  -18.1477   19.1054 C.ar    1  UNL1        0.0695
     19 CL         -1.9346  -17.7086   17.6857 Cl      1  UNL1       -0.0813
     20 C          -3.5215  -18.1952   19.6844 C.ar    1  UNL1        0.0324
     21 O          -9.4298  -18.3188   22.7061 O.3     1  UNL1       -0.4350
     22 C         -11.8258  -17.5049   22.1171 C.ar    1  UNL1        0.0486
     23 C         -13.2830  -17.4018   22.4574 C.ar    1  UNL1        0.0042
     24 C         -13.8015  -18.0093   23.7271 C.ar    1  UNL1        0.0002
     25 C         -12.8628  -18.7200   24.6564 C.ar    1  UNL1        0.0031
     26 C         -11.4056  -18.8231   24.3161 C.ar    1  UNL1        0.0376
     27 C         -10.8871  -18.2156   23.0464 C.ar    1  UNL1        0.1482
     28 O         -10.3220  -15.7679   20.9041 O.co2   1  UNL1       -0.5445
     29 C         -11.3074  -16.8974   20.8474 C.2     1  UNL1        0.0758
     30 O         -11.7742  -17.4194   19.5209 O.co2   1  UNL1       -0.5445
@<TRIPOS>UNITY_ATOM_ATTR
28 1
charge -1
@<TRIPOS>BOND
     1    28    29   ar
     2    29    30   ar
     3    29    22    1
     4    22    23   ar
     5    23    24   ar
     6    24    25   ar
     7    25    26   ar
     8    26    27   ar
     9    27    21    1
    10    21     1    1
    11     1     2   ar
    12     2     3   ar
    13     3     4   ar
    14     4     5    1
    15     4     6   ar
    16     6     7   ar
    17     7     8    1
    18     8    10    1
    19    10    11    2
    20    10    12    2
    21    10    13    1
    22    13    14   ar
    23    14    15   ar
    24    15    16   ar
    25    16    17    1
    26    16    18   ar
    27    18    19    1
    28    18    20   ar
    29    27    22   ar
    30     7     1   ar
    31    20    13   ar
    32     8     9    1
@<TRIPOS>MOLECULE
*****
 30 32 0 0 0
SMALL
GASTEIGER

@<TRIPOS>ATOM
      1 C          -4.9348  -16.6235   23.7933 C.ar    1  UNL1        0.2445
      2 N          -4.2045  -16.8291   25.0874 N.ar    1  UNL1       -0.2078
      3 C          -4.8031  -16.3390   26.3725 C.ar    1  UNL1        0.1135
      4 C          -6.1320  -15.6434   26.3636 C.ar    1  UNL1        0.0783
      5 CL         -6.7305  -15.1533   27.6487 Cl      1  UNL1       -0.0806
      6 C          -6.8623  -15.4378   25.0697 C.ar    1  UNL1        0.0336
      7 C          -6.2637  -15.9278   23.7845 C.ar    1  UNL1        0.1190
      8 N          -6.9941  -15.7223   22.4906 N.pl3   1  UNL1       -0.2104
      9 H          -6.5446  -15.2754   21.7373 H       1  UNL1        0.1739
     10 S          -8.4092  -16.1976   22.3444 S.O2    1  UNL1        0.0737
     11 O          -8.6478  -15.1619   21.2859 O.2     1  UNL1       -0.1499
     12 O          -8.1707  -17.2333   23.4029 O.2     1  UNL1       -0.1499
     13 C          -9.8244  -16.6729   22.1982 C.ar    1  UNL1        0.1261
     14 C         -10.5462  -16.4904   20.8960 C.ar    1  UNL1        0.0211
     15 C         -11.9613  -16.9657   20.7498 C.ar    1  UNL1        0.0136
     16 C         -12.6547  -17.6236   21.9058 C.ar    1  UNL1        0.0683
     17 CL        -14.0699  -18.0989   21.7596 Cl      1  UNL1       -0.0814
     18 C         -11.9330  -17.8062   23.2080 C.ar    1  UNL1        0.0695
     19 CL        -12.6264  -18.4641   24.3640 Cl      1  UNL1       -0.0813
     20 C         -10.5178  -17.3309   23.3542 C.ar    1  UNL1        0.0324
     21 O          -4.3362  -17.1135   22.5083 O.3     1  UNL1       -0.4350
     22 C          -3.9966  -19.0564   20.8171 C.ar    1  UNL1        0.0486
     23 C          -4.4479  -20.3602   20.2287 C.ar    1  UNL1        0.0042
     24 C          -5.6902  -21.0252   20.7431 C.ar    1  UNL1        0.0002
     25 C          -6.4811  -20.3863   21.8459 C.ar    1  UNL1        0.0031
     26 C          -6.0298  -19.0824   22.4343 C.ar    1  UNL1        0.0376
     27 C          -4.7876  -18.4175   21.9198 C.ar    1  UNL1        0.1482
     28 O          -2.8612  -17.1961   19.4028 O.co2   1  UNL1       -0.5445
     29 C          -2.7544  -18.3914   20.3026 C.2     1  UNL1        0.0758
     30 O          -1.4053  -18.9218   20.6880 O.co2   1  UNL1       -0.5445
@<TRIPOS>UNITY_ATOM_ATTR
28 1
charge -1
@<TRIPOS>BOND
     1    28    29   ar
     2    29    30   ar
     3    29    22    1
     4    22    23   ar
     5    23    24   ar
     6    24    25   ar
     7    25    26   ar
     8    26    27   ar
     9    27    21    1
    10    21     1    1
    11     1     2   ar
    12     2     3   ar
    13     3     4   ar
    14     4     5    1
    15     4     6   ar
    16     6     7   ar
    17     7     8    1
    18     8    10    1
    19    10    11    2
    20    10    12    2
    21    10    13    1
    22    13    14   ar
    23    14    15   ar
    24    15    16   ar
    25    16    17    1
    26    16    18   ar
    27    18    19    1
    28    18    20   ar
    29    27    22   ar
    30     7     1   ar
    31    20    13   ar
    32     8     9    1
@<TRIPOS>MOLECULE
*****
 30 32 0 0 0
SMALL
GASTEIGER

@<TRIPOS>ATOM
      1 C          -8.3835  -17.1790   23.1857 C.ar    1  UNL1        0.2445
      2 N          -8.8652  -16.0144   23.9993 N.ar    1  UNL1       -0.2078
      3 C          -7.8825  -15.1691   24.7540 C.ar    1  UNL1        0.1135
      4 C          -6.4180  -15.4882   24.6951 C.ar    1  UNL1        0.0783
      5 CL         -5.4353  -14.6429   25.4498 Cl      1  UNL1       -0.0806
      6 C          -5.9363  -16.6527   23.8816 C.ar    1  UNL1        0.0336
      7 C          -6.9191  -17.4981   23.1269 C.ar    1  UNL1        0.1190
      8 N          -6.4373  -18.6626   22.3134 N.pl3   1  UNL1       -0.2104
      9 H          -7.0250  -19.4393   22.1695 H       1  UNL1        0.1739
     10 S          -5.0602  -18.6439   21.7191 S.O2    1  UNL1        0.0737
     11 O          -5.6399  -18.2680   20.3877 O.2     1  UNL1       -0.1499
     12 O          -4.4805  -19.0198   23.0505 O.2     1  UNL1       -0.1499
     13 C          -3.6831  -18.6251   21.1248 C.ar    1  UNL1        0.1261
     14 C          -2.5063  -19.0642   21.9448 C.ar    1  UNL1        0.0211
     15 C          -1.1292  -19.0455   21.3505 C.ar    1  UNL1        0.0136
     16 C          -0.9288  -18.5876   19.9363 C.ar    1  UNL1        0.0683
     17 CL          0.4483  -18.5689   19.3420 Cl      1  UNL1       -0.0814
     18 C          -2.1056  -18.1485   19.1162 C.ar    1  UNL1        0.0695
     19 CL         -1.9052  -17.6906   17.7020 Cl      1  UNL1       -0.0813
     20 C          -3.4827  -18.1672   19.7105 C.ar    1  UNL1        0.0324
     21 O          -9.3663  -18.0243   22.4310 O.3     1  UNL1       -0.4350
     22 C         -11.2045  -18.6759   24.1476 C.ar    1  UNL1        0.0486
     23 C         -12.6462  -18.6996   24.5608 C.ar    1  UNL1        0.0042
     24 C         -13.6915  -18.0952   23.6708 C.ar    1  UNL1        0.0002
     25 C         -13.2951  -17.4673   22.3675 C.ar    1  UNL1        0.0031
     26 C         -11.8534  -17.4436   21.9543 C.ar    1  UNL1        0.0376
     27 C         -10.8081  -18.0480   22.8443 C.ar    1  UNL1        0.1482
     28 O          -9.5452  -18.4630   26.1354 O.co2   1  UNL1       -0.5445
     29 C         -10.1592  -19.2802   25.0376 C.2     1  UNL1        0.0758
     30 O          -9.7278  -20.7017   24.8298 O.co2   1  UNL1       -0.5445
@<TRIPOS>UNITY_ATOM_ATTR
28 1
charge -1
@<TRIPOS>BOND
     1    28    29   ar
     2    29    30   ar
     3    29    22    1
     4    22    23   ar
     5    23    24   ar
     6    24    25   ar
     7    25    26   ar
     8    26    27   ar
     9    27    21    1
    10    21     1    1
    11     1     2   ar
    12     2     3   ar
    13     3     4   ar
    14     4     5    1
    15     4     6   ar
    16     6     7   ar
    17     7     8    1
    18     8    10    1
    19    10    11    2
    20    10    12    2
    21    10    13    1
    22    13    14   ar
    23    14    15   ar
    24    15    16   ar
    25    16    17    1
    26    16    18   ar
    27    18    19    1
    28    18    20   ar
    29    27    22   ar
    30     7     1   ar
    31    20    13   ar
    32     8     9    1
