@<TRIPOS>MOLECULE
*****
 25 27 0 0 0
SMALL
GASTEIGER

@<TRIPOS>ATOM
      1 C          -7.7994  -16.7811   23.5558 C.ar    1  UNL1        0.2119
      2 C          -8.6190  -17.9380   23.0660 C.ar    1  UNL1        0.1821
      3 O          -7.9660  -19.0464   22.2946 O.2     1  UNL1       -0.4500
      4 C          -6.4934  -18.9979   22.0131 C.ar    1  UNL1        0.1545
      5 C          -5.8404  -20.1063   21.2418 C.ar    1  UNL1        0.0744
      6 C          -4.3679  -20.0578   20.9602 C.ar    1  UNL1        0.1397
      7 O          -3.7148  -21.1663   20.1889 O.3     1  UNL1       -0.5053
      8 C          -3.5484  -18.9009   21.4500 C.ar    1  UNL1        0.0735
      9 C          -4.2013  -17.7925   22.2214 C.ar    1  UNL1        0.1428
     10 O          -3.3818  -16.6356   22.7112 O.3     1  UNL1       -0.5052
     11 C          -5.6738  -17.8410   22.5029 C.ar    1  UNL1        0.1104
     12 C          -6.3269  -16.7326   23.2742 C.ar    1  UNL1        0.2381
     13 O          -5.5074  -15.5756   23.7640 O.2     1  UNL1       -0.2830
     14 H          -4.2268  -21.8890   19.8829 H       1  UNL1        0.2922
     15 H          -2.4620  -16.6053   22.5353 H       1  UNL1        0.2922
     16 C         -10.0916  -17.9864   23.3475 C.ar    1  UNL1        0.0379
     17 C         -10.6106  -18.8131   24.4865 C.ar    1  UNL1        0.0062
     18 C         -12.0831  -18.8615   24.7680 C.ar    1  UNL1        0.0367
     19 C         -13.0366  -18.0833   23.9105 C.ar    1  UNL1        0.1337
     20 O         -14.5092  -18.1317   24.1921 O.3     1  UNL1       -0.5055
     21 C         -12.5176  -17.2566   22.7716 C.ar    1  UNL1        0.0367
     22 C         -11.0451  -17.2082   22.4901 C.ar    1  UNL1        0.0062
     23 H         -14.8334  -18.6481   24.9036 H       1  UNL1        0.2922
     24 C          -8.4181  -15.6809   25.8267 C.3     1  UNL1        0.2528
     25 O          -8.4525  -15.6726   24.3271 O.3     1  UNL1       -0.4653
@<TRIPOS>BOND
     1    24    25    1
     2    25     1    1
     3     1     2   ar
     4     2    16    1
     5    16    17   ar
     6    17    18   ar
     7    18    19   ar
     8    19    20    1
     9    19    21   ar
    10    21    22   ar
    11     2     3   ar
    12     3     4   ar
    13     4     5   ar
    14     5     6   ar
    15     6     7    1
    16     6     8   ar
    17     8     9   ar
    18     9    10    1
    19     9    11   ar
    20    11    12   ar
    21    12    13    2
    22    12     1   ar
    23    22    16   ar
    24    11     4   ar
    25    20    23    1
    26     7    14    1
    27    10    15    1
@<TRIPOS>MOLECULE
*****
 25 27 0 0 0
SMALL
GASTEIGER

@<TRIPOS>ATOM
      1 C          -5.6245  -18.3078   22.4417 C.ar    1  UNL1        0.2119
      2 C          -5.0980  -17.0993   23.1574 C.ar    1  UNL1        0.1821
      3 O          -3.7700  -16.5184   22.7715 O.2     1  UNL1       -0.4500
      4 C          -2.9684  -17.1462   21.6698 C.ar    1  UNL1        0.1545
      5 C          -1.6404  -16.5654   21.2839 C.ar    1  UNL1        0.0744
      6 C          -0.8389  -17.1931   20.1823 C.ar    1  UNL1        0.1397
      7 O           0.4892  -16.6123   19.7964 O.3     1  UNL1       -0.5053
      8 C          -1.3655  -18.4017   19.4667 C.ar    1  UNL1        0.0735
      9 C          -2.6935  -18.9825   19.8526 C.ar    1  UNL1        0.1428
     10 O          -3.2200  -20.1910   19.1370 O.3     1  UNL1       -0.5052
     11 C          -3.4950  -18.3547   20.9542 C.ar    1  UNL1        0.1104
     12 C          -4.8231  -18.9355   21.3402 C.ar    1  UNL1        0.2381
     13 O          -5.3496  -20.1441   20.6245 O.2     1  UNL1       -0.2830
     14 H           0.8181  -15.8574   20.2434 H       1  UNL1        0.2922
     15 H          -2.7193  -20.5832   18.4488 H       1  UNL1        0.2922
     16 C          -5.8996  -16.4715   24.2590 C.ar    1  UNL1        0.0379
     17 C          -7.3265  -16.0775   24.0174 C.ar    1  UNL1        0.0062
     18 C          -8.1280  -15.4498   25.1190 C.ar    1  UNL1        0.0367
     19 C          -7.5025  -15.2161   26.4622 C.ar    1  UNL1        0.1337
     20 O          -8.3041  -14.5883   27.5639 O.3     1  UNL1       -0.5055
     21 C          -6.0755  -15.6101   26.7038 C.ar    1  UNL1        0.0367
     22 C          -5.2740  -16.2378   25.6022 C.ar    1  UNL1        0.0062
     23 H          -9.1955  -14.3422   27.4129 H       1  UNL1        0.2922
     24 C          -8.1280  -18.7504   21.9061 C.3     1  UNL1        0.2528
     25 O          -6.9526  -18.8886   22.8277 O.3     1  UNL1       -0.4653
@<TRIPOS>BOND
     1    24    25    1
     2    25     1    1
     3     1     2   ar
     4     2    16    1
     5    16    17   ar
     6    17    18   ar
     7    18    19   ar
     8    19    20    1
     9    19    21   ar
    10    21    22   ar
    11     2     3   ar
    12     3     4   ar
    13     4     5   ar
    14     5     6   ar
    15     6     7    1
    16     6     8   ar
    17     8     9   ar
    18     9    10    1
    19     9    11   ar
    20    11    12   ar
    21    12    13    2
    22    12     1   ar
    23    22    16   ar
    24    11     4   ar
    25    20    23    1
    26     7    14    1
    27    10    15    1
@<TRIPOS>MOLECULE
*****
 25 27 0 0 0
SMALL
GASTEIGER

@<TRIPOS>ATOM
      1 C         -14.7491   -5.3465   18.8822 C.ar    1  UNL1        0.2119
      2 C         -13.7110   -6.2829   18.3386 C.ar    1  UNL1        0.1821
      3 O         -14.0099   -7.7482   18.2224 O.2     1  UNL1       -0.4500
      4 C         -15.3469   -8.2771   18.6499 C.ar    1  UNL1        0.1545
      5 C         -15.6458   -9.7424   18.5338 C.ar    1  UNL1        0.0744
      6 C         -16.9828  -10.2713   18.9613 C.ar    1  UNL1        0.1397
      7 O         -17.2817  -11.7367   18.8451 O.3     1  UNL1       -0.5053
      8 C         -18.0209   -9.3349   19.5049 C.ar    1  UNL1        0.0735
      9 C         -17.7220   -7.8696   19.6210 C.ar    1  UNL1        0.1428
     10 O         -18.7601   -6.9332   20.1646 O.3     1  UNL1       -0.5052
     11 C         -16.3850   -7.3407   19.1935 C.ar    1  UNL1        0.1104
     12 C         -16.0861   -5.8754   19.3097 C.ar    1  UNL1        0.2381
     13 O         -17.1242   -4.9389   19.8533 O.2     1  UNL1       -0.2830
     14 H         -16.6333  -12.3216   18.5056 H       1  UNL1        0.2922
     15 H         -19.5952   -7.2636   20.4317 H       1  UNL1        0.2922
     16 C         -12.3740   -5.7539   17.9111 C.ar    1  UNL1        0.0379
     17 C         -12.1160   -5.4475   16.4656 C.ar    1  UNL1        0.0062
     18 C         -10.7790   -4.9186   16.0382 C.ar    1  UNL1        0.0367
     19 C          -9.7001   -4.6961   17.0563 C.ar    1  UNL1        0.1337
     20 O          -8.3631   -4.1671   16.6288 O.3     1  UNL1       -0.5055
     21 C          -9.9582   -5.0025   18.5017 C.ar    1  UNL1        0.0367
     22 C         -11.2951   -5.5314   18.9292 C.ar    1  UNL1        0.0062
     23 H          -8.2019   -3.9757   15.7258 H       1  UNL1        0.2922
     24 C         -13.9856   -3.3118   20.3060 C.3     1  UNL1        0.2528
     25 O         -14.4502   -3.8811   18.9983 O.3     1  UNL1       -0.4653
@<TRIPOS>BOND
     1    24    25    1
     2    25     1    1
     3     1     2   ar
     4     2    16    1
     5    16    17   ar
     6    17    18   ar
     7    18    19   ar
     8    19    20    1
     9    19    21   ar
    10    21    22   ar
    11     2     3   ar
    12     3     4   ar
    13     4     5   ar
    14     5     6   ar
    15     6     7    1
    16     6     8   ar
    17     8     9   ar
    18     9    10    1
    19     9    11   ar
    20    11    12   ar
    21    12    13    2
    22    12     1   ar
    23    22    16   ar
    24    11     4   ar
    25    20    23    1
    26     7    14    1
    27    10    15    1
@<TRIPOS>MOLECULE
*****
 25 27 0 0 0
SMALL
GASTEIGER

@<TRIPOS>ATOM
      1 C         -15.3539   -5.7416   19.2628 C.ar    1  UNL1        0.2119
      2 C         -15.2965   -7.2040   18.9339 C.ar    1  UNL1        0.1821
      3 O         -13.9732   -7.8660   18.6876 O.2     1  UNL1       -0.4500
      4 C         -12.7072   -7.0656   18.7703 C.ar    1  UNL1        0.1545
      5 C         -11.3840   -7.7276   18.5241 C.ar    1  UNL1        0.0744
      6 C         -10.1181   -6.9272   18.6068 C.ar    1  UNL1        0.1397
      7 O          -8.7947   -7.5892   18.3605 O.3     1  UNL1       -0.5053
      8 C         -10.1755   -5.4649   18.9357 C.ar    1  UNL1        0.0735
      9 C         -11.4987   -4.8029   19.1819 C.ar    1  UNL1        0.1428
     10 O         -11.5561   -3.3405   19.5109 O.3     1  UNL1       -0.5052
     11 C         -12.7646   -5.6032   19.0992 C.ar    1  UNL1        0.1104
     12 C         -14.0880   -4.9413   19.3455 C.ar    1  UNL1        0.2381
     13 O         -14.1454   -3.4789   19.6744 O.2     1  UNL1       -0.2830
     14 H          -8.7589   -8.5027   18.1550 H       1  UNL1        0.2922
     15 H         -10.7653   -2.8405   19.5625 H       1  UNL1        0.2922
     16 C         -16.5625   -8.0044   18.8512 C.ar    1  UNL1        0.0379
     17 C         -17.2714   -8.4184   20.1065 C.ar    1  UNL1        0.0062
     18 C         -18.5373   -9.2187   20.0238 C.ar    1  UNL1        0.0367
     19 C         -19.0943   -9.6050   18.6857 C.ar    1  UNL1        0.1337
     20 O         -20.3603  -10.4054   18.6030 O.3     1  UNL1       -0.5055
     21 C         -18.3854   -9.1910   17.4303 C.ar    1  UNL1        0.0367
     22 C         -17.1195   -8.3906   17.5131 C.ar    1  UNL1        0.0062
     23 H         -20.8031  -10.6640   19.3872 H       1  UNL1        0.2922
     24 C         -17.3851   -4.3783   18.3879 C.3     1  UNL1        0.2528
     25 O         -16.6772   -5.0796   19.5090 O.3     1  UNL1       -0.4653
@<TRIPOS>BOND
     1    24    25    1
     2    25     1    1
     3     1     2   ar
     4     2    16    1
     5    16    17   ar
     6    17    18   ar
     7    18    19   ar
     8    19    20    1
     9    19    21   ar
    10    21    22   ar
    11     2     3   ar
    12     3     4   ar
    13     4     5   ar
    14     5     6   ar
    15     6     7    1
    16     6     8   ar
    17     8     9   ar
    18     9    10    1
    19     9    11   ar
    20    11    12   ar
    21    12    13    2
    22    12     1   ar
    23    22    16   ar
    24    11     4   ar
    25    20    23    1
    26     7    14    1
    27    10    15    1
@<TRIPOS>MOLECULE
*****
 25 27 0 0 0
SMALL
GASTEIGER

@<TRIPOS>ATOM
      1 C         -14.0233   -7.6603   18.2747 C.ar    1  UNL1        0.2119
      2 C         -14.3640   -6.2140   18.4797 C.ar    1  UNL1        0.1821
      3 O         -15.7202   -5.8281   18.9913 O.2     1  UNL1       -0.4500
      4 C         -16.7358   -6.8886   19.2979 C.ar    1  UNL1        0.1545
      5 C         -18.0920   -6.5027   19.8095 C.ar    1  UNL1        0.0744
      6 C         -19.1075   -7.5631   20.1161 C.ar    1  UNL1        0.1397
      7 O         -20.4638   -7.1773   20.6277 O.3     1  UNL1       -0.5053
      8 C         -18.7669   -9.0095   19.9111 C.ar    1  UNL1        0.0735
      9 C         -17.4107   -9.3954   19.3995 C.ar    1  UNL1        0.1428
     10 O         -17.0700  -10.8417   19.1946 O.3     1  UNL1       -0.5052
     11 C         -16.3951   -8.3349   19.0929 C.ar    1  UNL1        0.1104
     12 C         -15.0389   -8.7208   18.5813 C.ar    1  UNL1        0.2381
     13 O         -14.6982  -10.1671   18.3763 O.2     1  UNL1       -0.2830
     14 H         -20.6766   -6.2738   20.7558 H       1  UNL1        0.2922
     15 H         -17.7044  -11.5042   19.3861 H       1  UNL1        0.2922
     16 C         -13.3483   -5.1535   18.1731 C.ar    1  UNL1        0.0379
     17 C         -13.3949   -4.4273   16.8614 C.ar    1  UNL1        0.0062
     18 C         -12.3793   -3.3669   16.5548 C.ar    1  UNL1        0.0367
     19 C         -11.3172   -3.0326   17.5599 C.ar    1  UNL1        0.1337
     20 O         -10.3015   -1.9722   17.2533 O.3     1  UNL1       -0.5055
     21 C         -11.2706   -3.7588   18.8716 C.ar    1  UNL1        0.0367
     22 C         -12.2862   -4.8192   19.1781 C.ar    1  UNL1        0.0062
     23 H         -10.3306   -1.5185   16.4339 H       1  UNL1        0.2922
     24 C         -12.3836   -8.0131   16.2905 C.3     1  UNL1        0.2528
     25 O         -12.6670   -8.0462   17.7631 O.3     1  UNL1       -0.4653
@<TRIPOS>BOND
     1    24    25    1
     2    25     1    1
     3     1     2   ar
     4     2    16    1
     5    16    17   ar
     6    17    18   ar
     7    18    19   ar
     8    19    20    1
     9    19    21   ar
    10    21    22   ar
    11     2     3   ar
    12     3     4   ar
    13     4     5   ar
    14     5     6   ar
    15     6     7    1
    16     6     8   ar
    17     8     9   ar
    18     9    10    1
    19     9    11   ar
    20    11    12   ar
    21    12    13    2
    22    12     1   ar
    23    22    16   ar
    24    11     4   ar
    25    20    23    1
    26     7    14    1
    27    10    15    1
@<TRIPOS>MOLECULE
*****
 25 27 0 0 0
SMALL
GASTEIGER

@<TRIPOS>ATOM
      1 C         -12.6105   -5.9434   18.9837 C.ar    1  UNL1        0.2119
      2 C         -14.1064   -5.9645   18.8743 C.ar    1  UNL1        0.1821
      3 O         -14.8676   -4.6778   18.7521 O.2     1  UNL1       -0.4500
      4 C         -14.1330   -3.3700   18.7394 C.ar    1  UNL1        0.1545
      5 C         -14.8943   -2.0834   18.6172 C.ar    1  UNL1        0.0744
      6 C         -14.1597   -0.7757   18.6045 C.ar    1  UNL1        0.1397
      7 O         -14.9209    0.5111   18.4823 O.3     1  UNL1       -0.5053
      8 C         -12.6638   -0.7546   18.7139 C.ar    1  UNL1        0.0735
      9 C         -11.9026   -2.0412   18.8361 C.ar    1  UNL1        0.1428
     10 O         -10.4067   -2.0202   18.9455 O.3     1  UNL1       -0.5052
     11 C         -12.6372   -3.3489   18.8488 C.ar    1  UNL1        0.1104
     12 C         -11.8759   -4.6357   18.9710 C.ar    1  UNL1        0.2381
     13 O         -10.3801   -4.6146   19.0804 O.2     1  UNL1       -0.2830
     14 H         -15.8554    0.4980   18.4139 H       1  UNL1        0.2922
     15 H          -9.9479   -1.2033   18.9376 H       1  UNL1        0.2922
     16 C         -14.8410   -7.2723   18.8870 C.ar    1  UNL1        0.0379
     17 C         -15.9669   -7.4907   19.8537 C.ar    1  UNL1        0.0062
     18 C         -16.7014   -8.7984   19.8664 C.ar    1  UNL1        0.0367
     19 C         -16.3100   -9.8878   18.9124 C.ar    1  UNL1        0.1337
     20 O         -17.0446  -11.1956   18.9251 O.3     1  UNL1       -0.5055
     21 C         -15.1841   -9.6694   17.9456 C.ar    1  UNL1        0.0367
     22 C         -14.4496   -8.3616   17.9329 C.ar    1  UNL1        0.0062
     23 H         -17.7479  -11.3320   19.5290 H       1  UNL1        0.2922
     24 C         -10.9023   -7.6473   18.0200 C.3     1  UNL1        0.2528
     25 O         -11.8493   -7.2302   19.1059 O.3     1  UNL1       -0.4653
@<TRIPOS>BOND
     1    24    25    1
     2    25     1    1
     3     1     2   ar
     4     2    16    1
     5    16    17   ar
     6    17    18   ar
     7    18    19   ar
     8    19    20    1
     9    19    21   ar
    10    21    22   ar
    11     2     3   ar
    12     3     4   ar
    13     4     5   ar
    14     5     6   ar
    15     6     7    1
    16     6     8   ar
    17     8     9   ar
    18     9    10    1
    19     9    11   ar
    20    11    12   ar
    21    12    13    2
    22    12     1   ar
    23    22    16   ar
    24    11     4   ar
    25    20    23    1
    26     7    14    1
    27    10    15    1
@<TRIPOS>MOLECULE
*****
 25 27 0 0 0
SMALL
GASTEIGER

@<TRIPOS>ATOM
      1 C          -6.5517  -19.0834   20.9749 C.ar    1  UNL1        0.2119
      2 C          -5.4401  -18.2892   21.5944 C.ar    1  UNL1        0.1821
      3 O          -5.7386  -17.3102   22.6909 O.2     1  UNL1       -0.4500
      4 C          -7.1487  -17.1253   23.1679 C.ar    1  UNL1        0.1545
      5 C          -7.4472  -16.1463   24.2644 C.ar    1  UNL1        0.0744
      6 C          -8.8572  -15.9614   24.7414 C.ar    1  UNL1        0.1397
      7 O          -9.1558  -14.9823   25.8380 O.3     1  UNL1       -0.5053
      8 C          -9.9688  -16.7556   24.1219 C.ar    1  UNL1        0.0735
      9 C          -9.6703  -17.7346   23.0254 C.ar    1  UNL1        0.1428
     10 O         -10.7818  -18.5287   22.4059 O.3     1  UNL1       -0.5052
     11 C          -8.2603  -17.9194   22.5484 C.ar    1  UNL1        0.1104
     12 C          -7.9617  -18.8985   21.4519 C.ar    1  UNL1        0.2381
     13 O          -9.0732  -19.6927   20.8324 O.2     1  UNL1       -0.2830
     14 H          -8.4614  -14.4862   26.2250 H       1  UNL1        0.2922
     15 H         -11.6627  -18.4132   22.7039 H       1  UNL1        0.2922
     16 C          -4.0300  -18.4742   21.1173 C.ar    1  UNL1        0.0379
     17 C          -2.9386  -18.7747   22.1014 C.ar    1  UNL1        0.0062
     18 C          -1.5286  -18.9596   21.6244 C.ar    1  UNL1        0.0367
     19 C          -1.2100  -18.8439   20.1632 C.ar    1  UNL1        0.1337
     20 O           0.2001  -19.0289   19.6861 O.3     1  UNL1       -0.5055
     21 C          -2.3014  -18.5434   19.1790 C.ar    1  UNL1        0.0367
     22 C          -3.7114  -18.3585   19.6561 C.ar    1  UNL1        0.0062
     23 H           0.8818  -19.2166   20.3009 H       1  UNL1        0.2922
     24 C          -5.9240  -21.4869   20.2138 C.3     1  UNL1        0.2528
     25 O          -6.2531  -20.0625   19.8783 O.3     1  UNL1       -0.4653
@<TRIPOS>BOND
     1    24    25    1
     2    25     1    1
     3     1     2   ar
     4     2    16    1
     5    16    17   ar
     6    17    18   ar
     7    18    19   ar
     8    19    20    1
     9    19    21   ar
    10    21    22   ar
    11     2     3   ar
    12     3     4   ar
    13     4     5   ar
    14     5     6   ar
    15     6     7    1
    16     6     8   ar
    17     8     9   ar
    18     9    10    1
    19     9    11   ar
    20    11    12   ar
    21    12    13    2
    22    12     1   ar
    23    22    16   ar
    24    11     4   ar
    25    20    23    1
    26     7    14    1
    27    10    15    1
@<TRIPOS>MOLECULE
*****
 25 27 0 0 0
SMALL
GASTEIGER

@<TRIPOS>ATOM
      1 C         -13.5793   -3.5329   19.1879 C.ar    1  UNL1        0.2119
      2 C         -12.3364   -3.6675   18.3590 C.ar    1  UNL1        0.1821
      3 O         -11.7850   -2.4751   17.6350 O.2     1  UNL1       -0.4500
      4 C         -12.4765   -1.1481   17.7400 C.ar    1  UNL1        0.1545
      5 C         -11.9251    0.0443   17.0160 C.ar    1  UNL1        0.0744
      6 C         -12.6166    1.3712   17.1210 C.ar    1  UNL1        0.1397
      7 O         -12.0652    2.5637   16.3970 O.3     1  UNL1       -0.5053
      8 C         -13.8595    1.5058   17.9499 C.ar    1  UNL1        0.0735
      9 C         -14.4109    0.3134   18.6738 C.ar    1  UNL1        0.1428
     10 O         -15.6538    0.4479   19.5027 O.3     1  UNL1       -0.5052
     11 C         -13.7194   -1.0135   18.5689 C.ar    1  UNL1        0.1104
     12 C         -14.2708   -2.2060   19.2928 C.ar    1  UNL1        0.2381
     13 O         -15.5137   -2.0715   20.1217 O.2     1  UNL1       -0.2830
     14 H         -11.2888    2.4797   15.8792 H       1  UNL1        0.2922
     15 H         -16.0858    1.2768   19.5683 H       1  UNL1        0.2922
     16 C         -11.6449   -4.9945   18.2540 C.ar    1  UNL1        0.0379
     17 C         -10.4206   -5.2693   19.0759 C.ar    1  UNL1        0.0062
     18 C          -9.7292   -6.5962   18.9709 C.ar    1  UNL1        0.0367
     19 C         -10.2621   -7.6484   18.0441 C.ar    1  UNL1        0.1337
     20 O          -9.5706   -8.9754   17.9392 O.3     1  UNL1       -0.5055
     21 C         -11.4864   -7.3736   17.2223 C.ar    1  UNL1        0.0367
     22 C         -12.1778   -6.0466   17.3272 C.ar    1  UNL1        0.0062
     23 H          -8.8058   -9.1470   18.4526 H       1  UNL1        0.2922
     24 C         -15.2901   -5.4827   19.3354 C.3     1  UNL1        0.2528
     25 O         -14.1307   -4.7254   19.9119 O.3     1  UNL1       -0.4653
@<TRIPOS>BOND
     1    24    25    1
     2    25     1    1
     3     1     2   ar
     4     2    16    1
     5    16    17   ar
     6    17    18   ar
     7    18    19   ar
     8    19    20    1
     9    19    21   ar
    10    21    22   ar
    11     2     3   ar
    12     3     4   ar
    13     4     5   ar
    14     5     6   ar
    15     6     7    1
    16     6     8   ar
    17     8     9   ar
    18     9    10    1
    19     9    11   ar
    20    11    12   ar
    21    12    13    2
    22    12     1   ar
    23    22    16   ar
    24    11     4   ar
    25    20    23    1
    26     7    14    1
    27    10    15    1
@<TRIPOS>MOLECULE
*****
 25 27 0 0 0
SMALL
GASTEIGER

@<TRIPOS>ATOM
      1 C         -11.9348   -2.3293   18.0589 C.ar    1  UNL1        0.2119
      2 C         -12.5965   -3.6103   18.4726 C.ar    1  UNL1        0.1821
      3 O         -13.9762   -3.5860   19.0606 O.2     1  UNL1       -0.4500
      4 C         -14.6943   -2.2806   19.2349 C.ar    1  UNL1        0.1545
      5 C         -16.0740   -2.2563   19.8229 C.ar    1  UNL1        0.0744
      6 C         -16.7920   -0.9509   19.9972 C.ar    1  UNL1        0.1397
      7 O         -18.1718   -0.9265   20.5853 O.3     1  UNL1       -0.5053
      8 C         -16.1303    0.3301   19.5835 C.ar    1  UNL1        0.0735
      9 C         -14.7507    0.3058   18.9955 C.ar    1  UNL1        0.1428
     10 O         -14.0890    1.5868   18.5818 O.3     1  UNL1       -0.5052
     11 C         -14.0326   -0.9996   18.8212 C.ar    1  UNL1        0.1104
     12 C         -12.6529   -1.0240   18.2332 C.ar    1  UNL1        0.2381
     13 O         -11.9912    0.2571   17.8194 O.2     1  UNL1       -0.2830
     14 H         -18.5851   -1.7267   20.8437 H       1  UNL1        0.2922
     15 H         -14.5375    2.4022   18.6906 H       1  UNL1        0.2922
     16 C         -11.8784   -4.9157   18.2983 C.ar    1  UNL1        0.0379
     17 C         -10.6897   -5.2380   19.1545 C.ar    1  UNL1        0.0062
     18 C          -9.9717   -6.5433   18.9801 C.ar    1  UNL1        0.0367
     19 C         -10.4423   -7.5264   17.9496 C.ar    1  UNL1        0.1337
     20 O          -9.7242   -8.8319   17.7753 O.3     1  UNL1       -0.5055
     21 C         -11.6310   -7.2042   17.0934 C.ar    1  UNL1        0.0367
     22 C         -12.3491   -5.8989   17.2678 C.ar    1  UNL1        0.0062
     23 H          -8.9817   -9.0331   18.3101 H       1  UNL1        0.2922
     24 C         -10.3748   -2.3839   15.9820 C.3     1  UNL1        0.2528
     25 O         -10.5551   -2.3537   17.4708 O.3     1  UNL1       -0.4653
@<TRIPOS>BOND
     1    24    25    1
     2    25     1    1
     3     1     2   ar
     4     2    16    1
     5    16    17   ar
     6    17    18   ar
     7    18    19   ar
     8    19    20    1
     9    19    21   ar
    10    21    22   ar
    11     2     3   ar
    12     3     4   ar
    13     4     5   ar
    14     5     6   ar
    15     6     7    1
    16     6     8   ar
    17     8     9   ar
    18     9    10    1
    19     9    11   ar
    20    11    12   ar
    21    12    13    2
    22    12     1   ar
    23    22    16   ar
    24    11     4   ar
    25    20    23    1
    26     7    14    1
    27    10    15    1
