@<TRIPOS>MOLECULE
*****
 32 36 0 0 0
SMALL
GASTEIGER

@<TRIPOS>ATOM
      1 C           6.9846   -4.7416   25.3159 C.3     1  UNL1        0.2120
      2 O           7.3983   -6.0526   25.9158 O.3     1  UNL1       -0.4344
      3 C           7.3808   -5.9054   27.4085 C.2     1  UNL1        0.4089
      4 O           7.7271   -6.9728   28.4039 O.2     1  UNL1       -0.2258
      5 N           6.9563   -4.5034   27.7310 N.am    1  UNL1       -0.2164
      6 C           6.7612   -3.7887   29.0353 C.ar    1  UNL1        0.0911
      7 C           7.0061   -4.5080   30.3286 C.ar    1  UNL1        0.0194
      8 C           6.8109   -3.7933   31.6329 C.ar    1  UNL1        0.0164
      9 C           6.3708   -2.3594   31.6438 C.ar    1  UNL1        0.0571
     10 C           6.1259   -1.6401   30.3506 C.ar    1  UNL1        0.0531
     11 C           6.3211   -2.3547   29.0463 C.ar    1  UNL1        0.1535
     12 O           6.0762   -1.6355   27.7530 O.3     1  UNL1       -0.4722
     13 C           6.2714   -2.3501   26.4487 C.3     1  UNL1        0.2293
     14 C           6.7114   -3.7841   26.4377 C.3     1  UNL1        0.1682
     15 N           6.1757   -1.6447   32.9482 N.am    1  UNL1       -0.2539
     16 C           7.2998   -0.8496   33.5433 C.3     1  UNL1        0.1303
     17 C           7.1046   -0.1349   34.8476 C.3     1  UNL1        0.1646
     18 O           5.7853   -0.2154   35.5568 O.3     1  UNL1       -0.3426
     19 C           4.6612   -1.0106   34.9617 C.3     1  UNL1        0.2275
     20 C           4.8564   -1.7252   33.6574 C.2     1  UNL1        0.2596
     21 O           3.7323   -2.5204   33.0623 O.2     1  UNL1       -0.2718
     22 C           6.8650   -4.4408   23.8511 C.3     1  UNL1        0.1355
     23 O           6.2448   -4.3152   20.9187 O.2     1  UNL1       -0.2696
     24 C           5.4513   -3.4912   21.8890 C.2     1  UNL1        0.2520
     25 N           5.7615   -3.5541   23.3553 N.am    1  UNL1       -0.2971
     26 H           5.2407   -3.0134   23.9922 H       1  UNL1        0.1499
     27 C           4.3477   -2.6045   21.3931 C.ar    1  UNL1        0.0836
     28 C           3.7217   -2.6541   20.0309 C.ar    1  UNL1        0.0124
     29 C           2.6636   -1.5928   19.9683 C.ar    1  UNL1        0.0186
     30 C           2.6356   -0.8873   21.2917 C.ar    1  UNL1        0.0871
     31 CL          1.7265    0.2447   21.6684 Cl      1  UNL1       -0.0752
     32 S           3.6766   -1.5126   22.1723 S.2     1  UNL1       -0.0710
@<TRIPOS>BOND
     1    23    24    2
     2    24    25   am
     3    25    22    1
     4     1    22    1
     5     1     2    1
     6     2     3    1
     7     3     4    2
     8     3     5   am
     9     5     6    1
    10     6     7   ar
    11     7     8   ar
    12     8     9   ar
    13     9    15    1
    14    15    16    1
    15    16    17    1
    16    17    18    1
    17    18    19    1
    18    19    20    1
    19    20    21    2
    20     9    10   ar
    21    10    11   ar
    22    11    12    1
    23    12    13    1
    24    14    13    1
    25    24    27    1
    26    27    28   ar
    27    28    29   ar
    28    29    30   ar
    29    30    31    1
    30    30    32   ar
    31    14     1    1
    32    32    27   ar
    33    14     5    1
    34    11     6   ar
    35    20    15   am
    36    25    26    1
@<TRIPOS>MOLECULE
*****
 32 36 0 0 0
SMALL
GASTEIGER

@<TRIPOS>ATOM
      1 C           7.6054   -5.7893   29.9849 C.3     1  UNL1        0.2120
      2 O           8.3056   -7.0392   29.5408 O.3     1  UNL1       -0.4344
      3 C           8.3644   -7.0299   28.0420 C.2     1  UNL1        0.4089
      4 O           8.9792   -8.0902   27.1771 O.2     1  UNL1       -0.2258
      5 N           7.7005   -5.7743   27.5599 N.am    1  UNL1       -0.2164
      6 C           7.4625   -5.2300   26.1824 C.ar    1  UNL1        0.0911
      7 C           7.9317   -5.9968   24.9817 C.ar    1  UNL1        0.0194
      8 C           7.6937   -5.4525   23.6043 C.ar    1  UNL1        0.0164
      9 C           6.9865   -4.1415   23.4278 C.ar    1  UNL1        0.0571
     10 C           6.5174   -3.3747   24.6286 C.ar    1  UNL1        0.0531
     11 C           6.7554   -3.9190   26.0059 C.ar    1  UNL1        0.1535
     12 O           6.2863   -3.1522   27.2068 O.3     1  UNL1       -0.4722
     13 C           6.5243   -3.6965   28.5841 C.3     1  UNL1        0.2293
     14 C           7.2314   -5.0075   28.7606 C.3     1  UNL1        0.1682
     15 N           6.7486   -3.5972   22.0503 N.am    1  UNL1       -0.2539
     16 C           7.8636   -2.9232   21.3072 C.3     1  UNL1        0.1303
     17 C           7.6257   -2.3790   19.9298 C.3     1  UNL1        0.1646
     18 O           6.2725   -2.5088   19.2956 O.3     1  UNL1       -0.3426
     19 C           5.1574   -3.1828   20.0387 C.3     1  UNL1        0.2275
     20 C           5.3955   -3.7271   21.4161 C.2     1  UNL1        0.2596
     21 O           4.2803   -4.4011   22.1593 O.2     1  UNL1       -0.2718
     22 C           7.3278   -5.3910   31.4043 C.3     1  UNL1        0.1355
     23 O           8.0594   -2.6939   32.4953 O.2     1  UNL1       -0.2696
     24 C           6.6202   -3.0388   32.2509 C.2     1  UNL1        0.2520
     25 N           6.2545   -4.3875   31.7054 N.am    1  UNL1       -0.2971
     26 H           5.3099   -4.6139   31.5449 H       1  UNL1        0.1499
     27 C           5.5469   -2.0352   32.5520 C.ar    1  UNL1        0.0836
     28 C           5.1430   -1.5586   33.9157 C.ar    1  UNL1        0.0124
     29 C           4.0355   -0.5609   33.7488 C.ar    1  UNL1        0.0186
     30 C           3.7548   -0.4209   32.2818 C.ar    1  UNL1        0.0871
     31 CL          2.7215    0.4734   31.6633 Cl      1  UNL1       -0.0752
     32 S           4.6890   -1.3321   31.5423 S.2     1  UNL1       -0.0710
@<TRIPOS>BOND
     1    23    24    2
     2    24    25   am
     3    25    22    1
     4     1    22    1
     5     1     2    1
     6     2     3    1
     7     3     4    2
     8     3     5   am
     9     5     6    1
    10     6     7   ar
    11     7     8   ar
    12     8     9   ar
    13     9    15    1
    14    15    16    1
    15    16    17    1
    16    17    18    1
    17    18    19    1
    18    19    20    1
    19    20    21    2
    20     9    10   ar
    21    10    11   ar
    22    11    12    1
    23    12    13    1
    24    14    13    1
    25    24    27    1
    26    27    28   ar
    27    28    29   ar
    28    29    30   ar
    29    30    31    1
    30    30    32   ar
    31    14     1    1
    32    32    27   ar
    33    14     5    1
    34    11     6   ar
    35    20    15   am
    36    25    26    1
@<TRIPOS>MOLECULE
*****
 32 36 0 0 0
SMALL
GASTEIGER

@<TRIPOS>ATOM
      1 C           5.1028   -1.4064   17.7920 C.3     1  UNL1        0.2120
      2 O           6.5312   -1.4929   17.3424 O.3     1  UNL1       -0.4344
      3 C           7.3224   -2.1478   18.4356 C.2     1  UNL1        0.4089
      4 O           8.7946   -2.4342   18.4083 O.2     1  UNL1       -0.2258
      5 N           6.3830   -2.4659   19.5609 N.am    1  UNL1       -0.2164
      6 C           6.5996   -3.1136   20.8964 C.ar    1  UNL1        0.0911
      7 C           7.9714   -3.5718   21.2941 C.ar    1  UNL1        0.0194
      8 C           8.1878   -4.2195   22.6296 C.ar    1  UNL1        0.0164
      9 C           7.0326   -4.4091   23.5674 C.ar    1  UNL1        0.0571
     10 C           5.6608   -3.9509   23.1696 C.ar    1  UNL1        0.0531
     11 C           5.4443   -3.3032   21.8342 C.ar    1  UNL1        0.1535
     12 O           4.0724   -2.8450   21.4364 O.3     1  UNL1       -0.4722
     13 C           3.8559   -2.1972   20.1009 C.3     1  UNL1        0.2293
     14 C           5.0112   -2.0077   19.1632 C.3     1  UNL1        0.1682
     15 N           7.2491   -5.0569   24.9029 N.am    1  UNL1       -0.2539
     16 C           6.9703   -4.2908   26.1620 C.3     1  UNL1        0.1303
     17 C           7.1868   -4.9386   27.4976 C.3     1  UNL1        0.1646
     18 O           7.6822   -6.3524   27.5739 O.3     1  UNL1       -0.3426
     19 C           7.9610   -7.1184   26.3147 C.3     1  UNL1        0.2275
     20 C           7.7445   -6.4706   24.9792 C.2     1  UNL1        0.2596
     21 O           8.0233   -7.2367   23.7200 O.2     1  UNL1       -0.2718
     22 C           3.9656   -0.8212   17.0082 C.3     1  UNL1        0.1355
     23 O           4.1692    1.9467   18.1469 O.2     1  UNL1       -0.2696
     24 C           2.8959    1.1674   18.2933 C.2     1  UNL1        0.2520
     25 N           2.7942   -0.2167   17.7238 N.am    1  UNL1       -0.2971
     26 H           1.9585   -0.7283   17.8198 H       1  UNL1        0.1499
     27 C           1.7245    1.7720   19.0090 C.ar    1  UNL1        0.0836
     28 C           0.5977    2.5301   18.3721 C.ar    1  UNL1        0.0124
     29 C          -0.3489    2.9512   19.4567 C.ar    1  UNL1        0.0186
     30 C           0.1928    2.4534   20.7640 C.ar    1  UNL1        0.0871
     31 CL         -0.4365    2.6500   22.1113 Cl      1  UNL1       -0.0752
     32 S           1.4743    1.7246   20.4871 S.2     1  UNL1       -0.0710
@<TRIPOS>BOND
     1    23    24    2
     2    24    25   am
     3    25    22    1
     4     1    22    1
     5     1     2    1
     6     2     3    1
     7     3     4    2
     8     3     5   am
     9     5     6    1
    10     6     7   ar
    11     7     8   ar
    12     8     9   ar
    13     9    15    1
    14    15    16    1
    15    16    17    1
    16    17    18    1
    17    18    19    1
    18    19    20    1
    19    20    21    2
    20     9    10   ar
    21    10    11   ar
    22    11    12    1
    23    12    13    1
    24    14    13    1
    25    24    27    1
    26    27    28   ar
    27    28    29   ar
    28    29    30   ar
    29    30    31    1
    30    30    32   ar
    31    14     1    1
    32    32    27   ar
    33    14     5    1
    34    11     6   ar
    35    20    15   am
    36    25    26    1
@<TRIPOS>MOLECULE
*****
 32 36 0 0 0
SMALL
GASTEIGER

@<TRIPOS>ATOM
      1 C          -0.8784    4.4976   19.2706 C.3     1  UNL1        0.2120
      2 O           0.1585    5.1720   18.4222 O.3     1  UNL1       -0.4344
      3 C           1.3062    4.2217   18.2498 C.2     1  UNL1        0.4089
      4 O           2.5611    4.4866   17.4721 O.2     1  UNL1       -0.2258
      5 N           0.9785    2.9599   18.9918 N.am    1  UNL1       -0.2164
      6 C           1.7353    1.6777   19.1744 C.ar    1  UNL1        0.0911
      7 C           3.0854    1.5072   18.5435 C.ar    1  UNL1        0.0194
      8 C           3.8420    0.2250   18.7262 C.ar    1  UNL1        0.0164
      9 C           3.2485   -0.8867   19.5397 C.ar    1  UNL1        0.0571
     10 C           1.8984   -0.7163   20.1706 C.ar    1  UNL1        0.0531
     11 C           1.1418    0.5659   19.9880 C.ar    1  UNL1        0.1535
     12 O          -0.2084    0.7365   20.6189 O.3     1  UNL1       -0.4722
     13 C          -0.9651    2.0187   20.4362 C.3     1  UNL1        0.2293
     14 C          -0.3716    3.1304   19.6227 C.3     1  UNL1        0.1682
     15 N           4.0053   -2.1690   19.7223 N.am    1  UNL1       -0.2539
     16 C           3.5568   -3.4121   19.0128 C.3     1  UNL1        0.1303
     17 C           4.3135   -4.6944   19.1955 C.3     1  UNL1        0.1646
     18 O           5.5187   -4.7334   20.0876 O.3     1  UNL1       -0.3426
     19 C           5.9672   -3.4902   20.7971 C.3     1  UNL1        0.2275
     20 C           5.2105   -2.2080   20.6145 C.2     1  UNL1        0.2596
     21 O           5.6589   -0.9648   21.3240 O.2     1  UNL1       -0.2718
     22 C          -2.1917    5.0868   19.6930 C.3     1  UNL1        0.1355
     23 O          -4.4002    3.2222   20.4960 O.2     1  UNL1       -0.2696
     24 C          -3.7265    4.0758   21.5292 C.2     1  UNL1        0.2520
     25 N          -2.6222    5.0081   21.1276 N.am    1  UNL1       -0.2971
     26 H          -2.1800    5.5684   21.8057 H       1  UNL1        0.1499
     27 C          -4.1571    3.9970   22.9639 C.ar    1  UNL1        0.0836
     28 C          -5.5721    4.0076   23.4616 C.ar    1  UNL1        0.0124
     29 C          -5.5379    3.9110   24.9580 C.ar    1  UNL1        0.0186
     30 C          -4.1017    3.8407   25.3853 C.ar    1  UNL1        0.0871
     31 CL         -3.6059    3.7356   26.7971 Cl      1  UNL1       -0.0752
     32 S          -3.2484    3.8938   24.1527 S.2     1  UNL1       -0.0710
@<TRIPOS>BOND
     1    23    24    2
     2    24    25   am
     3    25    22    1
     4     1    22    1
     5     1     2    1
     6     2     3    1
     7     3     4    2
     8     3     5   am
     9     5     6    1
    10     6     7   ar
    11     7     8   ar
    12     8     9   ar
    13     9    15    1
    14    15    16    1
    15    16    17    1
    16    17    18    1
    17    18    19    1
    18    19    20    1
    19    20    21    2
    20     9    10   ar
    21    10    11   ar
    22    11    12    1
    23    12    13    1
    24    14    13    1
    25    24    27    1
    26    27    28   ar
    27    28    29   ar
    28    29    30   ar
    29    30    31    1
    30    30    32   ar
    31    14     1    1
    32    32    27   ar
    33    14     5    1
    34    11     6   ar
    35    20    15   am
    36    25    26    1
@<TRIPOS>MOLECULE
*****
 32 36 0 0 0
SMALL
GASTEIGER

@<TRIPOS>ATOM
      1 C           7.1635   -3.0489   31.5944 C.3     1  UNL1        0.2120
      2 O           6.3096   -3.1854   32.8201 O.3     1  UNL1       -0.4344
      3 C           5.0474   -2.4069   32.5948 C.2     1  UNL1        0.4089
      4 O           3.9110   -2.2700   33.5642 O.2     1  UNL1       -0.2258
      5 N           5.1212   -1.7892   31.2299 N.am    1  UNL1       -0.2164
      6 C           4.1665   -0.9167   30.4701 C.ar    1  UNL1        0.0911
      7 C           2.8587   -0.5199   31.0883 C.ar    1  UNL1        0.0194
      8 C           1.9040    0.3525   30.3286 C.ar    1  UNL1        0.0164
      9 C           2.2571    0.8282   28.9505 C.ar    1  UNL1        0.0571
     10 C           3.5648    0.4314   28.3322 C.ar    1  UNL1        0.0531
     11 C           4.5195   -0.4410   29.0920 C.ar    1  UNL1        0.1535
     12 O           5.8274   -0.8379   28.4737 O.3     1  UNL1       -0.4722
     13 C           6.7820   -1.7103   29.2335 C.3     1  UNL1        0.2293
     14 C           6.4290   -2.1860   30.6116 C.3     1  UNL1        0.1682
     15 N           1.3023    1.7007   28.1907 N.am    1  UNL1       -0.2539
     16 C           1.7349    3.0603   27.7277 C.3     1  UNL1        0.1303
     17 C           0.7801    3.9328   26.9679 C.3     1  UNL1        0.1646
     18 O          -0.6072    3.4457   26.6712 O.3     1  UNL1       -0.3426
     19 C          -1.0397    2.0860   27.1342 C.3     1  UNL1        0.2275
     20 C          -0.0850    1.2136   27.8940 C.2     1  UNL1        0.2596
     21 O          -0.5175   -0.1460   28.3570 O.2     1  UNL1       -0.2718
     22 C           8.5146   -3.6669   31.3878 C.3     1  UNL1        0.1355
     23 O           6.9110   -6.1640   30.9493 O.2     1  UNL1       -0.2696
     24 C           7.9702   -5.7700   29.9629 C.2     1  UNL1        0.2520
     25 N           8.7720   -4.5214   30.1822 N.am    1  UNL1       -0.2971
     26 H           9.4672   -4.2627   29.5349 H       1  UNL1        0.1499
     27 C           8.2275   -6.6246   28.7573 C.ar    1  UNL1        0.0836
     28 C           9.0967   -7.8463   28.7119 C.ar    1  UNL1        0.0124
     29 C           9.0672   -8.3843   27.3121 C.ar    1  UNL1        0.0186
     30 C           8.1799   -7.4951   26.4923 C.ar    1  UNL1        0.0871
     31 CL          7.8665   -7.6639   25.0351 Cl      1  UNL1       -0.0752
     32 S           7.6610   -6.4076   27.3856 S.2     1  UNL1       -0.0710
@<TRIPOS>BOND
     1    23    24    2
     2    24    25   am
     3    25    22    1
     4     1    22    1
     5     1     2    1
     6     2     3    1
     7     3     4    2
     8     3     5   am
     9     5     6    1
    10     6     7   ar
    11     7     8   ar
    12     8     9   ar
    13     9    15    1
    14    15    16    1
    15    16    17    1
    16    17    18    1
    17    18    19    1
    18    19    20    1
    19    20    21    2
    20     9    10   ar
    21    10    11   ar
    22    11    12    1
    23    12    13    1
    24    14    13    1
    25    24    27    1
    26    27    28   ar
    27    28    29   ar
    28    29    30   ar
    29    30    31    1
    30    30    32   ar
    31    14     1    1
    32    32    27   ar
    33    14     5    1
    34    11     6   ar
    35    20    15   am
    36    25    26    1
@<TRIPOS>MOLECULE
*****
 32 36 0 0 0
SMALL
GASTEIGER

@<TRIPOS>ATOM
      1 C           4.8354   -1.2532   29.0203 C.3     1  UNL1        0.2120
      2 O           3.6216   -0.3876   28.8547 O.3     1  UNL1       -0.4344
      3 C           3.2912   -0.3273   27.3928 C.2     1  UNL1        0.4089
      4 O           2.1513    0.4285   26.7770 O.2     1  UNL1       -0.2258
      5 N           4.3008   -1.1556   26.6549 N.am    1  UNL1       -0.2164
      6 C           4.4744   -1.4627   25.1969 C.ar    1  UNL1        0.0911
      7 C           3.5199   -0.8905   24.1911 C.ar    1  UNL1        0.0194
      8 C           3.6935   -1.1977   22.7333 C.ar    1  UNL1        0.0164
      9 C           4.8216   -2.0770   22.2812 C.ar    1  UNL1        0.0571
     10 C           5.7760   -2.6492   23.2869 C.ar    1  UNL1        0.0531
     11 C           5.6024   -2.3420   24.7448 C.ar    1  UNL1        0.1535
     12 O           6.5568   -2.9142   25.7507 O.3     1  UNL1       -0.4722
     13 C           6.3832   -2.6071   27.2086 C.3     1  UNL1        0.2293
     14 C           5.2552   -1.7278   27.6607 C.3     1  UNL1        0.1682
     15 N           4.9951   -2.3841   20.8232 N.am    1  UNL1       -0.2539
     16 C           5.5065   -1.3271   19.8898 C.3     1  UNL1        0.1303
     17 C           5.6801   -1.6343   18.4318 C.3     1  UNL1        0.1646
     18 O           5.3422   -2.9983   17.9073 O.3     1  UNL1       -0.3426
     19 C           4.8308   -4.0553   18.8408 C.3     1  UNL1        0.2275
     20 C           4.6572   -3.7482   20.2987 C.2     1  UNL1        0.2596
     21 O           4.1458   -4.8051   21.2321 O.2     1  UNL1       -0.2718
     22 C           5.5110   -1.5857   30.3177 C.3     1  UNL1        0.1355
     23 O           3.8490   -2.4827   32.6486 O.2     1  UNL1       -0.2696
     24 C           4.5067   -1.1348   32.6710 C.2     1  UNL1        0.2520
     25 N           5.3377   -0.6863   31.5055 N.am    1  UNL1       -0.2971
     26 H           5.7694    0.1984   31.5201 H       1  UNL1        0.1499
     27 C           4.3334   -0.2354   33.8589 C.ar    1  UNL1        0.0836
     28 C           4.7972   -0.5214   35.2564 C.ar    1  UNL1        0.0124
     29 C           4.4163    0.6451   36.1190 C.ar    1  UNL1        0.0186
     30 C           3.7171    1.6521   35.2546 C.ar    1  UNL1        0.0871
     31 CL          3.1659    2.9716   35.7076 Cl      1  UNL1       -0.0752
     32 S           3.6659    1.1078   33.8578 S.2     1  UNL1       -0.0710
@<TRIPOS>BOND
     1    23    24    2
     2    24    25   am
     3    25    22    1
     4     1    22    1
     5     1     2    1
     6     2     3    1
     7     3     4    2
     8     3     5   am
     9     5     6    1
    10     6     7   ar
    11     7     8   ar
    12     8     9   ar
    13     9    15    1
    14    15    16    1
    15    16    17    1
    16    17    18    1
    17    18    19    1
    18    19    20    1
    19    20    21    2
    20     9    10   ar
    21    10    11   ar
    22    11    12    1
    23    12    13    1
    24    14    13    1
    25    24    27    1
    26    27    28   ar
    27    28    29   ar
    28    29    30   ar
    29    30    31    1
    30    30    32   ar
    31    14     1    1
    32    32    27   ar
    33    14     5    1
    34    11     6   ar
    35    20    15   am
    36    25    26    1
@<TRIPOS>MOLECULE
*****
 32 36 0 0 0
SMALL
GASTEIGER

@<TRIPOS>ATOM
      1 C           1.4485    1.3479   27.3706 C.3     1  UNL1        0.2120
      2 O           2.3478    0.4786   28.1986 O.3     1  UNL1       -0.4344
      3 C           3.1547   -0.3750   27.2658 C.2     1  UNL1        0.4089
      4 O           4.1819   -1.3919   27.6670 O.2     1  UNL1       -0.2258
      5 N           2.7542   -0.0333   25.8612 N.am    1  UNL1       -0.2164
      6 C           3.2134   -0.5542   24.5316 C.ar    1  UNL1        0.0911
      7 C           4.2679   -1.6190   24.4669 C.ar    1  UNL1        0.0194
      8 C           4.7271   -2.1399   23.1373 C.ar    1  UNL1        0.0164
      9 C           4.1318   -1.5960   21.8725 C.ar    1  UNL1        0.0571
     10 C           3.0774   -0.5312   21.9372 C.ar    1  UNL1        0.0531
     11 C           2.6182   -0.0103   23.2668 C.ar    1  UNL1        0.1535
     12 O           1.5636    1.0546   23.3316 O.3     1  UNL1       -0.4722
     13 C           1.1044    1.5754   24.6611 C.3     1  UNL1        0.2293
     14 C           1.6997    1.0315   25.9260 C.3     1  UNL1        0.1682
     15 N           4.5911   -2.1169   20.5429 N.am    1  UNL1       -0.2539
     16 C           4.0784   -3.4318   20.0348 C.3     1  UNL1        0.1303
     17 C           4.5377   -3.9527   18.7052 C.3     1  UNL1        0.1646
     18 O           5.5096   -3.1587   17.8837 O.3     1  UNL1       -0.3426
     19 C           6.0223   -1.8437   18.3919 C.3     1  UNL1        0.2275
     20 C           5.5630   -1.3228   19.7214 C.2     1  UNL1        0.2596
     21 O           6.0757   -0.0079   20.2295 O.2     1  UNL1       -0.2718
     22 C           0.4699    2.3565   27.8950 C.3     1  UNL1        0.1355
     23 O          -0.3027    4.7151   26.2098 O.2     1  UNL1       -0.2696
     24 C          -1.2944    3.6192   26.4657 C.2     1  UNL1        0.2520
     25 N          -0.9080    2.4399   27.3084 N.am    1  UNL1       -0.2971
     26 H          -1.5589    1.7206   27.4764 H       1  UNL1        0.1499
     27 C          -2.6724    3.7026   25.8790 C.ar    1  UNL1        0.0836
     28 C          -3.9322    4.0193   26.6289 C.ar    1  UNL1        0.0124
     29 C          -5.0709    3.9964   25.6528 C.ar    1  UNL1        0.0186
     30 C          -4.5148    3.6655   24.2995 C.ar    1  UNL1        0.0871
     31 CL         -5.3027    3.5385   23.0294 Cl      1  UNL1       -0.0752
     32 S          -3.0323    3.4840   24.4394 S.2     1  UNL1       -0.0710
@<TRIPOS>BOND
     1    23    24    2
     2    24    25   am
     3    25    22    1
     4     1    22    1
     5     1     2    1
     6     2     3    1
     7     3     4    2
     8     3     5   am
     9     5     6    1
    10     6     7   ar
    11     7     8   ar
    12     8     9   ar
    13     9    15    1
    14    15    16    1
    15    16    17    1
    16    17    18    1
    17    18    19    1
    18    19    20    1
    19    20    21    2
    20     9    10   ar
    21    10    11   ar
    22    11    12    1
    23    12    13    1
    24    14    13    1
    25    24    27    1
    26    27    28   ar
    27    28    29   ar
    28    29    30   ar
    29    30    31    1
    30    30    32   ar
    31    14     1    1
    32    32    27   ar
    33    14     5    1
    34    11     6   ar
    35    20    15   am
    36    25    26    1
@<TRIPOS>MOLECULE
*****
 32 36 0 0 0
SMALL
GASTEIGER

@<TRIPOS>ATOM
      1 C          -0.5569    2.4157   24.9662 C.3     1  UNL1        0.2120
      2 O          -1.2417    3.1854   23.8760 O.3     1  UNL1       -0.4344
      3 C          -0.5612    2.8583   22.5799 C.2     1  UNL1        0.4089
      4 O          -0.9226    3.4068   21.2314 O.2     1  UNL1       -0.2258
      5 N           0.5442    1.8866   22.8691 N.am    1  UNL1       -0.2164
      6 C           1.5488    1.2154   21.9800 C.ar    1  UNL1        0.0911
      7 C           1.5461    1.4889   20.5052 C.ar    1  UNL1        0.0194
      8 C           2.5506    0.8178   19.6161 C.ar    1  UNL1        0.0164
      9 C           3.5578   -0.1269   20.2018 C.ar    1  UNL1        0.0571
     10 C           3.5605   -0.4005   21.6766 C.ar    1  UNL1        0.0531
     11 C           2.5560    0.2707   22.5657 C.ar    1  UNL1        0.1535
     12 O           2.5586   -0.0029   24.0406 O.3     1  UNL1       -0.4722
     13 C           1.5541    0.6683   24.9297 C.3     1  UNL1        0.2293
     14 C           0.5469    1.6130   24.3439 C.3     1  UNL1        0.1682
     15 N           4.5623   -0.7981   19.3127 N.am    1  UNL1       -0.2539
     16 C           5.6948   -0.0063   18.7292 C.3     1  UNL1        0.1303
     17 C           6.6994   -0.6775   17.8401 C.3     1  UNL1        0.1646
     18 O           6.5713   -2.1404   17.5344 O.3     1  UNL1       -0.3426
     19 C           5.4387   -2.9322   18.1180 C.3     1  UNL1        0.2275
     20 C           4.4343   -2.2610   19.0071 C.2     1  UNL1        0.2596
     21 O           3.3017   -3.0528   19.5906 O.2     1  UNL1       -0.2718
     22 C          -0.9132    2.4438   26.4231 C.3     1  UNL1        0.1355
     23 O          -1.2812    0.1594   28.3325 O.2     1  UNL1       -0.2696
     24 C          -0.0498    1.0123   28.4118 C.2     1  UNL1        0.2520
     25 N           0.1342    2.1545   27.4570 N.am    1  UNL1       -0.2971
     26 H           0.9424    2.7143   27.5090 H       1  UNL1        0.1499
     27 C           0.9976    0.7229   29.4459 C.ar    1  UNL1        0.0836
     28 C           1.9392   -0.4448   29.4443 C.ar    1  UNL1        0.0124
     29 C           2.8108   -0.3390   30.6604 C.ar    1  UNL1        0.0186
     30 C           2.4080    0.8942   31.4136 C.ar    1  UNL1        0.0871
     31 CL          3.0186    1.3848   32.6928 Cl      1  UNL1       -0.0752
     32 S           1.2874    1.5504   30.6629 S.2     1  UNL1       -0.0710
@<TRIPOS>BOND
     1    23    24    2
     2    24    25   am
     3    25    22    1
     4     1    22    1
     5     1     2    1
     6     2     3    1
     7     3     4    2
     8     3     5   am
     9     5     6    1
    10     6     7   ar
    11     7     8   ar
    12     8     9   ar
    13     9    15    1
    14    15    16    1
    15    16    17    1
    16    17    18    1
    17    18    19    1
    18    19    20    1
    19    20    21    2
    20     9    10   ar
    21    10    11   ar
    22    11    12    1
    23    12    13    1
    24    14    13    1
    25    24    27    1
    26    27    28   ar
    27    28    29   ar
    28    29    30   ar
    29    30    31    1
    30    30    32   ar
    31    14     1    1
    32    32    27   ar
    33    14     5    1
    34    11     6   ar
    35    20    15   am
    36    25    26    1
@<TRIPOS>MOLECULE
*****
 32 36 0 0 0
SMALL
GASTEIGER

@<TRIPOS>ATOM
      1 C           7.4992   -3.6558   21.0473 C.3     1  UNL1        0.2120
      2 O           8.0456   -5.0506   20.9711 O.3     1  UNL1       -0.4344
      3 C           8.1045   -5.6021   22.3648 C.2     1  UNL1        0.4089
      4 O           8.5884   -6.9678   22.7529 O.2     1  UNL1       -0.2258
      5 N           7.5945   -4.5481   23.3023 N.am    1  UNL1       -0.2164
      6 C           7.4224   -4.5282   24.7923 C.ar    1  UNL1        0.0911
      7 C           7.7965   -5.7311   25.6065 C.ar    1  UNL1        0.0194
      8 C           7.6244   -5.7113   27.0965 C.ar    1  UNL1        0.0164
      9 C           7.0782   -4.4885   27.7722 C.ar    1  UNL1        0.0571
     10 C           6.7041   -3.2856   26.9579 C.ar    1  UNL1        0.0531
     11 C           6.8762   -3.3055   25.4680 C.ar    1  UNL1        0.1535
     12 O           6.5021   -2.1025   24.6536 O.3     1  UNL1       -0.4722
     13 C           6.6742   -2.1224   23.1637 C.3     1  UNL1        0.2293
     14 C           7.2204   -3.3452   22.4880 C.3     1  UNL1        0.1682
     15 N           6.9061   -4.4687   29.2622 N.am    1  UNL1       -0.2539
     16 C           7.0653   -5.7336   30.0524 C.3     1  UNL1        0.1303
     17 C           6.8932   -5.7138   31.5425 C.3     1  UNL1        0.1646
     18 O           6.5620   -4.4290   32.2421 O.3     1  UNL1       -0.3426
     19 C           6.4028   -3.1640   31.4518 C.3     1  UNL1        0.2275
     20 C           6.5749   -3.1839   29.9619 C.2     1  UNL1        0.2596
     21 O           6.4157   -1.9189   29.1715 O.2     1  UNL1       -0.2718
     22 C           7.2715   -2.7334   19.8864 C.3     1  UNL1        0.1355
     23 O           4.8460   -3.5159   18.3039 O.2     1  UNL1       -0.2696
     24 C           4.8559   -2.2287   19.0739 C.2     1  UNL1        0.2520
     25 N           6.0688   -1.8374   19.8652 N.am    1  UNL1       -0.2971
     26 H           6.0753   -0.9926   20.3706 H       1  UNL1        0.1499
     27 C           3.6531   -1.3327   19.0526 C.ar    1  UNL1        0.0836
     28 C           3.3359   -0.3074   18.0047 C.ar    1  UNL1        0.0124
     29 C           2.0431    0.3542   18.3799 C.ar    1  UNL1        0.0186
     30 C           1.5612   -0.2623   19.6597 C.ar    1  UNL1        0.0871
     31 CL          0.3048    0.1002   20.3946 Cl      1  UNL1       -0.0752
     32 S           2.5563   -1.3049   20.0753 S.2     1  UNL1       -0.0710
@<TRIPOS>BOND
     1    23    24    2
     2    24    25   am
     3    25    22    1
     4     1    22    1
     5     1     2    1
     6     2     3    1
     7     3     4    2
     8     3     5   am
     9     5     6    1
    10     6     7   ar
    11     7     8   ar
    12     8     9   ar
    13     9    15    1
    14    15    16    1
    15    16    17    1
    16    17    18    1
    17    18    19    1
    18    19    20    1
    19    20    21    2
    20     9    10   ar
    21    10    11   ar
    22    11    12    1
    23    12    13    1
    24    14    13    1
    25    24    27    1
    26    27    28   ar
    27    28    29   ar
    28    29    30   ar
    29    30    31    1
    30    30    32   ar
    31    14     1    1
    32    32    27   ar
    33    14     5    1
    34    11     6   ar
    35    20    15   am
    36    25    26    1
