@<TRIPOS>MOLECULE
*****
 29 31 0 0 0
SMALL
GASTEIGER

@<TRIPOS>ATOM
      1 C          -9.6887  -18.2757   23.5667 C.3     1  UNL1        0.1138
      2 C         -10.5283  -17.6484   22.4935 C.ar    1  UNL1       -0.0029
      3 C         -10.5749  -18.2595   21.1245 C.ar    1  UNL1       -0.0026
      4 C         -11.4145  -17.6322   20.0514 C.ar    1  UNL1       -0.0003
      5 C         -12.2074  -16.3938   20.3474 C.ar    1  UNL1       -0.0000
      6 C         -12.1608  -15.7827   21.7164 C.ar    1  UNL1       -0.0003
      7 C         -11.3212  -16.4100   22.7895 C.ar    1  UNL1       -0.0026
      8 C          -8.9783  -20.7690   23.7359 C.3     1  UNL1        0.1152
      9 N          -8.7346  -19.3809   23.2226 N.am    1  UNL1       -0.2739
     10 C          -7.5368  -19.0977   22.3651 C.2     1  UNL1        0.2352
     11 O          -7.2931  -17.7096   21.8518 O.2     1  UNL1       -0.2743
     12 C          -6.5827  -20.2029   22.0210 C.3     1  UNL1        0.1703
     13 C          -5.3651  -19.9123   21.1947 C.2     1  UNL1        0.2368
     14 O          -4.9612  -20.8524   20.0979 O.2     1  UNL1       -0.2742
     15 N          -4.5512  -18.6817   21.4652 N.am    1  UNL1       -0.2637
     16 H          -4.8163  -18.0647   22.1851 H       1  UNL1        0.1568
     17 C          -3.3336  -18.3911   20.6389 C.ar    1  UNL1        0.1656
     18 N          -3.3254  -17.8344   19.2461 N.ar    1  UNL1       -0.2224
     19 C          -1.8970  -17.7054   18.8067 C.ar    1  UNL1        0.1079
     20 C          -1.0223  -18.1825   19.9280 C.ar    1  UNL1        0.0588
     21 S          -1.9101  -18.6063   21.0604 S.2     1  UNL1       -0.0508
     22 C          -9.8032  -17.7979   24.9839 C.3     1  UNL1        0.0968
     23 N          -8.7411  -16.9122   25.5649 N.3     1  UNL1       -0.2689
     24 C          -8.4758  -16.6952   27.0253 C.3     1  UNL1        0.0748
     25 C          -7.3286  -15.7368   27.1505 C.3     1  UNL1        0.0480
     26 C          -6.8849  -15.3616   25.7676 C.3     1  UNL1        0.1278
     27 O          -5.7650  -14.4246   25.4248 O.3     1  UNL1       -0.3830
     28 C          -7.7579  -16.0880   24.7877 C.3     1  UNL1        0.1017
     29 H          -5.3618  -14.0903   26.2412 H       1  UNL1        0.2104
@<TRIPOS>BOND
     1     8     9    1
     2     9    10   am
     3    10    11    2
     4    10    12    1
     5    12    13    1
     6    13    14    2
     7    13    15   am
     8    15    17    1
     9    17    18   ar
    10    18    19   ar
    11    19    20   ar
    12    20    21   ar
    13     9     1    1
    14     1    22    1
    15    22    23    1
    16    23    24    1
    17    24    25    1
    18    25    26    1
    19    26    27    1
    20    26    28    1
    21     1     2    1
    22     2     3   ar
    23     3     4   ar
    24     4     5   ar
    25     5     6   ar
    26     6     7   ar
    27    21    17   ar
    28    28    23    1
    29     7     2   ar
    30    15    16    1
    31    27    29    1
@<TRIPOS>MOLECULE
*****
 29 31 0 0 0
SMALL
GASTEIGER

@<TRIPOS>ATOM
      1 C          -4.9803  -18.7031   22.4961 C.3     1  UNL1        0.1138
      2 C          -5.2822  -17.5298   23.3806 C.ar    1  UNL1       -0.0029
      3 C          -6.5224  -16.7177   23.1520 C.ar    1  UNL1       -0.0026
      4 C          -6.8242  -15.5444   24.0365 C.ar    1  UNL1       -0.0003
      5 C          -5.8857  -15.1832   25.1495 C.ar    1  UNL1       -0.0000
      6 C          -4.6455  -15.9953   25.3781 C.ar    1  UNL1       -0.0003
      7 C          -4.3437  -17.1686   24.4936 C.ar    1  UNL1       -0.0026
      8 C          -7.0184  -20.3136   22.5449 C.3     1  UNL1        0.1152
      9 N          -6.0941  -19.4108   21.7830 N.am    1  UNL1       -0.2739
     10 C          -6.2836  -19.2157   20.3078 C.2     1  UNL1        0.2352
     11 O          -5.3593  -18.3130   19.5458 O.2     1  UNL1       -0.2743
     12 C          -7.3974  -19.9235   19.5946 C.3     1  UNL1        0.1703
     13 C          -8.8030  -19.4112   19.7039 C.2     1  UNL1        0.2368
     14 O          -9.8955  -20.0392   18.8903 O.2     1  UNL1       -0.2742
     15 N          -9.1160  -18.2709   20.6269 N.am    1  UNL1       -0.2637
     16 H          -8.3989  -17.8587   21.1609 H       1  UNL1        0.1568
     17 C         -10.5215  -17.7586   20.7362 C.ar    1  UNL1        0.1656
     18 N         -11.0814  -16.5616   20.0264 N.ar    1  UNL1       -0.2224
     19 C         -12.5199  -16.4165   20.4260 C.ar    1  UNL1        0.1079
     20 C         -12.8492  -17.5240   21.3827 C.ar    1  UNL1        0.0588
     21 S         -11.6141  -18.3534   21.5744 S.2     1  UNL1       -0.0508
     22 C          -3.5648  -19.1687   22.3248 C.3     1  UNL1        0.0968
     23 N          -2.6269  -18.4065   21.4362 N.3     1  UNL1       -0.2689
     24 C          -2.0498  -17.0513   21.7194 C.3     1  UNL1        0.0748
     25 C          -1.1677  -16.6730   20.5666 C.3     1  UNL1        0.0480
     26 C          -1.1997  -17.7945   19.5709 C.3     1  UNL1        0.1278
     27 O          -0.4599  -17.8371   18.2669 O.3     1  UNL1       -0.3830
     28 C          -2.1016  -18.8659   20.1084 C.3     1  UNL1        0.1017
     29 H           0.0515  -17.0200   18.1584 H       1  UNL1        0.2104
@<TRIPOS>BOND
     1     8     9    1
     2     9    10   am
     3    10    11    2
     4    10    12    1
     5    12    13    1
     6    13    14    2
     7    13    15   am
     8    15    17    1
     9    17    18   ar
    10    18    19   ar
    11    19    20   ar
    12    20    21   ar
    13     9     1    1
    14     1    22    1
    15    22    23    1
    16    23    24    1
    17    24    25    1
    18    25    26    1
    19    26    27    1
    20    26    28    1
    21     1     2    1
    22     2     3   ar
    23     3     4   ar
    24     4     5   ar
    25     5     6   ar
    26     6     7   ar
    27    21    17   ar
    28    28    23    1
    29     7     2   ar
    30    15    16    1
    31    27    29    1
@<TRIPOS>MOLECULE
*****
 29 31 0 0 0
SMALL
GASTEIGER

@<TRIPOS>ATOM
      1 C         -13.0582   -3.5043   17.9270 C.3     1  UNL1        0.1138
      2 C         -12.7254   -2.0451   17.8258 C.ar    1  UNL1       -0.0029
      3 C         -13.6549   -1.0218   18.4078 C.ar    1  UNL1       -0.0026
      4 C         -13.3220    0.4373   18.3066 C.ar    1  UNL1       -0.0003
      5 C         -12.0597    0.8730   17.6234 C.ar    1  UNL1       -0.0000
      6 C         -11.1303   -0.1504   17.0414 C.ar    1  UNL1       -0.0003
      7 C         -11.4631   -1.6094   17.1425 C.ar    1  UNL1       -0.0026
      8 C         -13.7171   -4.2429   20.3291 C.3     1  UNL1        0.1152
      9 N         -14.0967   -3.9707   18.9037 N.am    1  UNL1       -0.2739
     10 C         -15.5149   -4.1649   18.4550 C.2     1  UNL1        0.2352
     11 O         -15.8945   -3.8927   17.0296 O.2     1  UNL1       -0.2743
     12 C         -16.5533   -4.6313   19.4317 C.3     1  UNL1        0.1703
     13 C         -17.0881   -6.0301   19.3470 C.2     1  UNL1        0.2368
     14 O         -18.4807   -6.3303   19.8165 O.2     1  UNL1       -0.2742
     15 N         -16.2302   -7.1287   18.7928 N.am    1  UNL1       -0.2637
     16 H         -15.3162   -6.9317   18.4847 H       1  UNL1        0.1568
     17 C         -16.7650   -8.5276   18.7081 C.ar    1  UNL1        0.1656
     18 N         -16.3699   -9.6773   19.5868 N.ar    1  UNL1       -0.2224
     19 C         -17.1494  -10.8827   19.1516 C.ar    1  UNL1        0.1079
     20 C         -18.0264  -10.4780   18.0039 C.ar    1  UNL1        0.0588
     21 S         -17.7888   -9.0224   17.7298 S.2     1  UNL1       -0.0508
     22 C         -12.3526   -4.4970   17.0514 C.3     1  UNL1        0.0968
     23 N         -11.3971   -5.4833   17.6549 N.3     1  UNL1       -0.2689
     24 C         -10.4404   -5.2104   18.7775 C.3     1  UNL1        0.0748
     25 C          -9.6825   -6.4742   19.0582 C.3     1  UNL1        0.0480
     26 C         -10.1708   -7.5280   18.1089 C.3     1  UNL1        0.1278
     27 O          -9.6848   -8.9453   18.0392 O.3     1  UNL1       -0.3830
     28 C         -11.2305   -6.9156   17.2417 C.3     1  UNL1        0.1017
     29 H          -8.9968   -9.0845   18.7086 H       1  UNL1        0.2104
@<TRIPOS>BOND
     1     8     9    1
     2     9    10   am
     3    10    11    2
     4    10    12    1
     5    12    13    1
     6    13    14    2
     7    13    15   am
     8    15    17    1
     9    17    18   ar
    10    18    19   ar
    11    19    20   ar
    12    20    21   ar
    13     9     1    1
    14     1    22    1
    15    22    23    1
    16    23    24    1
    17    24    25    1
    18    25    26    1
    19    26    27    1
    20    26    28    1
    21     1     2    1
    22     2     3   ar
    23     3     4   ar
    24     4     5   ar
    25     5     6   ar
    26     6     7   ar
    27    21    17   ar
    28    28    23    1
    29     7     2   ar
    30    15    16    1
    31    27    29    1
@<TRIPOS>MOLECULE
*****
 29 31 0 0 0
SMALL
GASTEIGER

@<TRIPOS>ATOM
      1 C           7.3879   -4.3025   22.7554 C.3     1  UNL1        0.1138
      2 C           7.7268   -5.4074   23.7117 C.ar    1  UNL1       -0.0029
      3 C           7.1878   -5.3796   25.1112 C.ar    1  UNL1       -0.0026
      4 C           7.5267   -6.4845   26.0674 C.ar    1  UNL1       -0.0003
      5 C           8.4046   -7.6171   25.6241 C.ar    1  UNL1       -0.0000
      6 C           8.9435   -7.6449   24.2246 C.ar    1  UNL1       -0.0003
      7 C           8.6046   -6.5400   23.2684 C.ar    1  UNL1       -0.0026
      8 C           7.2223   -1.9423   23.8287 C.3     1  UNL1        0.1152
      9 N           6.5592   -3.1400   23.2158 N.am    1  UNL1       -0.2739
     10 C           5.0674   -3.1753   23.0632 C.2     1  UNL1        0.2352
     11 O           4.4043   -4.3731   22.4503 O.2     1  UNL1       -0.2743
     12 C           4.2387   -2.0129   23.5236 C.3     1  UNL1        0.1703
     13 C           3.5782   -1.1175   22.5176 C.2     1  UNL1        0.2368
     14 O           3.1292    0.2567   22.9172 O.2     1  UNL1       -0.2742
     15 N           3.3667   -1.5965   21.1119 N.am    1  UNL1       -0.2637
     16 H           3.6614   -2.4984   20.8496 H       1  UNL1        0.1568
     17 C           2.7062   -0.7011   20.1059 C.ar    1  UNL1        0.1656
     18 N           3.3955    0.0423   19.0003 N.ar    1  UNL1       -0.2224
     19 C           2.3558    0.8109   18.2399 C.ar    1  UNL1        0.1079
     20 C           1.0239    0.5426   18.8755 C.ar    1  UNL1        0.0588
     21 S           1.2404   -0.3919   20.0288 S.2     1  UNL1       -0.0508
     22 C           7.8777   -4.3601   21.3388 C.3     1  UNL1        0.0968
     23 N           7.2770   -3.4596   20.3003 N.3     1  UNL1       -0.2689
     24 C           7.7867   -2.1049   19.9068 C.3     1  UNL1        0.0748
     25 C           6.8859   -1.5637   18.8363 C.3     1  UNL1        0.0480
     26 C           5.8196   -2.5842   18.5683 C.3     1  UNL1        0.1278
     27 O           4.7070   -2.4554   17.5707 O.3     1  UNL1       -0.3830
     28 C           6.0613   -3.7558   19.4731 C.3     1  UNL1        0.1017
     29 H           4.7778   -1.6017   17.1157 H       1  UNL1        0.2104
@<TRIPOS>BOND
     1     8     9    1
     2     9    10   am
     3    10    11    2
     4    10    12    1
     5    12    13    1
     6    13    14    2
     7    13    15   am
     8    15    17    1
     9    17    18   ar
    10    18    19   ar
    11    19    20   ar
    12    20    21   ar
    13     9     1    1
    14     1    22    1
    15    22    23    1
    16    23    24    1
    17    24    25    1
    18    25    26    1
    19    26    27    1
    20    26    28    1
    21     1     2    1
    22     2     3   ar
    23     3     4   ar
    24     4     5   ar
    25     5     6   ar
    26     6     7   ar
    27    21    17   ar
    28    28    23    1
    29     7     2   ar
    30    15    16    1
    31    27    29    1
@<TRIPOS>MOLECULE
*****
 29 31 0 0 0
SMALL
GASTEIGER

@<TRIPOS>ATOM
      1 C          -9.8684  -18.3715   23.8536 C.3     1  UNL1        0.1138
      2 C         -11.3327  -18.1812   23.5896 C.ar    1  UNL1       -0.0029
      3 C         -11.7917  -17.6259   22.2740 C.ar    1  UNL1       -0.0026
      4 C         -13.2559  -17.4356   22.0101 C.ar    1  UNL1       -0.0003
      5 C         -14.2612  -17.8006   23.0618 C.ar    1  UNL1       -0.0000
      6 C         -13.8022  -18.3559   24.3775 C.ar    1  UNL1       -0.0003
      7 C         -12.3380  -18.5462   24.6414 C.ar    1  UNL1       -0.0026
      8 C          -8.6231  -20.6162   23.4526 C.3     1  UNL1        0.1152
      9 N          -9.0560  -19.2656   22.9643 N.am    1  UNL1       -0.2739
     10 C          -8.6765  -18.8089   21.5868 C.2     1  UNL1        0.2352
     11 O          -9.1094  -17.4583   21.0985 O.2     1  UNL1       -0.2743
     12 C          -7.8642  -19.7030   20.6975 C.3     1  UNL1        0.1703
     13 C          -6.3685  -19.7141   20.8100 C.2     1  UNL1        0.2368
     14 O          -5.5949  -20.9334   20.4041 O.2     1  UNL1       -0.2742
     15 N          -5.6463  -18.5058   21.3282 N.am    1  UNL1       -0.2637
     16 H          -6.1540  -17.7055   21.5946 H       1  UNL1        0.1568
     17 C          -4.1506  -18.5170   21.4407 C.ar    1  UNL1        0.1656
     18 N          -3.3607  -18.3829   22.7089 N.ar    1  UNL1       -0.2224
     19 C          -1.9040  -18.4472   22.3567 C.ar    1  UNL1        0.1079
     20 C          -1.7936  -18.6209   20.8708 C.ar    1  UNL1        0.0588
     21 S          -3.1821  -18.6641   20.3047 S.2     1  UNL1       -0.0508
     22 C          -9.2165  -17.6678   25.0067 C.3     1  UNL1        0.0968
     23 N          -8.1308  -16.6635   24.7558 N.3     1  UNL1       -0.2689
     24 C          -7.8028  -16.0312   23.4357 C.3     1  UNL1        0.0748
     25 C          -6.6519  -15.0921   23.6448 C.3     1  UNL1        0.0480
     26 C          -6.2687  -15.1442   25.0942 C.3     1  UNL1        0.1278
     27 O          -5.1653  -14.3624   25.7430 O.3     1  UNL1       -0.3830
     28 C          -7.1827  -16.1154   25.7807 C.3     1  UNL1        0.1017
     29 H          -4.7274  -13.8083   25.0781 H       1  UNL1        0.2104
@<TRIPOS>BOND
     1     8     9    1
     2     9    10   am
     3    10    11    2
     4    10    12    1
     5    12    13    1
     6    13    14    2
     7    13    15   am
     8    15    17    1
     9    17    18   ar
    10    18    19   ar
    11    19    20   ar
    12    20    21   ar
    13     9     1    1
    14     1    22    1
    15    22    23    1
    16    23    24    1
    17    24    25    1
    18    25    26    1
    19    26    27    1
    20    26    28    1
    21     1     2    1
    22     2     3   ar
    23     3     4   ar
    24     4     5   ar
    25     5     6   ar
    26     6     7   ar
    27    21    17   ar
    28    28    23    1
    29     7     2   ar
    30    15    16    1
    31    27    29    1
@<TRIPOS>MOLECULE
*****
 29 31 0 0 0
SMALL
GASTEIGER

@<TRIPOS>ATOM
      1 C           2.4459   -0.3875   20.9097 C.3     1  UNL1        0.1138
      2 C           2.9329   -0.6636   22.3014 C.ar    1  UNL1       -0.0029
      3 C           3.8879   -1.7929   22.5516 C.ar    1  UNL1       -0.0026
      4 C           4.3749   -2.0689   23.9432 C.ar    1  UNL1       -0.0003
      5 C           3.9069   -1.2156   25.0846 C.ar    1  UNL1       -0.0000
      6 C           2.9519   -0.0863   24.8344 C.ar    1  UNL1       -0.0003
      7 C           2.4649    0.1897   23.4428 C.ar    1  UNL1       -0.0026
      8 C           3.2647    1.9707   20.1897 C.3     1  UNL1        0.1152
      9 N           2.1436    1.0193   20.4862 N.am    1  UNL1       -0.2739
     10 C           0.7200    1.4748   20.3592 C.2     1  UNL1        0.2352
     11 O          -0.4011    0.5235   20.6557 O.2     1  UNL1       -0.2743
     12 C           0.4177    2.8817   19.9357 C.3     1  UNL1        0.1703
     13 C          -1.0052    3.3467   19.8397 C.2     1  UNL1        0.2368
     14 O          -1.3929    4.3671   18.8110 O.2     1  UNL1       -0.2742
     15 N          -2.0403    2.7912   20.7724 N.am    1  UNL1       -0.2637
     16 H          -1.7858    2.1214   21.4476 H       1  UNL1        0.1568
     17 C          -3.4631    3.2562   20.6764 C.ar    1  UNL1        0.1656
     18 N          -4.2392    3.4642   19.4097 N.ar    1  UNL1       -0.2224
     19 C          -5.6155    3.9314   19.7806 C.ar    1  UNL1        0.1079
     20 C          -5.6901    4.0122   21.2766 C.ar    1  UNL1        0.0588
     21 S          -4.3598    3.5949   21.8302 S.2     1  UNL1       -0.0508
     22 C           2.2612   -1.5183   19.9417 C.3     1  UNL1        0.0968
     23 N           3.4574   -2.1780   19.3218 N.3     1  UNL1       -0.2689
     24 C           3.7420   -3.6506   19.3049 C.3     1  UNL1        0.0748
     25 C           5.0394   -3.8636   18.5827 C.3     1  UNL1        0.0480
     26 C           5.5566   -2.5226   18.1535 C.3     1  UNL1        0.1278
     27 O           6.8281   -2.2681   17.3997 O.3     1  UNL1       -0.3830
     28 C           4.5788   -1.4808   18.6102 C.3     1  UNL1        0.1017
     29 H           7.2758   -3.1110   17.2269 H       1  UNL1        0.2104
@<TRIPOS>BOND
     1     8     9    1
     2     9    10   am
     3    10    11    2
     4    10    12    1
     5    12    13    1
     6    13    14    2
     7    13    15   am
     8    15    17    1
     9    17    18   ar
    10    18    19   ar
    11    19    20   ar
    12    20    21   ar
    13     9     1    1
    14     1    22    1
    15    22    23    1
    16    23    24    1
    17    24    25    1
    18    25    26    1
    19    26    27    1
    20    26    28    1
    21     1     2    1
    22     2     3   ar
    23     3     4   ar
    24     4     5   ar
    25     5     6   ar
    26     6     7   ar
    27    21    17   ar
    28    28    23    1
    29     7     2   ar
    30    15    16    1
    31    27    29    1
@<TRIPOS>MOLECULE
*****
 29 31 0 0 0
SMALL
GASTEIGER

@<TRIPOS>ATOM
      1 C         -13.7701   -6.9508   18.2425 C.3     1  UNL1        0.1138
      2 C         -12.4253   -6.3369   18.4967 C.ar    1  UNL1       -0.0029
      3 C         -12.2846   -4.8456   18.5763 C.ar    1  UNL1       -0.0026
      4 C         -10.9398   -4.2318   18.8305 C.ar    1  UNL1       -0.0003
      5 C          -9.7357   -5.1091   19.0051 C.ar    1  UNL1       -0.0000
      6 C          -9.8764   -6.6004   18.9256 C.ar    1  UNL1       -0.0003
      7 C         -11.2212   -7.2142   18.6714 C.ar    1  UNL1       -0.0026
      8 C         -15.1939   -6.2177   16.1967 C.3     1  UNL1        0.1152
      9 N         -14.8752   -6.1210   17.6592 N.am    1  UNL1       -0.2739
     10 C         -15.6616   -5.1945   18.5385 C.2     1  UNL1        0.2352
     11 O         -15.3429   -5.0978   20.0011 O.2     1  UNL1       -0.2743
     12 C         -16.7667   -4.3647   17.9553 C.3     1  UNL1        0.1703
     13 C         -16.7584   -2.8750   18.1300 C.2     1  UNL1        0.2368
     14 O         -17.4799   -2.0006   17.1478 O.2     1  UNL1       -0.2742
     15 N         -16.0285   -2.2596   19.2870 N.am    1  UNL1       -0.2637
     16 H         -15.5549   -2.8335   19.9317 H       1  UNL1        0.1568
     17 C         -16.0201   -0.7699   19.4618 C.ar    1  UNL1        0.1656
     18 N         -15.0351    0.1838   18.8531 N.ar    1  UNL1       -0.2224
     19 C         -15.4015    1.5708   19.2910 C.ar    1  UNL1        0.1079
     20 C         -16.6129    1.4745   20.1704 C.ar    1  UNL1        0.0588
     21 S         -16.9953    0.0278   20.2759 S.2     1  UNL1       -0.0508
     22 C         -14.0098   -8.3945   18.5715 C.3     1  UNL1        0.0968
     23 N         -15.4057   -8.8865   18.8154 N.3     1  UNL1       -0.2689
     24 C         -16.3242   -8.4266   19.9086 C.3     1  UNL1        0.0748
     25 C         -17.6144   -9.1805   19.7777 C.3     1  UNL1        0.0480
     26 C         -17.4932  -10.1063   18.6037 C.3     1  UNL1        0.1278
     27 O         -18.5513  -11.0484   18.1110 O.3     1  UNL1       -0.3830
     28 C         -16.1282   -9.9246   18.0090 C.3     1  UNL1        0.1017
     29 H         -19.3393  -10.9711   18.6712 H       1  UNL1        0.2104
@<TRIPOS>BOND
     1     8     9    1
     2     9    10   am
     3    10    11    2
     4    10    12    1
     5    12    13    1
     6    13    14    2
     7    13    15   am
     8    15    17    1
     9    17    18   ar
    10    18    19   ar
    11    19    20   ar
    12    20    21   ar
    13     9     1    1
    14     1    22    1
    15    22    23    1
    16    23    24    1
    17    24    25    1
    18    25    26    1
    19    26    27    1
    20    26    28    1
    21     1     2    1
    22     2     3   ar
    23     3     4   ar
    24     4     5   ar
    25     5     6   ar
    26     6     7   ar
    27    21    17   ar
    28    28    23    1
    29     7     2   ar
    30    15    16    1
    31    27    29    1
@<TRIPOS>MOLECULE
*****
 29 31 0 0 0
SMALL
GASTEIGER

@<TRIPOS>ATOM
      1 C           6.0797   -1.3905   31.4510 C.3     1  UNL1        0.1138
      2 C           6.3704   -2.7844   30.9792 C.ar    1  UNL1       -0.0029
      3 C           6.3701   -3.0950   29.5118 C.ar    1  UNL1       -0.0026
      4 C           6.6608   -4.4888   29.0401 C.ar    1  UNL1       -0.0003
      5 C           6.9519   -5.5722   30.0359 C.ar    1  UNL1       -0.0000
      6 C           6.9523   -5.2617   31.5034 C.ar    1  UNL1       -0.0003
      7 C           6.6615   -3.8678   31.9750 C.ar    1  UNL1       -0.0026
      8 C           7.6513   -0.5522   33.3423 C.3     1  UNL1        0.1152
      9 N           6.3016   -1.0236   32.8884 N.am    1  UNL1       -0.2739
     10 C           5.1738   -1.1281   33.8719 C.2     1  UNL1        0.2352
     11 O           3.8241   -1.5994   33.4179 O.2     1  UNL1       -0.2743
     12 C           5.3957   -0.7612   35.3093 C.3     1  UNL1        0.1703
     13 C           4.5760    0.3243   35.9414 C.2     1  UNL1        0.2368
     14 O           4.1137    1.4905   35.1190 O.2     1  UNL1       -0.2742
     15 N           4.2185    0.2437   37.3960 N.am    1  UNL1       -0.2637
     16 H           4.5219   -0.5217   37.9357 H       1  UNL1        0.1568
     17 C           3.3988    1.3292   38.0281 C.ar    1  UNL1        0.1656
     18 N           1.9007    1.3858   38.0804 N.ar    1  UNL1       -0.2224
     19 C           1.5092    2.6403   38.8036 C.ar    1  UNL1        0.1079
     20 C           2.7653    3.3590   39.1983 C.ar    1  UNL1        0.0588
     21 S           3.9331    2.5487   38.7190 S.2     1  UNL1       -0.0508
     22 C           5.5670   -0.3635   30.4853 C.3     1  UNL1        0.0968
     23 N           4.1084   -0.0138   30.4666 N.3     1  UNL1       -0.2689
     24 C           3.4729    1.1539   31.1612 C.3     1  UNL1        0.0748
     25 C           2.0010    1.1191   30.8739 C.3     1  UNL1        0.0480
     26 C           1.7270   -0.0702   30.0017 C.3     1  UNL1        0.1278
     27 O           0.3861   -0.4862   29.4740 O.3     1  UNL1       -0.3830
     28 C           3.0295   -0.7703   29.7500 C.3     1  UNL1        0.1017
     29 H          -0.2906    0.1360   29.7837 H       1  UNL1        0.2104
@<TRIPOS>BOND
     1     8     9    1
     2     9    10   am
     3    10    11    2
     4    10    12    1
     5    12    13    1
     6    13    14    2
     7    13    15   am
     8    15    17    1
     9    17    18   ar
    10    18    19   ar
    11    19    20   ar
    12    20    21   ar
    13     9     1    1
    14     1    22    1
    15    22    23    1
    16    23    24    1
    17    24    25    1
    18    25    26    1
    19    26    27    1
    20    26    28    1
    21     1     2    1
    22     2     3   ar
    23     3     4   ar
    24     4     5   ar
    25     5     6   ar
    26     6     7   ar
    27    21    17   ar
    28    28    23    1
    29     7     2   ar
    30    15    16    1
    31    27    29    1
@<TRIPOS>MOLECULE
*****
 29 31 0 0 0
SMALL
GASTEIGER

@<TRIPOS>ATOM
      1 C           6.7927   -0.2845   33.0265 C.3     1  UNL1        0.1138
      2 C           7.2495   -1.6329   32.5539 C.ar    1  UNL1       -0.0029
      3 C           6.2476   -2.7238   32.3176 C.ar    1  UNL1       -0.0026
      4 C           6.7045   -4.0721   31.8450 C.ar    1  UNL1       -0.0003
      5 C           8.1632   -4.3294   31.6087 C.ar    1  UNL1       -0.0000
      6 C           9.1651   -3.2384   31.8450 C.ar    1  UNL1       -0.0003
      7 C           8.7083   -1.8901   32.3176 C.ar    1  UNL1       -0.0026
      8 C           8.1956    0.8231   34.9120 C.3     1  UNL1        0.1152
      9 N           6.9584    0.1013   34.4666 N.am    1  UNL1       -0.2739
     10 C           5.8870   -0.2348   35.4612 C.2     1  UNL1        0.2352
     11 O           4.6499   -0.9566   35.0157 O.2     1  UNL1       -0.2743
     12 C           6.0528    0.1510   36.9012 C.3     1  UNL1        0.1703
     13 C           4.9397    0.8507   37.6231 C.2     1  UNL1        0.2368
     14 O           5.2402    2.0255   38.5060 O.2     1  UNL1       -0.2742
     15 N           3.5260    0.3756   37.4622 N.am    1  UNL1       -0.2637
     16 H           3.3288   -0.3955   36.8828 H       1  UNL1        0.1568
     17 C           2.4129    1.0754   38.1842 C.ar    1  UNL1        0.1656
     18 N           1.8421    2.4179   37.8349 N.ar    1  UNL1       -0.2224
     19 C           0.7515    2.7278   38.8170 C.ar    1  UNL1        0.1079
     20 C           0.6482    1.5768   39.7734 C.ar    1  UNL1        0.0588
     21 S           1.6750    0.5555   39.3822 S.2     1  UNL1       -0.0508
     22 C           6.1701    0.6780   32.0591 C.3     1  UNL1        0.0968
     23 N           4.6827    0.6895   31.8649 N.3     1  UNL1       -0.2689
     24 C           3.9245   -0.0709   30.8175 C.3     1  UNL1        0.0748
     25 C           2.4656    0.2331   30.9892 C.3     1  UNL1        0.0480
     26 C           2.3223    1.1813   32.1426 C.3     1  UNL1        0.1278
     27 O           1.0348    1.7480   32.6634 O.3     1  UNL1       -0.3830
     28 C           3.6925    1.4634   32.6838 C.3     1  UNL1        0.1017
     29 H           0.2950    1.4065   32.1371 H       1  UNL1        0.2104
@<TRIPOS>BOND
     1     8     9    1
     2     9    10   am
     3    10    11    2
     4    10    12    1
     5    12    13    1
     6    13    14    2
     7    13    15   am
     8    15    17    1
     9    17    18   ar
    10    18    19   ar
    11    19    20   ar
    12    20    21   ar
    13     9     1    1
    14     1    22    1
    15    22    23    1
    16    23    24    1
    17    24    25    1
    18    25    26    1
    19    26    27    1
    20    26    28    1
    21     1     2    1
    22     2     3   ar
    23     3     4   ar
    24     4     5   ar
    25     5     6   ar
    26     6     7   ar
    27    21    17   ar
    28    28    23    1
    29     7     2   ar
    30    15    16    1
    31    27    29    1
