@<TRIPOS>MOLECULE
*****
 34 37 0 0 0
SMALL
GASTEIGER

@<TRIPOS>ATOM
      1 C           2.1737    0.1046   22.1040 C.2     1  UNL1        0.1397
      2 C           3.0007   -0.9627   21.4507 C.2     1  UNL1        0.1355
      3 N           3.9831   -1.7531   22.2634 N.pl3   1  UNL1       -0.1998
      4 C           4.1384   -1.4761   23.7293 C.2     1  UNL1        0.3442
      5 N           3.3114   -0.4088   24.3826 N.2     1  UNL1       -0.0580
      6 C           2.3291    0.3815   23.5700 C.3     1  UNL1        0.2695
      7 H           4.5258   -2.4536   21.8345 H       1  UNL1        0.2983
      8 C           1.5020    1.4489   24.2234 C.ar    1  UNL1        0.0415
      9 C           0.1638    1.1077   24.8087 C.ar    1  UNL1        0.0034
     10 C          -0.6633    2.1749   25.4621 C.ar    1  UNL1        0.0295
     11 C          -0.1520    3.5835   25.5302 C.ar    1  UNL1        0.1410
     12 F          -0.9790    4.6508   26.1836 F       1  UNL1       -0.2041
     13 C           1.1863    3.9248   24.9449 C.ar    1  UNL1        0.0408
     14 C           2.0133    2.8574   24.2915 C.ar    1  UNL1        0.0603
     15 CL          3.3516    3.1986   23.7062 Cl      1  UNL1       -0.0824
     16 C           5.1208   -2.2664   24.5420 C.ar    1  UNL1        0.1931
     17 N           5.8000   -3.5340   24.1156 N.ar    1  UNL1       -0.2297
     18 C           6.6954   -3.9789   25.2337 C.ar    1  UNL1        0.1067
     19 C           6.5696   -2.9863   26.3512 C.ar    1  UNL1        0.0577
     20 S           5.5964   -1.9279   25.9237 S.2     1  UNL1       -0.0586
     21 C           1.1914    0.8949   21.2914 C.2     1  UNL1        0.3448
     22 O          -0.1254    0.2874   20.9079 O.2     1  UNL1       -0.2450
     23 C           2.8027    2.5655   20.1241 C.3     1  UNL1        0.2559
     24 O           1.5257    2.2927   20.8623 O.3     1  UNL1       -0.4414
     25 C           2.8454   -1.2398   19.9847 C.3     1  UNL1        0.1407
     26 N           4.0597   -1.4033   19.1195 N.3     1  UNL1       -0.2584
     27 C           4.6679   -0.2085   18.4469 C.3     1  UNL1        0.1052
     28 C           5.8823   -0.3721   17.5817 C.3     1  UNL1        0.1595
     29 O           6.4885   -1.7305   17.3892 O.3     1  UNL1       -0.3505
     30 C           5.8804   -2.9254   18.0618 C.3     1  UNL1        0.1637
     31 C           4.6660   -2.7618   18.9270 C.3     1  UNL1        0.1247
     32 C           4.0579   -3.9567   19.5996 C.2     1  UNL1        0.0673
     33 O           2.9064   -4.6731   18.9585 O.co2   1  UNL1       -0.5477
     34 O           4.6011   -4.4352   20.9133 O.co2   1  UNL1       -0.5477
@<TRIPOS>UNITY_ATOM_ATTR
33 1
charge -1
@<TRIPOS>BOND
     1    23    24    1
     2    24    21    1
     3    21    22    2
     4    21     1    1
     5     1     2    2
     6     2    25    1
     7    25    26    1
     8    26    27    1
     9    27    28    1
    10    28    29    1
    11    29    30    1
    12    30    31    1
    13    31    32    1
    14    32    33   ar
    15    32    34   ar
    16     2     3    1
    17     3     4    1
    18     4    16    1
    19    16    17   ar
    20    17    18   ar
    21    18    19   ar
    22    19    20   ar
    23     4     5    2
    24     5     6    1
    25     6     8    1
    26     8     9   ar
    27     9    10   ar
    28    10    11   ar
    29    11    12    1
    30    11    13   ar
    31    13    14   ar
    32    14    15    1
    33     6     1    1
    34    14     8   ar
    35    31    26    1
    36    20    16   ar
    37     3     7    1
@<TRIPOS>MOLECULE
*****
 34 37 0 0 0
SMALL
GASTEIGER

@<TRIPOS>ATOM
      1 C           4.1802   -0.3226   29.5741 C.2     1  UNL1        0.1397
      2 C           5.3791   -0.7598   30.3623 C.2     1  UNL1        0.1355
      3 N           5.4093   -0.5683   31.8498 N.pl3   1  UNL1       -0.1998
      4 C           4.2406    0.0603   32.5489 C.2     1  UNL1        0.3442
      5 N           3.0417    0.4975   31.7606 N.2     1  UNL1       -0.0580
      6 C           3.0115    0.3061   30.2732 C.3     1  UNL1        0.2695
      7 H           6.1962   -0.8553   32.3671 H       1  UNL1        0.2983
      8 C           1.8125    0.7433   29.4849 C.ar    1  UNL1        0.0415
      9 C           0.6855   -0.2159   29.2399 C.ar    1  UNL1        0.0034
     10 C          -0.5134    0.2213   28.4516 C.ar    1  UNL1        0.0295
     11 C          -0.5855    1.6177   27.9084 C.ar    1  UNL1        0.1410
     12 F          -1.7844    2.0548   27.1202 F       1  UNL1       -0.2041
     13 C           0.5415    2.5768   28.1535 C.ar    1  UNL1        0.0408
     14 C           1.7405    2.1396   28.9417 C.ar    1  UNL1        0.0603
     15 CL          2.8674    3.0987   29.1868 Cl      1  UNL1       -0.0824
     16 C           4.2708    0.2518   34.0363 C.ar    1  UNL1        0.1931
     17 N           4.7656   -0.7435   35.0436 N.ar    1  UNL1       -0.2297
     18 C           4.6121   -0.1382   36.4074 C.ar    1  UNL1        0.1067
     19 C           4.0223    1.2311   36.2431 C.ar    1  UNL1        0.0577
     20 S           3.8114    1.4722   34.7777 S.2     1  UNL1       -0.0586
     21 C           4.1500   -0.5141   28.0866 C.2     1  UNL1        0.3448
     22 O           3.4235   -1.6859   27.4959 O.2     1  UNL1       -0.2450
     23 C           4.0674    1.2157   26.1499 C.3     1  UNL1        0.2559
     24 O           4.8463    0.4663   27.1900 O.3     1  UNL1       -0.4414
     25 C           6.5479   -1.3885   29.6632 C.3     1  UNL1        0.1407
     26 N           6.5545   -2.8637   29.3917 N.3     1  UNL1       -0.2584
     27 C           6.3407   -3.3704   27.9962 C.3     1  UNL1        0.1052
     28 C           6.3473   -4.8457   27.7247 C.3     1  UNL1        0.1595
     29 O           6.5678   -5.8141   28.8487 O.3     1  UNL1       -0.3505
     30 C           6.7817   -5.3074   30.2442 C.3     1  UNL1        0.1637
     31 C           6.7750   -3.8322   30.5157 C.3     1  UNL1        0.1247
     32 C           6.9889   -3.3255   31.9112 C.2     1  UNL1        0.0673
     33 O           5.8326   -3.2378   32.8628 O.co2   1  UNL1       -0.5477
     34 O           8.3590   -2.9064   32.3553 O.co2   1  UNL1       -0.5477
@<TRIPOS>UNITY_ATOM_ATTR
33 1
charge -1
@<TRIPOS>BOND
     1    23    24    1
     2    24    21    1
     3    21    22    2
     4    21     1    1
     5     1     2    2
     6     2    25    1
     7    25    26    1
     8    26    27    1
     9    27    28    1
    10    28    29    1
    11    29    30    1
    12    30    31    1
    13    31    32    1
    14    32    33   ar
    15    32    34   ar
    16     2     3    1
    17     3     4    1
    18     4    16    1
    19    16    17   ar
    20    17    18   ar
    21    18    19   ar
    22    19    20   ar
    23     4     5    2
    24     5     6    1
    25     6     8    1
    26     8     9   ar
    27     9    10   ar
    28    10    11   ar
    29    11    12    1
    30    11    13   ar
    31    13    14   ar
    32    14    15    1
    33     6     1    1
    34    14     8   ar
    35    31    26    1
    36    20    16   ar
    37     3     7    1
@<TRIPOS>MOLECULE
*****
 34 37 0 0 0
SMALL
GASTEIGER

@<TRIPOS>ATOM
      1 C           3.1137    0.7815   32.5462 C.2     1  UNL1        0.1397
      2 C           2.1069    1.8053   32.9796 C.2     1  UNL1        0.1355
      3 N           2.0738    2.2676   34.4063 N.pl3   1  UNL1       -0.1998
      4 C           3.0475    1.7060   35.3994 C.2     1  UNL1        0.3442
      5 N           4.0544    0.6821   34.9659 N.2     1  UNL1       -0.0580
      6 C           4.0875    0.2199   33.5393 C.3     1  UNL1        0.2695
      7 H           1.4129    2.9396   34.6907 H       1  UNL1        0.2983
      8 C           5.0944   -0.8040   33.1059 C.ar    1  UNL1        0.0415
      9 C           4.7182   -2.2555   33.0653 C.ar    1  UNL1        0.0034
     10 C           5.7251   -3.2794   32.6319 C.ar    1  UNL1        0.0295
     11 C           7.1082   -2.8518   32.2390 C.ar    1  UNL1        0.1410
     12 F           8.1150   -3.8757   31.8056 F       1  UNL1       -0.2041
     13 C           7.4843   -1.4003   32.2796 C.ar    1  UNL1        0.0408
     14 C           6.4774   -0.3764   32.7130 C.ar    1  UNL1        0.0603
     15 CL          6.8536    1.0751   32.7536 Cl      1  UNL1       -0.0824
     16 C           3.0144    2.1682   36.8260 C.ar    1  UNL1        0.1931
     17 N           1.7924    2.2792   37.6887 N.ar    1  UNL1       -0.2297
     18 C           2.2202    2.7802   39.0363 C.ar    1  UNL1        0.1067
     19 C           3.7067    2.9788   39.0065 C.ar    1  UNL1        0.0577
     20 S           4.1975    2.6006   37.6404 S.2     1  UNL1       -0.0586
     21 C           3.1469    0.3193   31.1195 C.2     1  UNL1        0.3448
     22 O           4.2441    0.7808   30.2069 O.2     1  UNL1       -0.2450
     23 C           1.3639   -0.2838   29.3287 C.3     1  UNL1        0.2559
     24 O           2.0827   -0.6045   30.6056 O.3     1  UNL1       -0.4414
     25 C           1.1331    2.3670   31.9865 C.3     1  UNL1        0.1407
     26 N           1.4427    3.6515   31.2765 N.3     1  UNL1       -0.2584
     27 C           2.2111    3.6302   29.9884 C.3     1  UNL1        0.1052
     28 C           2.5207    4.9148   29.2785 C.3     1  UNL1        0.1595
     29 O           2.0620    6.2207   29.8566 O.3     1  UNL1       -0.3505
     30 C           1.2937    6.2420   31.1447 C.3     1  UNL1        0.1637
     31 C           0.9841    4.9575   31.8547 C.3     1  UNL1        0.1247
     32 C           0.2157    4.9788   33.1428 C.2     1  UNL1        0.0673
     33 O           0.9428    4.8837   34.4514 O.co2   1  UNL1       -0.5477
     34 O          -1.2796    5.0952   33.1223 O.co2   1  UNL1       -0.5477
@<TRIPOS>UNITY_ATOM_ATTR
33 1
charge -1
@<TRIPOS>BOND
     1    23    24    1
     2    24    21    1
     3    21    22    2
     4    21     1    1
     5     1     2    2
     6     2    25    1
     7    25    26    1
     8    26    27    1
     9    27    28    1
    10    28    29    1
    11    29    30    1
    12    30    31    1
    13    31    32    1
    14    32    33   ar
    15    32    34   ar
    16     2     3    1
    17     3     4    1
    18     4    16    1
    19    16    17   ar
    20    17    18   ar
    21    18    19   ar
    22    19    20   ar
    23     4     5    2
    24     5     6    1
    25     6     8    1
    26     8     9   ar
    27     9    10   ar
    28    10    11   ar
    29    11    12    1
    30    11    13   ar
    31    13    14   ar
    32    14    15    1
    33     6     1    1
    34    14     8   ar
    35    31    26    1
    36    20    16   ar
    37     3     7    1
@<TRIPOS>MOLECULE
*****
 34 37 0 0 0
SMALL
GASTEIGER

@<TRIPOS>ATOM
      1 C           3.3358    0.6021   32.3050 C.2     1  UNL1        0.1397
      2 C           2.2039    0.9766   31.3947 C.2     1  UNL1        0.1355
      3 N           1.3416    2.1605   31.7182 N.pl3   1  UNL1       -0.1998
      4 C           1.6111    2.9700   32.9519 C.2     1  UNL1        0.3442
      5 N           2.7430    2.5955   33.8621 N.2     1  UNL1       -0.0580
      6 C           3.6053    1.4115   33.5387 C.3     1  UNL1        0.2695
      7 H           0.5987    2.4063   31.1207 H       1  UNL1        0.2983
      8 C           4.7372    1.0370   34.4490 C.ar    1  UNL1        0.0415
      9 C           4.4975    0.1048   35.5994 C.ar    1  UNL1        0.0034
     10 C           5.6293   -0.2697   36.5097 C.ar    1  UNL1        0.0295
     11 C           7.0010    0.2881   36.2696 C.ar    1  UNL1        0.1410
     12 F           8.1328   -0.0864   37.1799 F       1  UNL1       -0.2041
     13 C           7.2407    1.2203   35.1192 C.ar    1  UNL1        0.0408
     14 C           6.1088    1.5948   34.2089 C.ar    1  UNL1        0.0603
     15 CL          6.3485    2.5271   33.0585 Cl      1  UNL1       -0.0824
     16 C           0.7488    4.1539   33.2754 C.ar    1  UNL1        0.1931
     17 N          -0.5246    4.5337   32.5794 N.ar    1  UNL1       -0.2297
     18 C          -1.0519    5.7805   33.2255 C.ar    1  UNL1        0.1067
     19 C          -0.1045    6.1713   34.3208 C.ar    1  UNL1        0.0577
     20 S           1.0084    5.1660   34.3516 S.2     1  UNL1       -0.0586
     21 C           4.1981   -0.5819   31.9815 C.2     1  UNL1        0.3448
     22 O           5.4687   -0.3949   31.2065 O.2     1  UNL1       -0.2450
     23 C           4.7366   -2.7888   33.2422 C.3     1  UNL1        0.2559
     24 O           3.7899   -1.9528   32.4330 O.3     1  UNL1       -0.4414
     25 C           1.9344    0.1671   30.1609 C.3     1  UNL1        0.1407
     26 N           1.6236    0.8558   28.8651 N.3     1  UNL1       -0.2584
     27 C           2.7240    1.5011   28.0760 C.3     1  UNL1        0.1052
     28 C           2.4132    2.1898   26.7801 C.3     1  UNL1        0.1595
     29 O           1.0021    2.2332   26.2735 O.3     1  UNL1       -0.3505
     30 C          -0.0983    1.5880   27.0627 C.3     1  UNL1        0.1637
     31 C           0.2124    0.8993   28.3584 C.3     1  UNL1        0.1247
     32 C          -0.8880    0.2540   29.1476 C.2     1  UNL1        0.0673
     33 O          -1.6031   -0.9439   28.5965 O.co2   1  UNL1       -0.5477
     34 O          -1.2733    0.8067   30.4877 O.co2   1  UNL1       -0.5477
@<TRIPOS>UNITY_ATOM_ATTR
33 1
charge -1
@<TRIPOS>BOND
     1    23    24    1
     2    24    21    1
     3    21    22    2
     4    21     1    1
     5     1     2    2
     6     2    25    1
     7    25    26    1
     8    26    27    1
     9    27    28    1
    10    28    29    1
    11    29    30    1
    12    30    31    1
    13    31    32    1
    14    32    33   ar
    15    32    34   ar
    16     2     3    1
    17     3     4    1
    18     4    16    1
    19    16    17   ar
    20    17    18   ar
    21    18    19   ar
    22    19    20   ar
    23     4     5    2
    24     5     6    1
    25     6     8    1
    26     8     9   ar
    27     9    10   ar
    28    10    11   ar
    29    11    12    1
    30    11    13   ar
    31    13    14   ar
    32    14    15    1
    33     6     1    1
    34    14     8   ar
    35    31    26    1
    36    20    16   ar
    37     3     7    1
@<TRIPOS>MOLECULE
*****
 34 37 0 0 0
SMALL
GASTEIGER

@<TRIPOS>ATOM
      1 C           6.4606   -2.7078   23.0403 C.2     1  UNL1        0.1397
      2 C           6.8098   -2.8720   24.4898 C.2     1  UNL1        0.1355
      3 N           5.9161   -2.2941   25.5468 N.pl3   1  UNL1       -0.1998
      4 C           4.6730   -1.5520   25.1543 C.2     1  UNL1        0.3442
      5 N           4.3238   -1.3878   23.7048 N.2     1  UNL1       -0.0580
      6 C           5.2176   -1.9657   22.6478 C.3     1  UNL1        0.2695
      7 H           6.1453   -2.4018   26.4981 H       1  UNL1        0.2983
      8 C           4.8682   -1.8015   21.1983 C.ar    1  UNL1        0.0415
      9 C           3.9921   -2.8119   20.5189 C.ar    1  UNL1        0.0034
     10 C           3.6428   -2.6477   19.0694 C.ar    1  UNL1        0.0295
     11 C           4.1696   -1.4732   18.2993 C.ar    1  UNL1        0.1410
     12 F           3.8203   -1.3091   16.8498 F       1  UNL1       -0.2041
     13 C           5.0457   -0.4629   18.9787 C.ar    1  UNL1        0.0408
     14 C           5.3950   -0.6271   20.4282 C.ar    1  UNL1        0.0603
     15 CL          6.2711    0.3833   21.1077 Cl      1  UNL1       -0.0824
     16 C           3.7793   -0.9740   26.2112 C.ar    1  UNL1        0.1931
     17 N           3.4508   -1.6070   27.5308 N.ar    1  UNL1       -0.2297
     18 C           2.5255   -0.6859   28.2693 C.ar    1  UNL1        0.1067
     19 C           2.2822    0.5165   27.4061 C.ar    1  UNL1        0.0577
     20 S           3.0570    0.3384   26.1342 S.2     1  UNL1       -0.0586
     21 C           7.3544   -3.2858   21.9834 C.2     1  UNL1        0.3448
     22 O           7.0434   -4.6278   21.3899 O.2     1  UNL1       -0.2450
     23 C           8.7966   -2.3133   20.0536 C.3     1  UNL1        0.2559
     24 O           8.5591   -2.5217   21.5199 O.3     1  UNL1       -0.4414
     25 C           8.0529   -3.6141   24.8824 C.3     1  UNL1        0.1407
     26 N           7.9698   -5.0570   25.2836 N.3     1  UNL1       -0.2584
     27 C           8.1272   -6.1331   24.2505 C.3     1  UNL1        0.1052
     28 C           8.0440   -7.5760   24.6518 C.3     1  UNL1        0.1595
     29 O           7.8036   -7.9429   26.0861 O.3     1  UNL1       -0.3505
     30 C           7.6463   -6.8669   27.1193 C.3     1  UNL1        0.1637
     31 C           7.7294   -5.4240   26.7181 C.3     1  UNL1        0.1247
     32 C           7.5720   -4.3480   27.7512 C.2     1  UNL1        0.0673
     33 O           6.2056   -3.8354   28.0983 O.co2   1  UNL1       -0.5477
     34 O           8.7810   -3.7845   28.4374 O.co2   1  UNL1       -0.5477
@<TRIPOS>UNITY_ATOM_ATTR
33 1
charge -1
@<TRIPOS>BOND
     1    23    24    1
     2    24    21    1
     3    21    22    2
     4    21     1    1
     5     1     2    2
     6     2    25    1
     7    25    26    1
     8    26    27    1
     9    27    28    1
    10    28    29    1
    11    29    30    1
    12    30    31    1
    13    31    32    1
    14    32    33   ar
    15    32    34   ar
    16     2     3    1
    17     3     4    1
    18     4    16    1
    19    16    17   ar
    20    17    18   ar
    21    18    19   ar
    22    19    20   ar
    23     4     5    2
    24     5     6    1
    25     6     8    1
    26     8     9   ar
    27     9    10   ar
    28    10    11   ar
    29    11    12    1
    30    11    13   ar
    31    13    14   ar
    32    14    15    1
    33     6     1    1
    34    14     8   ar
    35    31    26    1
    36    20    16   ar
    37     3     7    1
@<TRIPOS>MOLECULE
*****
 34 37 0 0 0
SMALL
GASTEIGER

@<TRIPOS>ATOM
      1 C          -6.9598  -18.6646   21.8655 C.2     1  UNL1        0.1397
      2 C          -8.2567  -18.4195   22.5779 C.2     1  UNL1        0.1355
      3 N          -8.2925  -17.5317   23.7865 N.pl3   1  UNL1       -0.1998
      4 C          -7.0312  -16.8890   24.2825 C.2     1  UNL1        0.3442
      5 N          -5.7342  -17.1342   23.5700 N.2     1  UNL1       -0.0580
      6 C          -5.6985  -18.0220   22.3615 C.3     1  UNL1        0.2695
      7 H          -9.1437  -17.3707   24.2541 H       1  UNL1        0.2983
      8 C          -4.4014  -18.2671   21.6491 C.ar    1  UNL1        0.0415
      9 C          -4.3813  -18.4113   20.1561 C.ar    1  UNL1        0.0034
     10 C          -3.0843  -18.6564   19.4437 C.ar    1  UNL1        0.0295
     11 C          -1.8073  -18.7574   20.2241 C.ar    1  UNL1        0.1410
     12 F          -0.5103  -19.0026   19.5116 F       1  UNL1       -0.2041
     13 C          -1.8273  -18.6133   21.7170 C.ar    1  UNL1        0.0408
     14 C          -3.1244  -18.3681   22.4295 C.ar    1  UNL1        0.0603
     15 CL         -3.1445  -18.2239   23.9224 Cl      1  UNL1       -0.0824
     16 C          -7.0669  -16.0012   25.4910 C.ar    1  UNL1        0.1931
     17 N          -5.9167  -15.2078   26.0365 N.ar    1  UNL1       -0.2297
     18 C          -6.3980  -14.4671   27.2489 C.ar    1  UNL1        0.1067
     19 C          -7.8457  -14.8028   27.4527 C.ar    1  UNL1        0.0577
     20 S          -8.2590  -15.7509   26.3663 S.2     1  UNL1       -0.0586
     21 C          -6.9240  -19.5525   20.6570 C.2     1  UNL1        0.3448
     22 O          -6.2616  -20.8961   20.7327 O.2     1  UNL1       -0.2450
     23 C          -8.6772  -19.8812   18.7680 C.3     1  UNL1        0.2559
     24 O          -7.5508  -19.0967   19.3727 O.3     1  UNL1       -0.4414
     25 C          -9.5181  -19.0621   22.0819 C.3     1  UNL1        0.1407
     26 N         -10.8452  -18.6356   22.6358 N.3     1  UNL1       -0.2584
     27 C         -11.3360  -19.2086   23.9322 C.3     1  UNL1        0.1052
     28 C         -12.6632  -18.7819   24.4861 C.3     1  UNL1        0.1595
     29 O         -13.4994  -17.7823   23.7436 O.3     1  UNL1       -0.3505
     30 C         -13.0086  -17.2093   22.4472 C.3     1  UNL1        0.1637
     31 C         -11.6815  -17.6359   21.8933 C.3     1  UNL1        0.1247
     32 C         -11.1907  -17.0629   20.5968 C.2     1  UNL1        0.0673
     33 O         -10.3382  -15.8286   20.5974 O.co2   1  UNL1       -0.5477
     34 O         -11.5524  -17.7240   19.2999 O.co2   1  UNL1       -0.5477
@<TRIPOS>UNITY_ATOM_ATTR
33 1
charge -1
@<TRIPOS>BOND
     1    23    24    1
     2    24    21    1
     3    21    22    2
     4    21     1    1
     5     1     2    2
     6     2    25    1
     7    25    26    1
     8    26    27    1
     9    27    28    1
    10    28    29    1
    11    29    30    1
    12    30    31    1
    13    31    32    1
    14    32    33   ar
    15    32    34   ar
    16     2     3    1
    17     3     4    1
    18     4    16    1
    19    16    17   ar
    20    17    18   ar
    21    18    19   ar
    22    19    20   ar
    23     4     5    2
    24     5     6    1
    25     6     8    1
    26     8     9   ar
    27     9    10   ar
    28    10    11   ar
    29    11    12    1
    30    11    13   ar
    31    13    14   ar
    32    14    15    1
    33     6     1    1
    34    14     8   ar
    35    31    26    1
    36    20    16   ar
    37     3     7    1
@<TRIPOS>MOLECULE
*****
 34 37 0 0 0
SMALL
GASTEIGER

@<TRIPOS>ATOM
      1 C           6.3942   -2.6670   25.4947 C.2     1  UNL1        0.1397
      2 C           6.4044   -2.4662   26.9811 C.2     1  UNL1        0.1355
      3 N           5.2622   -1.7612   27.6506 N.pl3   1  UNL1       -0.1998
      4 C           4.1097   -1.2570   26.8337 C.2     1  UNL1        0.3442
      5 N           4.0994   -1.4578   25.3473 N.2     1  UNL1       -0.0580
      6 C           5.2417   -2.1627   24.6778 C.3     1  UNL1        0.2695
      7 H           5.2689   -1.6295   28.6263 H       1  UNL1        0.2983
      8 C           5.2314   -2.3635   23.1912 C.ar    1  UNL1        0.0415
      9 C           4.5789   -3.5794   22.6031 C.ar    1  UNL1        0.0034
     10 C           4.5686   -3.7801   21.1167 C.ar    1  UNL1        0.0295
     11 C           5.2108   -2.7650   20.2183 C.ar    1  UNL1        0.1410
     12 F           5.2005   -2.9658   18.7318 F       1  UNL1       -0.2041
     13 C           5.8633   -1.5491   20.8064 C.ar    1  UNL1        0.0408
     14 C           5.8736   -1.3484   22.2929 C.ar    1  UNL1        0.0603
     15 CL          6.5261   -0.1325   22.8810 Cl      1  UNL1       -0.0824
     16 C           2.9674   -0.5520   27.5032 C.ar    1  UNL1        0.1931
     17 N           2.3178   -0.9543   28.7940 N.ar    1  UNL1       -0.2297
     18 C           1.2231    0.0281   29.0880 C.ar    1  UNL1        0.1067
     19 C           1.1961    1.0376   27.9789 C.ar    1  UNL1        0.0577
     20 S           2.2741    0.6791   26.9994 S.2     1  UNL1       -0.0586
     21 C           7.5365   -3.3719   24.8252 C.2     1  UNL1        0.3448
     22 O           8.7917   -2.6202   24.4948 O.2     1  UNL1       -0.2450
     23 C           8.6582   -5.6757   24.3961 C.3     1  UNL1        0.2559
     24 O           7.4235   -4.8287   24.4861 O.3     1  UNL1       -0.4414
     25 C           7.5570   -2.9704   27.7982 C.3     1  UNL1        0.1407
     26 N           7.3101   -3.5856   29.1437 N.3     1  UNL1       -0.2584
     27 C           7.1645   -2.7104   30.3532 C.3     1  UNL1        0.1052
     28 C           6.9176   -3.3257   31.6988 C.3     1  UNL1        0.1595
     29 O           6.8164   -4.8160   31.8349 O.3     1  UNL1       -0.3505
     30 C           6.9621   -5.6912   30.6254 C.3     1  UNL1        0.1637
     31 C           7.2089   -5.0760   29.2799 C.3     1  UNL1        0.1247
     32 C           7.3546   -5.9512   28.0704 C.2     1  UNL1        0.0673
     33 O           8.6475   -6.6673   27.8141 O.co2   1  UNL1       -0.5477
     34 O           6.2074   -6.1103   27.1172 O.co2   1  UNL1       -0.5477
@<TRIPOS>UNITY_ATOM_ATTR
33 1
charge -1
@<TRIPOS>BOND
     1    23    24    1
     2    24    21    1
     3    21    22    2
     4    21     1    1
     5     1     2    2
     6     2    25    1
     7    25    26    1
     8    26    27    1
     9    27    28    1
    10    28    29    1
    11    29    30    1
    12    30    31    1
    13    31    32    1
    14    32    33   ar
    15    32    34   ar
    16     2     3    1
    17     3     4    1
    18     4    16    1
    19    16    17   ar
    20    17    18   ar
    21    18    19   ar
    22    19    20   ar
    23     4     5    2
    24     5     6    1
    25     6     8    1
    26     8     9   ar
    27     9    10   ar
    28    10    11   ar
    29    11    12    1
    30    11    13   ar
    31    13    14   ar
    32    14    15    1
    33     6     1    1
    34    14     8   ar
    35    31    26    1
    36    20    16   ar
    37     3     7    1
@<TRIPOS>MOLECULE
*****
 34 37 0 0 0
SMALL
GASTEIGER

@<TRIPOS>ATOM
      1 C           2.1325    1.5882   31.6502 C.2     1  UNL1        0.1397
      2 C           2.4705    1.9636   33.0626 C.2     1  UNL1        0.1355
      3 N           1.7808    3.1246   33.7156 N.pl3   1  UNL1       -0.1998
      4 C           0.7531    3.9101   32.9562 C.2     1  UNL1        0.3442
      5 N           0.4151    3.5347   31.5439 N.2     1  UNL1       -0.0580
      6 C           1.1048    2.3737   30.8909 C.3     1  UNL1        0.2695
      7 H           2.0026    3.3709   34.6426 H       1  UNL1        0.2983
      8 C           0.7668    1.9983   29.4784 C.ar    1  UNL1        0.0415
      9 C          -0.3403    1.0236   29.2059 C.ar    1  UNL1        0.0034
     10 C          -0.6783    0.6482   27.7936 C.ar    1  UNL1        0.0295
     11 C           0.0908    1.2475   26.6536 C.ar    1  UNL1        0.1410
     12 F          -0.2472    0.8721   25.2413 F       1  UNL1       -0.2041
     13 C           1.1979    2.2222   26.9261 C.ar    1  UNL1        0.0408
     14 C           1.5359    2.5976   28.3386 C.ar    1  UNL1        0.0603
     15 CL          2.6430    3.5723   28.6111 Cl      1  UNL1       -0.0824
     16 C           0.0633    5.0711   33.6092 C.ar    1  UNL1        0.1931
     17 N          -1.2865    5.6138   33.2440 N.ar    1  UNL1       -0.2297
     18 C          -1.5818    6.7713   34.1511 C.ar    1  UNL1        0.1067
     19 C          -0.4144    6.9441   35.0770 C.ar    1  UNL1        0.0577
     20 S           0.6023    5.8933   34.7421 S.2     1  UNL1       -0.0586
     21 C           2.8223    0.4272   30.9972 C.2     1  UNL1        0.3448
     22 O           2.1724   -0.9247   30.9914 O.2     1  UNL1       -0.2450
     23 C           4.7964   -0.5103   29.5924 C.3     1  UNL1        0.2559
     24 O           4.1619    0.6181   30.3501 O.3     1  UNL1       -0.4414
     25 C           3.4982    1.1780   33.8220 C.3     1  UNL1        0.1407
     26 N           4.6539    1.8827   34.4684 N.3     1  UNL1       -0.2584
     27 C           5.8605    2.2464   33.6548 C.3     1  UNL1        0.1052
     28 C           7.0163    2.9511   34.3012 C.3     1  UNL1        0.1595
     29 O           6.9654    3.2920   35.7611 O.3     1  UNL1       -0.3505
     30 C           5.7588    2.9282   36.5746 C.3     1  UNL1        0.1637
     31 C           4.6031    2.2236   35.9283 C.3     1  UNL1        0.1247
     32 C           3.3965    1.8598   36.7418 C.2     1  UNL1        0.0673
     33 O           3.4566    0.7052   37.6975 O.co2   1  UNL1       -0.5477
     34 O           2.1299    2.6506   36.5996 O.co2   1  UNL1       -0.5477
@<TRIPOS>UNITY_ATOM_ATTR
33 1
charge -1
@<TRIPOS>BOND
     1    23    24    1
     2    24    21    1
     3    21    22    2
     4    21     1    1
     5     1     2    2
     6     2    25    1
     7    25    26    1
     8    26    27    1
     9    27    28    1
    10    28    29    1
    11    29    30    1
    12    30    31    1
    13    31    32    1
    14    32    33   ar
    15    32    34   ar
    16     2     3    1
    17     3     4    1
    18     4    16    1
    19    16    17   ar
    20    17    18   ar
    21    18    19   ar
    22    19    20   ar
    23     4     5    2
    24     5     6    1
    25     6     8    1
    26     8     9   ar
    27     9    10   ar
    28    10    11   ar
    29    11    12    1
    30    11    13   ar
    31    13    14   ar
    32    14    15    1
    33     6     1    1
    34    14     8   ar
    35    31    26    1
    36    20    16   ar
    37     3     7    1
@<TRIPOS>MOLECULE
*****
 34 37 0 0 0
SMALL
GASTEIGER

@<TRIPOS>ATOM
      1 C           5.7460   -2.0897   24.8911 C.2     1  UNL1        0.1397
      2 C           5.9672   -1.9858   26.3710 C.2     1  UNL1        0.1355
      3 N           6.5294   -3.1517   27.1290 N.pl3   1  UNL1       -0.1998
      4 C           6.8706   -4.4214   26.4071 C.2     1  UNL1        0.3442
      5 N           6.6494   -4.5253   24.9271 N.2     1  UNL1       -0.0580
      6 C           6.0871   -3.3594   24.1691 C.3     1  UNL1        0.2695
      7 H           6.6746   -3.0835   28.1003 H       1  UNL1        0.2983
      8 C           5.8660   -3.4634   22.6891 C.ar    1  UNL1        0.0415
      9 C           4.5322   -3.8991   22.1589 C.ar    1  UNL1        0.0034
     10 C           4.3110   -4.0031   20.6790 C.ar    1  UNL1        0.0295
     11 C           5.4237   -3.6713   19.7292 C.ar    1  UNL1        0.1410
     12 F           5.2025   -3.7753   18.2493 F       1  UNL1       -0.2041
     13 C           6.7575   -3.2355   20.2594 C.ar    1  UNL1        0.0408
     14 C           6.9786   -3.1316   21.7394 C.ar    1  UNL1        0.0603
     15 CL          8.3124   -2.6958   22.2696 Cl      1  UNL1       -0.0824
     16 C           7.4328   -5.5873   27.1651 C.ar    1  UNL1        0.1931
     17 N           7.5839   -6.9864   26.6458 N.ar    1  UNL1       -0.2297
     18 C           8.1872   -7.8226   27.7352 C.ar    1  UNL1        0.1067
     19 C           8.4090   -6.9403   28.9278 C.ar    1  UNL1        0.0577
     20 S           7.9427   -5.5588   28.5754 S.2     1  UNL1       -0.0586
     21 C           5.1838   -0.9238   24.1331 C.2     1  UNL1        0.3448
     22 O           6.1049    0.0259   23.4263 O.2     1  UNL1       -0.2450
     23 C           2.9955   -0.6537   22.7588 C.3     1  UNL1        0.2559
     24 O           3.7003   -0.7076   24.0818 O.3     1  UNL1       -0.4414
     25 C           5.6261   -0.7159   27.0930 C.3     1  UNL1        0.1407
     26 N           4.5390   -0.7097   28.1266 N.3     1  UNL1       -0.2584
     27 C           3.1037   -0.6010   27.7048 C.3     1  UNL1        0.1052
     28 C           2.0166   -0.5947   28.7385 C.3     1  UNL1        0.1595
     29 O           2.3650   -0.6971   30.1938 O.3     1  UNL1       -0.3505
     30 C           3.8004   -0.8058   30.6156 C.3     1  UNL1        0.1637
     31 C           4.8874   -0.8121   29.5820 C.3     1  UNL1        0.1247
     32 C           6.3228   -0.9207   30.0038 C.2     1  UNL1        0.0673
     33 O           7.0083   -2.2549   29.9943 O.co2   1  UNL1       -0.5477
     34 O           7.0726    0.3047   30.4352 O.co2   1  UNL1       -0.5477
@<TRIPOS>UNITY_ATOM_ATTR
33 1
charge -1
@<TRIPOS>BOND
     1    23    24    1
     2    24    21    1
     3    21    22    2
     4    21     1    1
     5     1     2    2
     6     2    25    1
     7    25    26    1
     8    26    27    1
     9    27    28    1
    10    28    29    1
    11    29    30    1
    12    30    31    1
    13    31    32    1
    14    32    33   ar
    15    32    34   ar
    16     2     3    1
    17     3     4    1
    18     4    16    1
    19    16    17   ar
    20    17    18   ar
    21    18    19   ar
    22    19    20   ar
    23     4     5    2
    24     5     6    1
    25     6     8    1
    26     8     9   ar
    27     9    10   ar
    28    10    11   ar
    29    11    12    1
    30    11    13   ar
    31    13    14   ar
    32    14    15    1
    33     6     1    1
    34    14     8   ar
    35    31    26    1
    36    20    16   ar
    37     3     7    1
