@<TRIPOS>MOLECULE
*****
 40 43 0 0 0
SMALL
GASTEIGER

@<TRIPOS>ATOM
      1 C          -2.1137  -18.3455   21.1393 C.3     1  UNL1        0.0705
      2 C          -1.1145  -18.4132   20.0226 C.3     1  UNL1        0.0082
      3 C          -0.2703  -17.2164   19.6980 C.3     1  UNL1        0.0005
      4 C          -0.4254  -15.9522   20.4902 C.3     1  UNL1        0.0005
      5 C          -1.4246  -15.8845   21.6069 C.3     1  UNL1        0.0095
      6 C          -2.2688  -17.0811   21.9314 C.3     1  UNL1        0.0840
      7 C          -3.2680  -17.0135   23.0481 C.2     1  UNL1        0.2261
      8 O          -3.2366  -18.0357   24.1455 O.2     1  UNL1       -0.2748
      9 N          -4.2985  -15.9238   23.0674 N.am    1  UNL1       -0.2814
     10 H          -4.3191  -15.2529   22.3471 H       1  UNL1        0.1549
     11 C          -5.2978  -15.8561   24.1840 C.ar    1  UNL1        0.0935
     12 C          -4.9956  -15.9921   25.6470 C.ar    1  UNL1        0.1364
     13 N          -6.2857  -15.8607   26.4010 N.ar    1  UNL1       -0.1662
     14 N          -7.3852  -15.6434   25.4040 N.ar    1  UNL1       -0.2430
     15 C          -8.8398  -15.4610   25.7213 C.3     1  UNL1        0.1539
     16 C          -6.7746  -15.6406   24.0339 C.ar    1  UNL1        0.1480
     17 C          -7.5115  -15.4549   22.7406 C.2     1  UNL1        0.2866
     18 O          -6.9024  -14.6364   21.6411 O.2     1  UNL1       -0.2664
     19 N          -8.8577  -16.0877   22.5469 N.am    1  UNL1       -0.1886
     20 H          -9.2575  -16.6249   23.2685 H       1  UNL1        0.1829
     21 O          -9.5946  -15.9020   21.2536 O.3     1  UNL1       -0.2712
     22 C         -11.0944  -15.9134   21.2368 C.3     1  UNL1        0.1173
     23 C         -11.1101  -16.0355   22.7317 C.3     1  UNL1        0.0321
     24 C         -11.0786  -15.7913   19.7418 C.3     1  UNL1        0.0321
     25 C         -12.5942  -15.9248   21.2200 C.3     1  UNL1        0.0321
     26 C          -2.9579  -19.5421   21.4638 C.2     1  UNL1        0.1731
     27 O          -2.3162  -20.7933   21.9860 O.2     1  UNL1       -0.2913
     28 C          -7.4157  -19.3786   20.8708 C.ar    1  UNL1        0.0194
     29 C          -6.8490  -19.8973   22.1592 C.ar    1  UNL1        0.0016
     30 C          -5.3631  -19.9518   22.3568 C.ar    1  UNL1        0.0029
     31 C          -4.4439  -19.4876   21.2661 C.ar    1  UNL1        0.0347
     32 C          -5.0106  -18.9690   19.9778 C.ar    1  UNL1        0.0029
     33 C          -6.4965  -18.9145   19.7802 C.ar    1  UNL1        0.0016
     34 C         -12.6088  -19.2975   21.8230 C.3     1  UNL1        0.0515
     35 C         -11.2886  -19.2868   21.1108 C.ar    1  UNL1        0.0535
     36 C          -9.9375  -19.3675   21.7572 C.ar    1  UNL1        0.0349
     37 C          -8.9016  -19.3241   20.6732 C.ar    1  UNL1        0.1018
     38 N          -9.6126  -19.2167   19.3568 N.ar    1  UNL1       -0.1730
     39 N         -11.0878  -19.1936   19.6272 N.ar    1  UNL1       -0.2798
     40 H         -11.7994  -19.1287   18.9499 H       1  UNL1        0.1886
@<TRIPOS>BOND
     1    34    35    1
     2    35    36   ar
     3    36    37   ar
     4    37    28    1
     5    28    29   ar
     6    29    30   ar
     7    30    31   ar
     8    31    26    1
     9    26    27    2
    10     1    26    1
    11     1     2    1
    12     2     3    1
    13     3     4    1
    14     4     5    1
    15     5     6    1
    16     6     7    1
    17     7     8    2
    18     7     9   am
    19     9    11    1
    20    11    12   ar
    21    12    13   ar
    22    13    14   ar
    23    14    15    1
    24    14    16   ar
    25    16    17    1
    26    17    18    2
    27    17    19   am
    28    19    21    1
    29    21    22    1
    30    22    23    1
    31    22    24    1
    32    22    25    1
    33    31    32   ar
    34    32    33   ar
    35    37    38   ar
    36    38    39   ar
    37    39    35   ar
    38    33    28   ar
    39     6     1    1
    40    16    11   ar
    41     9    10    1
    42    19    20    1
    43    39    40    1
@<TRIPOS>MOLECULE
*****
 40 43 0 0 0
SMALL
GASTEIGER

@<TRIPOS>ATOM
      1 C           8.4522   -5.1313   25.1171 C.3     1  UNL1        0.0705
      2 C           9.1566   -5.7066   23.9242 C.3     1  UNL1        0.0082
      3 C           9.5357   -7.1578   23.9048 C.3     1  UNL1        0.0005
      4 C           9.2105   -8.0337   25.0782 C.3     1  UNL1        0.0005
      5 C           8.5062   -7.4585   26.2711 C.3     1  UNL1        0.0095
      6 C           8.1270   -6.0073   26.2906 C.3     1  UNL1        0.0840
      7 C           7.4227   -5.4321   27.4835 C.2     1  UNL1        0.2261
      8 O           5.9242   -5.3706   27.5122 O.2     1  UNL1       -0.2748
      9 N           8.2169   -4.9184   28.6477 N.am    1  UNL1       -0.2814
     10 H           9.2003   -4.9588   28.6289 H       1  UNL1        0.1549
     11 C           7.5125   -4.3432   29.8407 C.ar    1  UNL1        0.0935
     12 C           7.2818   -5.0397   31.1489 C.ar    1  UNL1        0.1364
     13 N           6.5419   -4.0974   32.0516 N.ar    1  UNL1       -0.1662
     14 N           6.3155   -2.8185   31.3012 N.ar    1  UNL1       -0.2430
     15 C           5.6125   -1.6014   31.8252 C.3     1  UNL1        0.1539
     16 C           6.9153   -2.9704   29.9348 C.ar    1  UNL1        0.1480
     17 C           6.9176   -1.9319   28.8525 C.2     1  UNL1        0.2866
     18 O           7.8827   -0.7854   28.9151 O.2     1  UNL1       -0.2664
     19 N           5.9545   -2.0398   27.7074 N.am    1  UNL1       -0.1886
     20 H           5.3210   -2.7922   27.6663 H       1  UNL1        0.1829
     21 O           5.9568   -1.0012   26.6251 O.3     1  UNL1       -0.2712
     22 C           4.6840   -0.6644   25.9064 C.3     1  UNL1        0.1173
     23 C           5.4174    0.3545   25.0854 C.3     1  UNL1        0.0321
     24 C           3.9506   -1.6832   26.7274 C.3     1  UNL1        0.0321
     25 C           3.4113   -0.3275   25.1876 C.3     1  UNL1        0.0321
     26 C           8.0731   -3.6802   25.1366 C.2     1  UNL1        0.1731
     27 O           8.6777   -2.7607   26.1559 O.2     1  UNL1       -0.2913
     28 C           5.1219   -2.0853   22.1373 C.ar    1  UNL1        0.0194
     29 C           4.7228   -3.1937   23.0657 C.ar    1  UNL1        0.0016
     30 C           5.7066   -3.7254   24.0654 C.ar    1  UNL1        0.0029
     31 C           7.0894   -3.1485   24.1368 C.ar    1  UNL1        0.0347
     32 C           7.4884   -2.0400   23.2084 C.ar    1  UNL1        0.0029
     33 C           6.5047   -1.5084   22.2086 C.ar    1  UNL1        0.0016
     34 C           0.7729    0.0068   19.9947 C.3     1  UNL1        0.0515
     35 C           2.1391   -0.5919   20.1526 C.ar    1  UNL1        0.0535
     36 C           2.7749   -1.0090   21.4456 C.ar    1  UNL1        0.0349
     37 C           4.1381   -1.5536   21.1374 C.ar    1  UNL1        0.1018
     38 N           4.3449   -1.4731   19.6540 N.ar    1  UNL1       -0.1730
     39 N           3.1095   -0.8788   19.0453 N.ar    1  UNL1       -0.2798
     40 H           2.9615   -0.7072   18.0872 H       1  UNL1        0.1886
@<TRIPOS>BOND
     1    34    35    1
     2    35    36   ar
     3    36    37   ar
     4    37    28    1
     5    28    29   ar
     6    29    30   ar
     7    30    31   ar
     8    31    26    1
     9    26    27    2
    10     1    26    1
    11     1     2    1
    12     2     3    1
    13     3     4    1
    14     4     5    1
    15     5     6    1
    16     6     7    1
    17     7     8    2
    18     7     9   am
    19     9    11    1
    20    11    12   ar
    21    12    13   ar
    22    13    14   ar
    23    14    15    1
    24    14    16   ar
    25    16    17    1
    26    17    18    2
    27    17    19   am
    28    19    21    1
    29    21    22    1
    30    22    23    1
    31    22    24    1
    32    22    25    1
    33    31    32   ar
    34    32    33   ar
    35    37    38   ar
    36    38    39   ar
    37    39    35   ar
    38    33    28   ar
    39     6     1    1
    40    16    11   ar
    41     9    10    1
    42    19    20    1
    43    39    40    1
@<TRIPOS>MOLECULE
*****
 40 43 0 0 0
SMALL
GASTEIGER

@<TRIPOS>ATOM
      1 C           3.5684   -2.0239   19.1026 C.3     1  UNL1        0.0705
      2 C           2.8906   -3.3385   19.3525 C.3     1  UNL1        0.0082
      3 C           3.6527   -4.6194   19.1834 C.3     1  UNL1        0.0005
      4 C           5.0925   -4.5857   18.7643 C.3     1  UNL1        0.0005
      5 C           5.7704   -3.2711   18.5144 C.3     1  UNL1        0.0095
      6 C           5.0083   -1.9902   18.6835 C.3     1  UNL1        0.0840
      7 C           5.6861   -0.6756   18.4336 C.2     1  UNL1        0.2261
      8 O           6.5590   -0.0688   19.4919 O.2     1  UNL1       -0.2748
      9 N           5.4910    0.0321   17.1256 N.am    1  UNL1       -0.2814
     10 H           4.9181   -0.3663   16.4310 H       1  UNL1        0.1549
     11 C           6.1689    1.3466   16.8757 C.ar    1  UNL1        0.0935
     12 C           7.3532    1.5724   15.9833 C.ar    1  UNL1        0.1364
     13 N           7.6976    3.0316   16.0303 N.ar    1  UNL1       -0.1662
     14 N           6.7262    3.7076   16.9518 N.ar    1  UNL1       -0.2430
     15 C           6.7035    5.1685   17.2913 C.3     1  UNL1        0.1539
     16 C           5.7814    2.6663   17.4743 C.ar    1  UNL1        0.1480
     17 C           4.6480    2.9031   18.4279 C.2     1  UNL1        0.2866
     18 O           3.3448    3.4482   17.9235 O.2     1  UNL1       -0.2664
     19 N           4.8179    2.5947   19.8861 N.am    1  UNL1       -0.1886
     20 H           5.6732    2.2369   20.2172 H       1  UNL1        0.1829
     21 O           3.6845    2.8315   20.8397 O.3     1  UNL1       -0.2712
     22 C           3.9688    3.1846   22.2695 C.3     1  UNL1        0.1173
     23 C           5.2411    2.3921   22.2122 C.3     1  UNL1        0.0321
     24 C           2.6966    3.9772   22.3269 C.3     1  UNL1        0.0321
     25 C           4.2533    3.5377   23.6994 C.3     1  UNL1        0.0321
     26 C           2.8063   -0.7430   19.2717 C.2     1  UNL1        0.1731
     27 O           2.4678    0.0922   18.0727 O.2     1  UNL1       -0.2913
     28 C           1.5358    0.5938   23.3764 C.ar    1  UNL1        0.0194
     29 C           2.7878   -0.2142   23.2049 C.ar    1  UNL1        0.0016
     30 C           3.2113   -0.6598   21.8367 C.ar    1  UNL1        0.0029
     31 C           2.3828   -0.2974   20.6400 C.ar    1  UNL1        0.0347
     32 C           1.1308    0.5107   20.8115 C.ar    1  UNL1        0.0029
     33 C           0.7073    0.9563   22.1797 C.ar    1  UNL1        0.0016
     34 C          -1.3307    2.5421   27.3600 C.3     1  UNL1        0.0515
     35 C          -0.2054    1.9350   26.5757 C.ar    1  UNL1        0.0535
     36 C          -0.2140    1.6408   25.1049 C.ar    1  UNL1        0.0349
     37 C           1.1122    1.0395   24.7447 C.ar    1  UNL1        0.1018
     38 N           1.9404    0.9621   25.9929 N.ar    1  UNL1       -0.1730
     39 N           1.1261    1.5156   27.1245 N.ar    1  UNL1       -0.2798
     40 H           1.4149    1.5904   28.0627 H       1  UNL1        0.1886
@<TRIPOS>BOND
     1    34    35    1
     2    35    36   ar
     3    36    37   ar
     4    37    28    1
     5    28    29   ar
     6    29    30   ar
     7    30    31   ar
     8    31    26    1
     9    26    27    2
    10     1    26    1
    11     1     2    1
    12     2     3    1
    13     3     4    1
    14     4     5    1
    15     5     6    1
    16     6     7    1
    17     7     8    2
    18     7     9   am
    19     9    11    1
    20    11    12   ar
    21    12    13   ar
    22    13    14   ar
    23    14    15    1
    24    14    16   ar
    25    16    17    1
    26    17    18    2
    27    17    19   am
    28    19    21    1
    29    21    22    1
    30    22    23    1
    31    22    24    1
    32    22    25    1
    33    31    32   ar
    34    32    33   ar
    35    37    38   ar
    36    38    39   ar
    37    39    35   ar
    38    33    28   ar
    39     6     1    1
    40    16    11   ar
    41     9    10    1
    42    19    20    1
    43    39    40    1
@<TRIPOS>MOLECULE
*****
 40 43 0 0 0
SMALL
GASTEIGER

@<TRIPOS>ATOM
      1 C           3.7394   -2.1167   18.8044 C.3     1  UNL1        0.0705
      2 C           2.7914   -3.2644   18.9888 C.3     1  UNL1        0.0082
      3 C           3.3166   -4.6680   19.0535 C.3     1  UNL1        0.0005
      4 C           4.7898   -4.9238   18.9338 C.3     1  UNL1        0.0005
      5 C           5.7378   -3.7761   18.7493 C.3     1  UNL1        0.0095
      6 C           5.2126   -2.3726   18.6847 C.3     1  UNL1        0.0840
      7 C           6.1606   -1.2248   18.5002 C.2     1  UNL1        0.2261
      8 O           6.6828   -0.8956   17.1331 O.2     1  UNL1       -0.2748
      9 N           6.5864   -0.4063   19.6829 N.am    1  UNL1       -0.2814
     10 H           6.2437   -0.6224   20.5802 H       1  UNL1        0.1549
     11 C           7.5344    0.7414   19.4985 C.ar    1  UNL1        0.0935
     12 C           8.9690    0.7789   19.9348 C.ar    1  UNL1        0.1364
     13 N           9.5355    2.1138   19.5513 N.ar    1  UNL1       -0.1662
     14 N           8.4509    2.9015   18.8781 N.ar    1  UNL1       -0.2430
     15 C           8.5803    4.2930   18.3331 C.3     1  UNL1        0.1539
     16 C           7.2142    2.0533   18.8454 C.ar    1  UNL1        0.1480
     17 C           5.8897    2.4477   18.2621 C.2     1  UNL1        0.2866
     18 O           5.7388    2.5973   16.7773 O.2     1  UNL1       -0.2664
     19 N           4.7161    2.6926   19.1636 N.am    1  UNL1       -0.1886
     20 H           4.8151    2.5945   20.1382 H       1  UNL1        0.1829
     21 O           3.3917    3.0871   18.5803 O.3     1  UNL1       -0.2712
     22 C           2.3231    3.6582   19.4644 C.3     1  UNL1        0.1173
     23 C           1.3183    3.4801   18.3650 C.3     1  UNL1        0.0321
     24 C           3.3278    3.8364   20.5639 C.3     1  UNL1        0.0321
     25 C           1.2543    4.2294   20.3485 C.3     1  UNL1        0.0321
     26 C           3.2143   -0.7132   18.7397 C.2     1  UNL1        0.1731
     27 O           3.4134    0.1057   17.4988 O.2     1  UNL1       -0.2913
     28 C           1.0412    1.0410   22.2683 C.ar    1  UNL1        0.0194
     29 C           0.2972    0.7484   20.9991 C.ar    1  UNL1        0.0016
     30 C           1.0216    0.1637   19.8229 C.ar    1  UNL1        0.0029
     31 C           2.4899   -0.1284   19.9160 C.ar    1  UNL1        0.0347
     32 C           3.2339    0.1642   21.1851 C.ar    1  UNL1        0.0029
     33 C           2.5095    0.7489   22.3613 C.ar    1  UNL1        0.0016
     34 C          -0.7555    1.8405   27.1687 C.3     1  UNL1        0.0515
     35 C          -0.5090    1.9932   25.6970 C.ar    1  UNL1        0.0535
     36 C           0.3584    1.1082   24.8518 C.ar    1  UNL1        0.0349
     37 C           0.3168    1.6258   23.4445 C.ar    1  UNL1        0.1018
     38 N          -0.5762    2.8307   23.4200 N.ar    1  UNL1       -0.1730
     39 N          -1.0866    3.0578   24.8120 N.ar    1  UNL1       -0.2798
     40 H          -1.6940    3.7790   25.0952 H       1  UNL1        0.1886
@<TRIPOS>BOND
     1    34    35    1
     2    35    36   ar
     3    36    37   ar
     4    37    28    1
     5    28    29   ar
     6    29    30   ar
     7    30    31   ar
     8    31    26    1
     9    26    27    2
    10     1    26    1
    11     1     2    1
    12     2     3    1
    13     3     4    1
    14     4     5    1
    15     5     6    1
    16     6     7    1
    17     7     8    2
    18     7     9   am
    19     9    11    1
    20    11    12   ar
    21    12    13   ar
    22    13    14   ar
    23    14    15    1
    24    14    16   ar
    25    16    17    1
    26    17    18    2
    27    17    19   am
    28    19    21    1
    29    21    22    1
    30    22    23    1
    31    22    24    1
    32    22    25    1
    33    31    32   ar
    34    32    33   ar
    35    37    38   ar
    36    38    39   ar
    37    39    35   ar
    38    33    28   ar
    39     6     1    1
    40    16    11   ar
    41     9    10    1
    42    19    20    1
    43    39    40    1
@<TRIPOS>MOLECULE
*****
 40 43 0 0 0
SMALL
GASTEIGER

@<TRIPOS>ATOM
      1 C           6.7426   -2.3173   30.4762 C.3     1  UNL1        0.0705
      2 C           7.5784   -3.1615   29.5604 C.3     1  UNL1        0.0082
      3 C           7.8902   -4.5824   29.9264 C.3     1  UNL1        0.0005
      4 C           7.3664   -5.1590   31.2082 C.3     1  UNL1        0.0005
      5 C           6.5306   -4.3148   32.1240 C.3     1  UNL1        0.0095
      6 C           6.2187   -2.8940   31.7580 C.3     1  UNL1        0.0840
      7 C           5.3829   -2.0497   32.6739 C.2     1  UNL1        0.2261
      8 O           3.8881   -2.1738   32.6525 O.2     1  UNL1       -0.2748
      9 N           6.0418   -1.0815   33.6110 N.am    1  UNL1       -0.2814
     10 H           7.0228   -1.0001   33.6250 H       1  UNL1        0.1549
     11 C           5.2060   -0.2373   34.5268 C.ar    1  UNL1        0.0935
     12 C           5.0823   -0.4046   36.0123 C.ar    1  UNL1        0.1364
     13 N           4.1470    0.6518   36.5216 N.ar    1  UNL1       -0.1662
     14 N           3.6926    1.4720   35.3508 N.ar    1  UNL1       -0.2430
     15 C           2.7493    2.6371   35.4035 C.3     1  UNL1        0.1539
     16 C           4.3471    0.9225   34.1180 C.ar    1  UNL1        0.1480
     17 C           4.1731    1.4417   32.7215 C.2     1  UNL1        0.2866
     18 O           5.0097    2.5891   32.2382 O.2     1  UNL1       -0.2664
     19 N           3.1625    0.8135   31.8082 N.am    1  UNL1       -0.1886
     20 H           2.6134    0.0605   32.1253 H       1  UNL1        0.1829
     21 O           2.9886    1.3327   30.4117 O.3     1  UNL1       -0.2712
     22 C           1.8956    0.7889   29.5401 C.3     1  UNL1        0.1173
     23 C           1.7385    2.1351   28.8974 C.3     1  UNL1        0.0321
     24 C           2.0528   -0.5572   30.1828 C.3     1  UNL1        0.0321
     25 C           0.8027    0.2452   28.6685 C.3     1  UNL1        0.0321
     26 C           6.4307   -0.8965   30.1102 C.2     1  UNL1        0.1731
     27 O           6.9564    0.2277   30.9526 O.2     1  UNL1       -0.2913
     28 C           3.9175   -0.0067   26.4850 C.ar    1  UNL1        0.0194
     29 C           3.8995   -1.3784   27.0917 C.ar    1  UNL1        0.0016
     30 C           4.7372   -1.6749   28.3001 C.ar    1  UNL1        0.0029
     31 C           5.5929   -0.5999   28.9018 C.ar    1  UNL1        0.0347
     32 C           5.6110    0.7718   28.2950 C.ar    1  UNL1        0.0029
     33 C           4.7733    1.0684   27.0866 C.ar    1  UNL1        0.0016
     34 C           0.2410    2.0585   23.3070 C.3     1  UNL1        0.0515
     35 C           1.3899    1.2392   23.8158 C.ar    1  UNL1        0.0535
     36 C           1.9389    1.2616   25.2115 C.ar    1  UNL1        0.0349
     37 C           3.0798    0.2899   25.2765 C.ar    1  UNL1        0.1018
     38 N           3.2359   -0.3330   23.9209 N.ar    1  UNL1       -0.1730
     39 N           2.1915    0.2537   23.0182 N.ar    1  UNL1       -0.2798
     40 H           2.0560    0.0310   22.0688 H       1  UNL1        0.1886
@<TRIPOS>BOND
     1    34    35    1
     2    35    36   ar
     3    36    37   ar
     4    37    28    1
     5    28    29   ar
     6    29    30   ar
     7    30    31   ar
     8    31    26    1
     9    26    27    2
    10     1    26    1
    11     1     2    1
    12     2     3    1
    13     3     4    1
    14     4     5    1
    15     5     6    1
    16     6     7    1
    17     7     8    2
    18     7     9   am
    19     9    11    1
    20    11    12   ar
    21    12    13   ar
    22    13    14   ar
    23    14    15    1
    24    14    16   ar
    25    16    17    1
    26    17    18    2
    27    17    19   am
    28    19    21    1
    29    21    22    1
    30    22    23    1
    31    22    24    1
    32    22    25    1
    33    31    32   ar
    34    32    33   ar
    35    37    38   ar
    36    38    39   ar
    37    39    35   ar
    38    33    28   ar
    39     6     1    1
    40    16    11   ar
    41     9    10    1
    42    19    20    1
    43    39    40    1
@<TRIPOS>MOLECULE
*****
 40 43 0 0 0
SMALL
GASTEIGER

@<TRIPOS>ATOM
      1 C           8.2459   -5.0475   24.9893 C.3     1  UNL1        0.0705
      2 C           8.4486   -6.0598   23.9011 C.3     1  UNL1        0.0082
      3 C           8.4794   -7.5222   24.2334 C.3     1  UNL1        0.0005
      4 C           8.3075   -7.9723   25.6539 C.3     1  UNL1        0.0005
      5 C           8.1048   -6.9601   26.7421 C.3     1  UNL1        0.0095
      6 C           8.0739   -5.4977   26.4098 C.3     1  UNL1        0.0840
      7 C           7.8712   -4.4854   27.4980 C.2     1  UNL1        0.2261
      8 O           9.0527   -3.7829   28.0985 O.2     1  UNL1       -0.2748
      9 N           6.4870   -4.1757   27.9859 N.am    1  UNL1       -0.2814
     10 H           5.7115   -4.6369   27.5918 H       1  UNL1        0.1549
     11 C           6.2842   -3.1635   29.0741 C.ar    1  UNL1        0.0935
     12 C           6.7849   -3.2722   30.4839 C.ar    1  UNL1        0.1364
     13 N           6.3553   -2.0407   31.2247 N.ar    1  UNL1       -0.1662
     14 N           5.5891   -1.1708   30.2727 N.ar    1  UNL1       -0.2430
     15 C           4.9747    0.1595   30.5936 C.3     1  UNL1        0.1539
     16 C           5.5452   -1.8647   28.9436 C.ar    1  UNL1        0.1480
     17 C           4.8791   -1.3502   27.7020 C.2     1  UNL1        0.2866
     18 O           3.4452   -1.6911   27.4238 O.2     1  UNL1       -0.2664
     19 N           5.6471   -0.4946   26.7385 N.am    1  UNL1       -0.1886
     20 H           6.5883   -0.2708   26.9210 H       1  UNL1        0.1829
     21 O           4.9811    0.0200   25.4969 O.3     1  UNL1       -0.2712
     22 C           5.7807    0.7686   24.4721 C.3     1  UNL1        0.1173
     23 C           7.0497    0.3092   25.1270 C.3     1  UNL1        0.0321
     24 C           4.5118    1.2279   23.8173 C.3     1  UNL1        0.0321
     25 C           6.5805    1.5171   23.4474 C.3     1  UNL1        0.0321
     26 C           8.2150   -3.5851   24.6570 C.2     1  UNL1        0.1731
     27 O           9.2606   -2.6667   25.2166 O.2     1  UNL1       -0.2913
     28 C           4.9858   -1.9532   21.9815 C.ar    1  UNL1        0.0194
     29 C           6.4287   -1.7472   21.6270 C.ar    1  UNL1        0.0016
     30 C           7.5050   -2.2912   22.5189 C.ar    1  UNL1        0.0029
     31 C           7.1386   -3.0411   23.7652 C.ar    1  UNL1        0.0347
     32 C           5.6957   -3.2471   24.1196 C.ar    1  UNL1        0.0029
     33 C           4.6193   -2.7031   23.2278 C.ar    1  UNL1        0.0016
     34 C           0.4310    0.1204   20.2975 C.3     1  UNL1        0.0515
     35 C           1.8157   -0.4561   20.3156 C.ar    1  UNL1        0.0535
     36 C           2.5694   -0.9018   21.5335 C.ar    1  UNL1        0.0349
     37 C           3.9093   -1.4092   21.0896 C.ar    1  UNL1        0.1018
     38 N           3.9838   -1.2771   19.5973 N.ar    1  UNL1       -0.1730
     39 N           2.6899   -0.6881   19.1189 N.ar    1  UNL1       -0.2798
     40 H           2.4556   -0.4887   18.1837 H       1  UNL1        0.1886
@<TRIPOS>BOND
     1    34    35    1
     2    35    36   ar
     3    36    37   ar
     4    37    28    1
     5    28    29   ar
     6    29    30   ar
     7    30    31   ar
     8    31    26    1
     9    26    27    2
    10     1    26    1
    11     1     2    1
    12     2     3    1
    13     3     4    1
    14     4     5    1
    15     5     6    1
    16     6     7    1
    17     7     8    2
    18     7     9   am
    19     9    11    1
    20    11    12   ar
    21    12    13   ar
    22    13    14   ar
    23    14    15    1
    24    14    16   ar
    25    16    17    1
    26    17    18    2
    27    17    19   am
    28    19    21    1
    29    21    22    1
    30    22    23    1
    31    22    24    1
    32    22    25    1
    33    31    32   ar
    34    32    33   ar
    35    37    38   ar
    36    38    39   ar
    37    39    35   ar
    38    33    28   ar
    39     6     1    1
    40    16    11   ar
    41     9    10    1
    42    19    20    1
    43    39    40    1
@<TRIPOS>MOLECULE
*****
 40 43 0 0 0
SMALL
GASTEIGER

@<TRIPOS>ATOM
      1 C           6.0061   -1.5119   30.8243 C.3     1  UNL1        0.0705
      2 C           6.6375   -2.1380   29.6163 C.3     1  UNL1        0.0082
      3 C           7.0738   -3.5726   29.6566 C.3     1  UNL1        0.0005
      4 C           6.8788   -4.3810   30.9049 C.3     1  UNL1        0.0005
      5 C           6.2475   -3.7549   32.1130 C.3     1  UNL1        0.0095
      6 C           5.8112   -2.3204   32.0727 C.3     1  UNL1        0.0840
      7 C           5.1798   -1.6943   33.2808 C.2     1  UNL1        0.2261
      8 O           3.8821   -2.2285   33.8107 O.2     1  UNL1       -0.2748
      9 N           5.8461   -0.5341   33.9589 N.am    1  UNL1       -0.2814
     10 H           6.6978   -0.1835   33.6111 H       1  UNL1        0.1549
     11 C           5.2147    0.0920   35.1670 C.ar    1  UNL1        0.0935
     12 C           5.5625   -0.2024   36.5961 C.ar    1  UNL1        0.1364
     13 N           4.6875    0.6460   37.4704 N.ar    1  UNL1       -0.1662
     14 N           3.7989    1.4649   36.5817 N.ar    1  UNL1       -0.2430
     15 C           2.7658    2.4527   37.0366 C.3     1  UNL1        0.1539
     16 C           4.1248    1.1224   35.1581 C.ar    1  UNL1        0.1480
     17 C           3.4747    1.7077   33.9395 C.2     1  UNL1        0.2866
     18 O           2.8335    0.8072   32.9258 O.2     1  UNL1       -0.2664
     19 N           3.4659    3.1937   33.7347 N.am    1  UNL1       -0.1886
     20 H           3.8867    3.7848   34.4001 H       1  UNL1        0.1829
     21 O           2.8158    3.7790   32.5162 O.3     1  UNL1       -0.2712
     22 C           1.3483    4.0893   32.5250 C.3     1  UNL1        0.1173
     23 C           1.1908    3.3810   31.2122 C.3     1  UNL1        0.0321
     24 C           1.5059    4.7976   33.8377 C.3     1  UNL1        0.0321
     25 C          -0.1192    4.3996   32.5337 C.3     1  UNL1        0.0321
     26 C           5.5698   -0.0774   30.7841 C.2     1  UNL1        0.1731
     27 O           6.2916    0.9495   31.6054 O.2     1  UNL1       -0.2913
     28 C           2.0953    1.1460   28.1992 C.ar    1  UNL1        0.0194
     29 C           3.3204    2.0089   28.2666 C.ar    1  UNL1        0.0016
     30 C           4.4785    1.6012   29.1282 C.ar    1  UNL1        0.0029
     31 C           4.4116    0.3304   29.9224 C.ar    1  UNL1        0.0347
     32 C           3.1866   -0.5325   29.8550 C.ar    1  UNL1        0.0029
     33 C           2.0284   -0.1248   28.9934 C.ar    1  UNL1        0.0016
     34 C          -2.4409    3.3076   26.5772 C.3     1  UNL1        0.0515
     35 C          -1.1480    2.5474   26.5920 C.ar    1  UNL1        0.0535
     36 C          -0.2336    2.3858   27.7701 C.ar    1  UNL1        0.0349
     37 C           0.9371    1.5538   27.3375 C.ar    1  UNL1        0.1018
     38 N           0.7464    1.2011   25.8921 N.ar    1  UNL1       -0.1730
     39 N          -0.5423    1.8151   25.4314 N.ar    1  UNL1       -0.2798
     40 H          -0.9236    1.7492   24.5261 H       1  UNL1        0.1886
@<TRIPOS>BOND
     1    34    35    1
     2    35    36   ar
     3    36    37   ar
     4    37    28    1
     5    28    29   ar
     6    29    30   ar
     7    30    31   ar
     8    31    26    1
     9    26    27    2
    10     1    26    1
    11     1     2    1
    12     2     3    1
    13     3     4    1
    14     4     5    1
    15     5     6    1
    16     6     7    1
    17     7     8    2
    18     7     9   am
    19     9    11    1
    20    11    12   ar
    21    12    13   ar
    22    13    14   ar
    23    14    15    1
    24    14    16   ar
    25    16    17    1
    26    17    18    2
    27    17    19   am
    28    19    21    1
    29    21    22    1
    30    22    23    1
    31    22    24    1
    32    22    25    1
    33    31    32   ar
    34    32    33   ar
    35    37    38   ar
    36    38    39   ar
    37    39    35   ar
    38    33    28   ar
    39     6     1    1
    40    16    11   ar
    41     9    10    1
    42    19    20    1
    43    39    40    1
@<TRIPOS>MOLECULE
*****
 40 43 0 0 0
SMALL
GASTEIGER

@<TRIPOS>ATOM
      1 C           7.3229   -3.0528   26.5999 C.3     1  UNL1        0.0705
      2 C           8.2667   -4.1870   26.3300 C.3     1  UNL1        0.0082
      3 C           8.2713   -5.3887   27.2279 C.3     1  UNL1        0.0005
      4 C           7.3322   -5.4561   28.3956 C.3     1  UNL1        0.0005
      5 C           6.3884   -4.3219   28.6655 C.3     1  UNL1        0.0095
      6 C           6.3838   -3.1202   27.7677 C.3     1  UNL1        0.0840
      7 C           5.4400   -1.9860   28.0376 C.2     1  UNL1        0.2261
      8 O           5.8348   -0.8907   28.9833 O.2     1  UNL1       -0.2748
      9 N           4.1014   -1.9471   27.3618 N.am    1  UNL1       -0.2814
     10 H           3.8423   -2.6660   26.7411 H       1  UNL1        0.1549
     11 C           3.1577   -0.8129   27.6317 C.ar    1  UNL1        0.0935
     12 C           2.2475   -0.6863   28.8172 C.ar    1  UNL1        0.1364
     13 N           1.4857    0.5987   28.6817 N.ar    1  UNL1       -0.1662
     14 N           1.9250    1.2663   27.4123 N.ar    1  UNL1       -0.2430
     15 C           1.4197    2.5763   26.8845 C.3     1  UNL1        0.1539
     16 C           2.9583    0.3939   26.7634 C.ar    1  UNL1        0.1480
     17 C           3.6678    0.6783   25.4727 C.2     1  UNL1        0.2866
     18 O           4.8795    1.5624   25.4619 O.2     1  UNL1       -0.2664
     19 N           3.1655    0.0787   24.1928 N.am    1  UNL1       -0.1886
     20 H           2.3702   -0.5015   24.1998 H       1  UNL1        0.1829
     21 O           3.8749    0.3632   22.9021 O.3     1  UNL1       -0.2712
     22 C           3.1261    0.9697   21.7526 C.3     1  UNL1        0.1173
     23 C           4.0442    2.1556   21.7804 C.3     1  UNL1        0.0321
     24 C           2.2081   -0.2162   21.7248 C.3     1  UNL1        0.0321
     25 C           2.3773    1.5762   20.6031 C.3     1  UNL1        0.0321
     26 C           7.3182   -1.8512   25.7022 C.2     1  UNL1        0.1731
     27 O           7.8882   -0.5510   26.1864 O.2     1  UNL1       -0.2913
     28 C           5.5941   -2.1470   21.5561 C.ar    1  UNL1        0.0194
     29 C           4.9982   -2.9487   22.6751 C.ar    1  UNL1        0.0016
     30 C           5.5729   -2.8501   24.0571 C.ar    1  UNL1        0.0029
     31 C           6.7435   -1.9498   24.3201 C.ar    1  UNL1        0.0347
     32 C           7.3393   -1.1480   23.2011 C.ar    1  UNL1        0.0029
     33 C           6.7646   -1.2467   21.8191 C.ar    1  UNL1        0.0016
     34 C           3.8172   -0.8615   16.7528 C.3     1  UNL1        0.0515
     35 C           4.2026   -1.6547   17.9662 C.ar    1  UNL1        0.0535
     36 C           4.7910   -1.1021   19.2305 C.ar    1  UNL1        0.0349
     37 C           5.0193   -2.2456   20.1740 C.ar    1  UNL1        0.1018
     38 N           4.5721   -3.5049   19.4929 N.ar    1  UNL1       -0.1730
     39 N           4.0673   -3.1398   18.1284 N.ar    1  UNL1       -0.2798
     40 H           3.7100   -3.7650   17.4571 H       1  UNL1        0.1886
@<TRIPOS>BOND
     1    34    35    1
     2    35    36   ar
     3    36    37   ar
     4    37    28    1
     5    28    29   ar
     6    29    30   ar
     7    30    31   ar
     8    31    26    1
     9    26    27    2
    10     1    26    1
    11     1     2    1
    12     2     3    1
    13     3     4    1
    14     4     5    1
    15     5     6    1
    16     6     7    1
    17     7     8    2
    18     7     9   am
    19     9    11    1
    20    11    12   ar
    21    12    13   ar
    22    13    14   ar
    23    14    15    1
    24    14    16   ar
    25    16    17    1
    26    17    18    2
    27    17    19   am
    28    19    21    1
    29    21    22    1
    30    22    23    1
    31    22    24    1
    32    22    25    1
    33    31    32   ar
    34    32    33   ar
    35    37    38   ar
    36    38    39   ar
    37    39    35   ar
    38    33    28   ar
    39     6     1    1
    40    16    11   ar
    41     9    10    1
    42    19    20    1
    43    39    40    1
@<TRIPOS>MOLECULE
*****
 40 43 0 0 0
SMALL
GASTEIGER

@<TRIPOS>ATOM
      1 C           6.5807   -0.9407   27.9333 C.3     1  UNL1        0.0705
      2 C           7.8371   -1.7558   28.0181 C.3     1  UNL1        0.0082
      3 C           8.0697   -2.6549   29.1961 C.3     1  UNL1        0.0005
      4 C           7.0460   -2.7388   30.2892 C.3     1  UNL1        0.0005
      5 C           5.7896   -1.9237   30.2044 C.3     1  UNL1        0.0095
      6 C           5.5570   -1.0247   29.0265 C.3     1  UNL1        0.0840
      7 C           4.3006   -0.2096   28.9417 C.2     1  UNL1        0.2261
      8 O           4.3163    1.2363   29.3408 O.2     1  UNL1       -0.2748
      9 N           3.0286   -0.8403   28.4578 N.am    1  UNL1       -0.2814
     10 H           3.0184   -1.7893   28.1959 H       1  UNL1        0.1549
     11 C           1.7723   -0.0252   28.3730 C.ar    1  UNL1        0.0935
     12 C           0.7317    0.1050   29.4454 C.ar    1  UNL1        0.1364
     13 N          -0.3478    1.0135   28.9361 N.ar    1  UNL1       -0.1662
     14 N           0.0257    1.4448   27.5488 N.ar    1  UNL1       -0.2430
     15 C          -0.7712    2.3577   26.6648 C.3     1  UNL1        0.1539
     16 C           1.3360    0.8028   27.2008 C.ar    1  UNL1        0.1480
     17 C           2.0794    0.9611   25.9076 C.2     1  UNL1        0.2866
     18 O           3.3316    1.7854   25.8584 O.2     1  UNL1       -0.2664
     19 N           1.5705    0.2951   24.6636 N.am    1  UNL1       -0.1886
     20 H           0.7486   -0.2459   24.6958 H       1  UNL1        0.1829
     21 O           2.3139    0.4534   23.3704 O.3     1  UNL1       -0.2712
     22 C           2.0049    1.6082   22.4643 C.3     1  UNL1        0.1173
     23 C           3.4720    1.8812   22.3122 C.3     1  UNL1        0.0321
     24 C           0.5379    1.3352   22.6164 C.3     1  UNL1        0.0321
     25 C           1.6961    2.7630   21.5582 C.3     1  UNL1        0.0321
     26 C           6.3481   -0.0417   26.7554 C.2     1  UNL1        0.1731
     27 O           6.5823    1.4346   26.8808 O.2     1  UNL1       -0.2913
     28 C           4.9473   -1.7734   22.8452 C.ar    1  UNL1        0.0194
     29 C           4.2951   -2.1947   24.1286 C.ar    1  UNL1        0.0016
     30 C           4.7620   -1.6175   25.4319 C.ar    1  UNL1        0.0029
     31 C           5.8812   -0.6189   25.4519 C.ar    1  UNL1        0.0347
     32 C           6.5334   -0.1976   24.1686 C.ar    1  UNL1        0.0029
     33 C           6.0664   -0.7748   22.8652 C.ar    1  UNL1        0.0016
     34 C           4.2863   -5.0390   18.7489 C.3     1  UNL1        0.0515
     35 C           4.1766   -3.8517   19.6589 C.ar    1  UNL1        0.0535
     36 C           4.8769   -3.6814   20.9745 C.ar    1  UNL1        0.0349
     37 C           4.4804   -2.3506   21.5418 C.ar    1  UNL1        0.1018
     38 N           3.5351   -1.6984   20.5769 N.ar    1  UNL1       -0.1730
     39 N           3.3474   -2.6261   19.4132 N.ar    1  UNL1       -0.2798
     40 H           2.7795   -2.4598   18.6264 H       1  UNL1        0.1886
@<TRIPOS>BOND
     1    34    35    1
     2    35    36   ar
     3    36    37   ar
     4    37    28    1
     5    28    29   ar
     6    29    30   ar
     7    30    31   ar
     8    31    26    1
     9    26    27    2
    10     1    26    1
    11     1     2    1
    12     2     3    1
    13     3     4    1
    14     4     5    1
    15     5     6    1
    16     6     7    1
    17     7     8    2
    18     7     9   am
    19     9    11    1
    20    11    12   ar
    21    12    13   ar
    22    13    14   ar
    23    14    15    1
    24    14    16   ar
    25    16    17    1
    26    17    18    2
    27    17    19   am
    28    19    21    1
    29    21    22    1
    30    22    23    1
    31    22    24    1
    32    22    25    1
    33    31    32   ar
    34    32    33   ar
    35    37    38   ar
    36    38    39   ar
    37    39    35   ar
    38    33    28   ar
    39     6     1    1
    40    16    11   ar
    41     9    10    1
    42    19    20    1
    43    39    40    1
