@<TRIPOS>MOLECULE
*****
 26 28 0 0 0
SMALL
GASTEIGER

@<TRIPOS>ATOM
      1 C          -8.6305  -16.6922   23.4092 C.3     1  UNL1        0.0847
      2 N          -7.9388  -16.1311   24.6162 N.3     1  UNL1       -0.2676
      3 C          -6.4911  -15.7459   24.5396 C.3     1  UNL1        0.0896
      4 C          -5.7995  -15.1849   25.7466 C.3     1  UNL1        0.0862
      5 N          -6.5555  -15.0091   27.0302 N.3     1  UNL1       -0.2951
      6 C          -8.0031  -15.3943   27.1067 C.3     1  UNL1        0.0862
      7 C          -8.6948  -15.9553   25.8998 C.3     1  UNL1        0.0896
      8 H          -6.5010  -14.0194   27.2708 H       1  UNL1        0.1233
      9 C         -10.0516  -17.1616   23.5096 C.ar    1  UNL1       -0.0075
     10 C         -11.1403  -16.4145   22.7980 C.ar    1  UNL1       -0.0030
     11 C         -12.5615  -16.8841   22.8984 C.ar    1  UNL1       -0.0003
     12 C         -12.8937  -18.1006   23.7106 C.ar    1  UNL1       -0.0000
     13 C         -11.8050  -18.8477   24.4222 C.ar    1  UNL1       -0.0003
     14 C         -10.3839  -18.3782   24.3218 C.ar    1  UNL1       -0.0030
     15 C          -7.9010  -16.7837   22.1017 C.3     1  UNL1        0.0499
     16 C          -7.8600  -18.9095   20.6086 C.ar    1  UNL1        0.1428
     17 C          -7.2098  -20.1984   20.2011 C.ar    1  UNL1        0.0369
     18 C          -5.9506  -20.6504   20.8793 C.ar    1  UNL1        0.0031
     19 C          -5.3415  -19.8135   21.9649 C.ar    1  UNL1       -0.0001
     20 C          -5.9916  -18.5247   22.3724 C.ar    1  UNL1       -0.0012
     21 C          -7.2508  -18.0726   21.6942 C.ar    1  UNL1        0.0137
     22 O          -9.1192  -18.4574   19.9304 O.3     1  UNL1       -0.4048
     23 F         -11.7806  -19.4586   20.8870 F       1  UNL1       -0.1328
     24 C         -10.4499  -18.9580   20.4087 C.3     1  UNL1        0.5753
     25 F         -11.1404  -18.0746   19.4122 F       1  UNL1       -0.1328
     26 F          -9.7594  -19.8414   21.4051 F       1  UNL1       -0.1328
@<TRIPOS>BOND
     1    23    24    1
     2    24    25    1
     3    24    26    1
     4    24    22    1
     5    22    16    1
     6    16    17   ar
     7    17    18   ar
     8    18    19   ar
     9    19    20   ar
    10    20    21   ar
    11    21    15    1
    12    15     1    1
    13     1     9    1
    14     9    10   ar
    15    10    11   ar
    16    11    12   ar
    17    12    13   ar
    18    13    14   ar
    19     1     2    1
    20     2     3    1
    21     3     4    1
    22     4     5    1
    23     5     6    1
    24     6     7    1
    25    21    16   ar
    26    14     9   ar
    27     7     2    1
    28     5     8    1
@<TRIPOS>MOLECULE
*****
 26 28 0 0 0
SMALL
GASTEIGER

@<TRIPOS>ATOM
      1 C          -8.6251  -17.0802   22.4447 C.3     1  UNL1        0.0847
      2 N          -7.8969  -18.1760   21.7242 N.3     1  UNL1       -0.2676
      3 C          -6.5551  -18.6334   22.2145 C.3     1  UNL1        0.0896
      4 C          -5.8269  -19.7291   21.4941 C.3     1  UNL1        0.0862
      5 N          -6.4405  -20.3674   20.2833 N.3     1  UNL1       -0.2951
      6 C          -7.7823  -19.9100   19.7930 C.3     1  UNL1        0.0862
      7 C          -8.5105  -18.8143   20.5134 C.3     1  UNL1        0.0896
      8 H          -6.5251  -21.3634   20.4865 H       1  UNL1        0.1233
      9 C         -10.0848  -17.2285   22.7564 C.ar    1  UNL1       -0.0075
     10 C         -10.5481  -18.3179   23.6776 C.ar    1  UNL1       -0.0030
     11 C         -12.0079  -18.4662   23.9893 C.ar    1  UNL1       -0.0003
     12 C         -13.0043  -17.5251   23.3798 C.ar    1  UNL1       -0.0000
     13 C         -12.5410  -16.4358   22.4585 C.ar    1  UNL1       -0.0003
     14 C         -11.0813  -16.2875   22.1469 C.ar    1  UNL1       -0.0030
     15 C          -7.8935  -15.8361   22.8535 C.3     1  UNL1        0.0499
     16 C          -5.9752  -15.4389   24.5600 C.ar    1  UNL1        0.1428
     17 C          -5.5102  -15.2735   25.9765 C.ar    1  UNL1        0.0369
     18 C          -6.4984  -15.3400   27.1029 C.ar    1  UNL1        0.0031
     19 C          -7.9518  -15.5719   26.8129 C.ar    1  UNL1       -0.0001
     20 C          -8.4168  -15.7372   25.3964 C.ar    1  UNL1       -0.0012
     21 C          -7.4285  -15.6708   24.2700 C.ar    1  UNL1        0.0137
     22 O          -4.9869  -15.3724   23.4335 O.3     1  UNL1       -0.4048
     23 F          -2.8421  -17.4564   23.1949 F       1  UNL1       -0.1328
     24 C          -3.9145  -16.4144   23.3142 C.3     1  UNL1        0.5753
     25 F          -3.1614  -15.5305   22.3647 F       1  UNL1       -0.1328
     26 F          -4.6677  -17.2983   24.2637 F       1  UNL1       -0.1328
@<TRIPOS>BOND
     1    23    24    1
     2    24    25    1
     3    24    26    1
     4    24    22    1
     5    22    16    1
     6    16    17   ar
     7    17    18   ar
     8    18    19   ar
     9    19    20   ar
    10    20    21   ar
    11    21    15    1
    12    15     1    1
    13     1     9    1
    14     9    10   ar
    15    10    11   ar
    16    11    12   ar
    17    12    13   ar
    18    13    14   ar
    19     1     2    1
    20     2     3    1
    21     3     4    1
    22     4     5    1
    23     5     6    1
    24     6     7    1
    25    21    16   ar
    26    14     9   ar
    27     7     2    1
    28     5     8    1
@<TRIPOS>MOLECULE
*****
 26 28 0 0 0
SMALL
GASTEIGER

@<TRIPOS>ATOM
      1 C          -8.4801  -17.1222   22.3416 C.3     1  UNL1        0.0847
      2 N          -9.9565  -17.2296   22.5846 N.3     1  UNL1       -0.2676
      3 C         -10.8994  -16.2821   21.9041 C.3     1  UNL1        0.0896
      4 C         -12.3757  -16.3895   22.1471 C.3     1  UNL1        0.0862
      5 N         -12.9090  -17.4443   23.0706 N.3     1  UNL1       -0.2951
      6 C         -11.9660  -18.3918   23.7511 C.3     1  UNL1        0.0862
      7 C         -10.4897  -18.2844   23.5081 C.3     1  UNL1        0.0896
      8 H         -13.5557  -18.0138   22.5249 H       1  UNL1        0.1233
      9 C          -7.7427  -18.2550   21.6914 C.ar    1  UNL1       -0.0075
     10 C          -8.3158  -18.9244   20.4775 C.ar    1  UNL1       -0.0030
     11 C          -7.5783  -20.0573   19.8273 C.ar    1  UNL1       -0.0003
     12 C          -6.2678  -20.5207   20.3909 C.ar    1  UNL1       -0.0000
     13 C          -5.6947  -19.8513   21.6048 C.ar    1  UNL1       -0.0003
     14 C          -6.4321  -18.7185   22.2550 C.ar    1  UNL1       -0.0030
     15 C          -7.7413  -15.8819   22.7488 C.3     1  UNL1        0.0499
     16 C          -5.8674  -15.4589   24.4980 C.ar    1  UNL1        0.1428
     17 C          -5.4384  -15.2755   25.9236 C.ar    1  UNL1        0.0369
     18 C          -6.4544  -15.3316   27.0256 C.ar    1  UNL1        0.0031
     19 C          -7.8994  -15.5711   26.7021 C.ar    1  UNL1       -0.0001
     20 C          -8.3284  -15.7545   25.2765 C.ar    1  UNL1       -0.0012
     21 C          -7.3124  -15.6984   24.1745 C.ar    1  UNL1        0.0137
     22 O          -4.8513  -15.4029   23.3959 O.3     1  UNL1       -0.4048
     23 F          -2.7596  -17.5418   23.1739 F       1  UNL1       -0.1328
     24 C          -3.8055  -16.4724   23.2849 C.3     1  UNL1        0.5753
     25 F          -3.0419  -15.6246   22.3111 F       1  UNL1       -0.1328
     26 F          -4.5690  -17.3201   24.2587 F       1  UNL1       -0.1328
@<TRIPOS>BOND
     1    23    24    1
     2    24    25    1
     3    24    26    1
     4    24    22    1
     5    22    16    1
     6    16    17   ar
     7    17    18   ar
     8    18    19   ar
     9    19    20   ar
    10    20    21   ar
    11    21    15    1
    12    15     1    1
    13     1     9    1
    14     9    10   ar
    15    10    11   ar
    16    11    12   ar
    17    12    13   ar
    18    13    14   ar
    19     1     2    1
    20     2     3    1
    21     3     4    1
    22     4     5    1
    23     5     6    1
    24     6     7    1
    25    21    16   ar
    26    14     9   ar
    27     7     2    1
    28     5     8    1
@<TRIPOS>MOLECULE
*****
 26 28 0 0 0
SMALL
GASTEIGER

@<TRIPOS>ATOM
      1 C          -8.5973  -16.7063   23.5152 C.3     1  UNL1        0.0847
      2 N         -10.0243  -17.1676   23.5502 N.3     1  UNL1       -0.2676
      3 C         -10.4097  -18.3506   24.3879 C.3     1  UNL1        0.0896
      4 C         -11.8366  -18.8119   24.4228 C.3     1  UNL1        0.0862
      5 N         -12.8780  -18.0901   23.6201 N.3     1  UNL1       -0.2951
      6 C         -12.4925  -16.9070   22.7823 C.3     1  UNL1        0.0862
      7 C         -11.0656  -16.4458   22.7474 C.3     1  UNL1        0.0896
      8 H         -13.5857  -17.7661   24.2793 H       1  UNL1        0.1233
      9 C          -7.9394  -16.2078   24.7677 C.ar    1  UNL1       -0.0075
     10 C          -8.6891  -16.2253   26.0667 C.ar    1  UNL1       -0.0030
     11 C          -8.0311  -15.7268   27.3192 C.ar    1  UNL1       -0.0003
     12 C          -6.6234  -15.2108   27.2725 C.ar    1  UNL1       -0.0000
     13 C          -5.8737  -15.1934   25.9735 C.ar    1  UNL1       -0.0003
     14 C          -6.5316  -15.6919   24.7211 C.ar    1  UNL1       -0.0030
     15 C          -7.8284  -16.7435   22.2279 C.3     1  UNL1        0.0499
     16 C          -7.7560  -18.8782   20.7486 C.ar    1  UNL1        0.1428
     17 C          -7.0672  -20.1407   20.3226 C.ar    1  UNL1        0.0369
     18 C          -5.7620  -20.5313   20.9502 C.ar    1  UNL1        0.0031
     19 C          -5.1455  -19.6594   22.0036 C.ar    1  UNL1       -0.0001
     20 C          -5.8343  -18.3968   22.4295 C.ar    1  UNL1       -0.0012
     21 C          -7.1395  -18.0062   21.8020 C.ar    1  UNL1        0.0137
     22 O          -9.0612  -18.4875   20.1210 O.3     1  UNL1       -0.4048
     23 F         -11.5673  -19.9824   20.8175 F       1  UNL1       -0.1328
     24 C         -10.3143  -19.2349   20.4693 C.3     1  UNL1        0.5753
     25 F         -10.9823  -18.6861   19.2435 F       1  UNL1       -0.1328
     26 F          -9.6462  -19.7838   21.6950 F       1  UNL1       -0.1328
@<TRIPOS>BOND
     1    23    24    1
     2    24    25    1
     3    24    26    1
     4    24    22    1
     5    22    16    1
     6    16    17   ar
     7    17    18   ar
     8    18    19   ar
     9    19    20   ar
    10    20    21   ar
    11    21    15    1
    12    15     1    1
    13     1     9    1
    14     9    10   ar
    15    10    11   ar
    16    11    12   ar
    17    12    13   ar
    18    13    14   ar
    19     1     2    1
    20     2     3    1
    21     3     4    1
    22     4     5    1
    23     5     6    1
    24     6     7    1
    25    21    16   ar
    26    14     9   ar
    27     7     2    1
    28     5     8    1
@<TRIPOS>MOLECULE
*****
 26 28 0 0 0
SMALL
GASTEIGER

@<TRIPOS>ATOM
      1 C          -8.9556  -17.7884   23.5164 C.3     1  UNL1        0.0847
      2 N          -8.1211  -16.7552   24.2137 N.3     1  UNL1       -0.2676
      3 C          -6.8837  -16.2213   23.5552 C.3     1  UNL1        0.0896
      4 C          -6.0492  -15.1882   24.2524 C.3     1  UNL1        0.0862
      5 N          -6.4522  -14.6889   25.6082 N.3     1  UNL1       -0.2951
      6 C          -7.6896  -15.2228   26.2668 C.3     1  UNL1        0.0862
      7 C          -8.5241  -16.2559   25.5696 C.3     1  UNL1        0.0896
      8 H          -6.5745  -13.6796   25.5260 H       1  UNL1        0.1233
      9 C         -10.4512  -17.6737   23.5228 C.ar    1  UNL1       -0.0075
     10 C         -11.1253  -16.6099   22.7081 C.ar    1  UNL1       -0.0030
     11 C         -12.6209  -16.4953   22.7145 C.ar    1  UNL1       -0.0003
     12 C         -13.4424  -17.4444   23.5357 C.ar    1  UNL1       -0.0000
     13 C         -12.7682  -18.5082   24.3505 C.ar    1  UNL1       -0.0003
     14 C         -11.2727  -18.6229   24.3440 C.ar    1  UNL1       -0.0030
     15 C          -8.2944  -18.9363   22.8127 C.3     1  UNL1        0.0499
     16 C          -7.6159  -19.2364   20.3228 C.ar    1  UNL1        0.1428
     17 C          -7.9854  -19.5606   18.9057 C.ar    1  UNL1        0.0369
     18 C          -9.4032  -19.9087   18.5613 C.ar    1  UNL1        0.0031
     19 C         -10.4514  -19.9328   19.6340 C.ar    1  UNL1       -0.0001
     20 C         -10.0818  -19.6086   21.0511 C.ar    1  UNL1       -0.0012
     21 C          -8.6641  -19.2605   21.3955 C.ar    1  UNL1        0.0137
     22 O          -6.1980  -18.8883   20.6673 O.3     1  UNL1       -0.4048
     23 F          -3.9601  -20.6944   19.8133 F       1  UNL1       -0.1328
     24 C          -5.0790  -19.7913   20.2403 C.3     1  UNL1        0.5753
     25 F          -5.7512  -20.9463   20.9217 F       1  UNL1       -0.1328
     26 F          -4.4069  -18.6364   19.5590 F       1  UNL1       -0.1328
@<TRIPOS>BOND
     1    23    24    1
     2    24    25    1
     3    24    26    1
     4    24    22    1
     5    22    16    1
     6    16    17   ar
     7    17    18   ar
     8    18    19   ar
     9    19    20   ar
    10    20    21   ar
    11    21    15    1
    12    15     1    1
    13     1     9    1
    14     9    10   ar
    15    10    11   ar
    16    11    12   ar
    17    12    13   ar
    18    13    14   ar
    19     1     2    1
    20     2     3    1
    21     3     4    1
    22     4     5    1
    23     5     6    1
    24     6     7    1
    25    21    16   ar
    26    14     9   ar
    27     7     2    1
    28     5     8    1
@<TRIPOS>MOLECULE
*****
 26 28 0 0 0
SMALL
GASTEIGER

@<TRIPOS>ATOM
      1 C          -8.5252  -16.6649   23.6214 C.3     1  UNL1        0.0847
      2 N          -9.9507  -17.1316   23.6016 N.3     1  UNL1       -0.2676
      3 C         -10.3520  -18.3493   24.3801 C.3     1  UNL1        0.0896
      4 C         -11.7774  -18.8160   24.3603 C.3     1  UNL1        0.0862
      5 N         -12.8015  -18.0650   23.5621 N.3     1  UNL1       -0.2951
      6 C         -12.4001  -16.8473   22.7836 C.3     1  UNL1        0.0862
      7 C         -10.9747  -16.3806   22.8033 C.3     1  UNL1        0.0896
      8 H         -13.5266  -17.7705   24.2161 H       1  UNL1        0.1233
      9 C          -7.9201  -16.1565   24.8963 C.ar    1  UNL1       -0.0075
     10 C          -6.4946  -15.6901   24.9161 C.ar    1  UNL1       -0.0030
     11 C          -5.8895  -15.1817   26.1911 C.ar    1  UNL1       -0.0003
     12 C          -6.7100  -15.1397   27.4461 C.ar    1  UNL1       -0.0000
     13 C          -8.1355  -15.6061   27.4262 C.ar    1  UNL1       -0.0003
     14 C          -8.7406  -16.1145   26.1514 C.ar    1  UNL1       -0.0030
     15 C          -7.7049  -16.7066   22.3662 C.3     1  UNL1        0.0499
     16 C          -5.6709  -18.3019   22.1062 C.ar    1  UNL1        0.1428
     17 C          -5.0917  -19.6016   21.6316 C.ar    1  UNL1        0.0369
     18 C          -5.9673  -20.6058   20.9426 C.ar    1  UNL1        0.0031
     19 C          -7.4222  -20.3103   20.7281 C.ar    1  UNL1       -0.0001
     20 C          -8.0014  -19.0106   21.2026 C.ar    1  UNL1       -0.0012
     21 C          -7.1257  -18.0064   21.8917 C.ar    1  UNL1        0.0137
     22 O          -4.7952  -17.2977   22.7952 O.3     1  UNL1       -0.4048
     23 F          -1.9323  -17.9646   23.3943 F       1  UNL1       -0.1328
     24 C          -3.3637  -17.6312   23.0948 C.3     1  UNL1        0.5753
     25 F          -3.7484  -18.0303   24.4886 F       1  UNL1       -0.1328
     26 F          -2.9791  -17.2320   21.7010 F       1  UNL1       -0.1328
@<TRIPOS>BOND
     1    23    24    1
     2    24    25    1
     3    24    26    1
     4    24    22    1
     5    22    16    1
     6    16    17   ar
     7    17    18   ar
     8    18    19   ar
     9    19    20   ar
    10    20    21   ar
    11    21    15    1
    12    15     1    1
    13     1     9    1
    14     9    10   ar
    15    10    11   ar
    16    11    12   ar
    17    12    13   ar
    18    13    14   ar
    19     1     2    1
    20     2     3    1
    21     3     4    1
    22     4     5    1
    23     5     6    1
    24     6     7    1
    25    21    16   ar
    26    14     9   ar
    27     7     2    1
    28     5     8    1
@<TRIPOS>MOLECULE
*****
 26 28 0 0 0
SMALL
GASTEIGER

@<TRIPOS>ATOM
      1 C          -9.4328  -16.7260   22.4874 C.3     1  UNL1        0.0847
      2 N         -10.4780  -16.3844   21.4671 N.3     1  UNL1       -0.2676
      3 C         -11.9007  -16.8099   21.6794 C.3     1  UNL1        0.0896
      4 C         -12.9459  -16.4683   20.6592 C.3     1  UNL1        0.0862
      5 N         -12.5684  -15.7012   19.4267 N.3     1  UNL1       -0.2951
      6 C         -11.1458  -15.2758   19.2144 C.3     1  UNL1        0.0862
      7 C         -10.1006  -15.6174   20.2346 C.3     1  UNL1        0.0896
      8 H         -13.1333  -14.8519   19.4240 H       1  UNL1        0.1233
      9 C          -9.4921  -18.0384   23.2114 C.ar    1  UNL1       -0.0075
     10 C          -8.7310  -19.2195   22.6866 C.ar    1  UNL1       -0.0030
     11 C          -8.7903  -20.5319   23.4107 C.ar    1  UNL1       -0.0003
     12 C          -9.6108  -20.6630   24.6595 C.ar    1  UNL1       -0.0000
     13 C         -10.3719  -19.4818   25.1843 C.ar    1  UNL1       -0.0003
     14 C         -10.3126  -18.1695   24.4603 C.ar    1  UNL1       -0.0030
     15 C          -8.3283  -15.7553   22.7836 C.3     1  UNL1        0.0499
     16 C          -6.2813  -15.7924   24.3832 C.ar    1  UNL1        0.1428
     17 C          -5.7135  -15.7023   25.7686 C.ar    1  UNL1        0.0369
     18 C          -6.6249  -15.4850   26.9399 C.ar    1  UNL1        0.0031
     19 C          -8.1040  -15.3577   26.7259 C.ar    1  UNL1       -0.0001
     20 C          -8.6719  -15.4478   25.3405 C.ar    1  UNL1       -0.0012
     21 C          -7.7605  -15.6652   24.1691 C.ar    1  UNL1        0.0137
     22 O          -5.3699  -16.0097   23.2117 O.3     1  UNL1       -0.4048
     23 F          -3.8301  -18.5725   22.9644 F       1  UNL1       -0.1328
     24 C          -4.6000  -17.2911   23.0881 C.3     1  UNL1        0.5753
     25 F          -5.8871  -18.0601   23.0431 F       1  UNL1       -0.1328
     26 F          -3.3129  -16.5221   23.1330 F       1  UNL1       -0.1328
@<TRIPOS>BOND
     1    23    24    1
     2    24    25    1
     3    24    26    1
     4    24    22    1
     5    22    16    1
     6    16    17   ar
     7    17    18   ar
     8    18    19   ar
     9    19    20   ar
    10    20    21   ar
    11    21    15    1
    12    15     1    1
    13     1     9    1
    14     9    10   ar
    15    10    11   ar
    16    11    12   ar
    17    12    13   ar
    18    13    14   ar
    19     1     2    1
    20     2     3    1
    21     3     4    1
    22     4     5    1
    23     5     6    1
    24     6     7    1
    25    21    16   ar
    26    14     9   ar
    27     7     2    1
    28     5     8    1
@<TRIPOS>MOLECULE
*****
 26 28 0 0 0
SMALL
GASTEIGER

@<TRIPOS>ATOM
      1 C          -8.5271  -17.8777   22.8790 C.3     1  UNL1        0.0847
      2 N          -7.8862  -16.8563   23.7713 N.3     1  UNL1       -0.2676
      3 C          -8.5599  -16.4471   25.0475 C.3     1  UNL1        0.0896
      4 C          -7.9191  -15.4258   25.9398 C.3     1  UNL1        0.0862
      5 N          -6.6046  -14.8137   25.5559 N.3     1  UNL1       -0.2951
      6 C          -5.9310  -15.2228   24.2797 C.3     1  UNL1        0.0862
      7 C          -6.5718  -16.2442   23.3874 C.3     1  UNL1        0.0896
      8 H          -5.9520  -15.0191   26.3124 H       1  UNL1        0.1233
      9 C          -9.8460  -17.5831   22.2282 C.ar    1  UNL1       -0.0075
     10 C         -10.0176  -16.3366   21.4116 C.ar    1  UNL1       -0.0030
     11 C         -11.3366  -16.0420   20.7607 C.ar    1  UNL1       -0.0003
     12 C         -12.4840  -16.9938   20.9266 C.ar    1  UNL1       -0.0000
     13 C         -12.3124  -18.2403   21.7432 C.ar    1  UNL1       -0.0003
     14 C         -10.9935  -18.5349   22.3940 C.ar    1  UNL1       -0.0030
     15 C          -7.8489  -19.1937   22.6375 C.3     1  UNL1        0.0499
     16 C          -6.6019  -19.0181   20.3650 C.ar    1  UNL1        0.1428
     17 C          -5.3281  -19.0716   19.5747 C.ar    1  UNL1        0.0369
     18 C          -4.0276  -19.3539   20.2666 C.ar    1  UNL1        0.0031
     19 C          -4.0008  -19.5829   21.7488 C.ar    1  UNL1       -0.0001
     20 C          -5.2745  -19.5295   22.5391 C.ar    1  UNL1       -0.0012
     21 C          -6.5751  -19.2471   21.8472 C.ar    1  UNL1        0.0137
     22 O          -7.9026  -18.7357   19.6732 O.3     1  UNL1       -0.4048
     23 F          -9.5795  -21.0024   18.6483 F       1  UNL1       -0.1328
     24 C          -8.7410  -19.8691   19.1608 C.3     1  UNL1        0.5753
     25 F          -7.5314  -20.7559   19.1429 F       1  UNL1       -0.1328
     26 F          -9.9506  -18.9822   19.1786 F       1  UNL1       -0.1328
@<TRIPOS>BOND
     1    23    24    1
     2    24    25    1
     3    24    26    1
     4    24    22    1
     5    22    16    1
     6    16    17   ar
     7    17    18   ar
     8    18    19   ar
     9    19    20   ar
    10    20    21   ar
    11    21    15    1
    12    15     1    1
    13     1     9    1
    14     9    10   ar
    15    10    11   ar
    16    11    12   ar
    17    12    13   ar
    18    13    14   ar
    19     1     2    1
    20     2     3    1
    21     3     4    1
    22     4     5    1
    23     5     6    1
    24     6     7    1
    25    21    16   ar
    26    14     9   ar
    27     7     2    1
    28     5     8    1
@<TRIPOS>MOLECULE
*****
 26 28 0 0 0
SMALL
GASTEIGER

@<TRIPOS>ATOM
      1 C          -8.7596  -17.9596   22.8320 C.3     1  UNL1        0.0847
      2 N         -10.0111  -17.5894   22.0924 N.3     1  UNL1       -0.2676
      3 C         -11.2213  -18.4715   22.1777 C.3     1  UNL1        0.0896
      4 C         -12.4727  -18.1014   21.4381 C.3     1  UNL1        0.0862
      5 N         -12.5139  -16.8492   20.6134 N.3     1  UNL1       -0.2951
      6 C         -11.3036  -15.9671   20.5281 C.3     1  UNL1        0.0862
      7 C         -10.0522  -16.3372   21.2676 C.3     1  UNL1        0.0896
      8 H         -13.2705  -16.2758   20.9863 H       1  UNL1        0.1233
      9 C          -8.1924  -17.0265   23.8604 C.ar    1  UNL1       -0.0075
     10 C          -8.8770  -16.8647   25.1852 C.ar    1  UNL1       -0.0030
     11 C          -8.3097  -15.9316   26.2136 C.ar    1  UNL1       -0.0003
     12 C          -7.0579  -15.1603   25.9171 C.ar    1  UNL1       -0.0000
     13 C          -6.3733  -15.3220   24.5923 C.ar    1  UNL1       -0.0003
     14 C          -6.9405  -16.2551   23.5640 C.ar    1  UNL1       -0.0030
     15 C          -8.0754  -19.2628   22.5432 C.3     1  UNL1        0.0499
     16 C          -6.7564  -19.0357   20.3164 C.ar    1  UNL1        0.1428
     17 C          -5.4554  -19.0505   19.5698 C.ar    1  UNL1        0.0369
     18 C          -4.1726  -19.3071   20.3035 C.ar    1  UNL1        0.0031
     19 C          -4.1907  -19.5490   21.7838 C.ar    1  UNL1       -0.0001
     20 C          -5.4916  -19.5342   22.5303 C.ar    1  UNL1       -0.0012
     21 C          -6.7744  -19.2776   21.7966 C.ar    1  UNL1        0.0137
     22 O          -8.0393  -18.7791   19.5826 O.3     1  UNL1       -0.4048
     23 F          -9.6661  -21.0809   18.5554 F       1  UNL1       -0.1328
     24 C          -8.8527  -19.9300   19.0690 C.3     1  UNL1        0.5753
     25 F         -10.0787  -19.0658   19.0742 F       1  UNL1       -0.1328
     26 F          -7.6266  -20.7942   19.0638 F       1  UNL1       -0.1328
@<TRIPOS>BOND
     1    23    24    1
     2    24    25    1
     3    24    26    1
     4    24    22    1
     5    22    16    1
     6    16    17   ar
     7    17    18   ar
     8    18    19   ar
     9    19    20   ar
    10    20    21   ar
    11    21    15    1
    12    15     1    1
    13     1     9    1
    14     9    10   ar
    15    10    11   ar
    16    11    12   ar
    17    12    13   ar
    18    13    14   ar
    19     1     2    1
    20     2     3    1
    21     3     4    1
    22     4     5    1
    23     5     6    1
    24     6     7    1
    25    21    16   ar
    26    14     9   ar
    27     7     2    1
    28     5     8    1
