@<TRIPOS>MOLECULE
*****
 25 28 0 0 0
SMALL
GASTEIGER

@<TRIPOS>ATOM
      1 C          -6.1144  -16.1770   24.1184 C.2     1  UNL1        0.3270
      2 N          -4.6411  -16.4253   23.9850 N.2     1  UNL1       -0.0380
      3 C          -4.4477  -17.5659   23.0301 C.2     1  UNL1        0.2637
      4 C          -3.2139  -18.2476   22.5176 C.2     1  UNL1        0.2821
      5 N          -3.3338  -19.3861   21.5482 N.2     1  UNL1       -0.0268
      6 C          -4.6877  -19.8427   21.0915 C.2     1  UNL1        0.3760
      7 N          -5.1156  -20.9293   20.1501 N.2     1  UNL1       -0.0306
      8 C          -6.6139  -20.9190   20.0808 C.2     1  UNL1        0.2361
      9 C          -7.1121  -19.8261   20.9794 C.2     1  UNL1        0.0583
     10 C          -5.9215  -19.1609   21.6041 C.2     1  UNL1        0.1203
     11 C          -5.8016  -18.0225   22.5734 C.3     1  UNL1        0.2596
     12 N          -6.8316  -17.1642   23.2460 N.pl3   1  UNL1       -0.1887
     13 C          -8.3179  -17.2737   23.0760 C.3     1  UNL1        0.1605
     14 C          -9.0164  -16.4502   22.0349 C.3     1  UNL1        0.0466
     15 C         -10.5028  -16.5597   21.8650 C.3     1  UNL1        0.0052
     16 C         -11.2905  -17.4929   22.7360 C.3     1  UNL1        0.0154
     17 C         -10.5919  -18.3164   23.7771 C.3     1  UNL1        0.0052
     18 C          -9.1057  -18.2069   23.9470 C.3     1  UNL1        0.0466
     19 C         -12.7768  -17.6024   22.5660 C.3     1  UNL1        0.1054
     20 C         -13.6325  -18.0460   23.7154 C.1     1  UNL1        0.0731
     21 N         -14.4882  -18.4896   24.8647 N.1     1  UNL1       -0.1959
     22 C          -6.6290  -15.1926   26.4670 C.3     1  UNL1        0.0450
     23 C          -6.7575  -15.1262   24.9740 C.3     1  UNL1        0.2165
     24 O          -7.5290  -14.0089   24.3365 O.3     1  UNL1       -0.3737
     25 H          -7.5142  -14.1146   23.3724 H       1  UNL1        0.2111
@<TRIPOS>BOND
     1    23    22    1
     2    23    24    1
     3    23     1    1
     4     1     2    2
     5     2     3    1
     6     3     4    2
     7     4     5    1
     8     5     6    2
     9     6     7    1
    10     7     8    2
    11     8     9    1
    12     9    10    2
    13    10    11    1
    14    11    12    1
    15    13    12    1
    16    13    14    1
    17    14    15    1
    18    15    16    1
    19    16    19    1
    20    19    20    1
    21    20    21    3
    22    16    17    1
    23    17    18    1
    24    12     1    1
    25    18    13    1
    26    11     3    1
    27    10     6    1
    28    24    25    1
@<TRIPOS>MOLECULE
*****
 25 28 0 0 0
SMALL
GASTEIGER

@<TRIPOS>ATOM
      1 C          -5.4915  -16.3110   24.2817 C.2     1  UNL1        0.3270
      2 N          -4.0096  -16.5421   24.3052 N.2     1  UNL1       -0.0380
      3 C          -3.6907  -17.6083   23.2994 C.2     1  UNL1        0.2637
      4 C          -2.3965  -18.2448   22.8876 C.2     1  UNL1        0.2821
      5 N          -2.3870  -19.3092   21.8307 N.2     1  UNL1       -0.0268
      6 C          -3.6718  -19.7371   21.1857 C.2     1  UNL1        0.3760
      7 N          -3.9722  -20.7532   20.1239 N.2     1  UNL1       -0.0306
      8 C          -5.4521  -20.7446   19.8796 C.2     1  UNL1        0.2361
      9 C          -6.0664  -19.7233   20.7903 C.2     1  UNL1        0.0583
     10 C          -4.9661  -19.1005   21.5975 C.2     1  UNL1        0.1203
     11 C          -4.9756  -18.0361   22.6544 C.3     1  UNL1        0.2596
     12 N          -6.0885  -17.2344   23.2615 N.pl3   1  UNL1       -0.1887
     13 C          -7.5430  -17.3378   22.9101 C.3     1  UNL1        0.1605
     14 C          -8.2304  -16.1981   22.2183 C.3     1  UNL1        0.0466
     15 C          -9.6850  -16.3016   21.8669 C.3     1  UNL1        0.0052
     16 C         -10.4522  -17.5448   22.2073 C.3     1  UNL1        0.0154
     17 C          -9.7649  -18.6845   22.8991 C.3     1  UNL1        0.0052
     18 C          -8.3103  -18.5811   23.2505 C.3     1  UNL1        0.0466
     19 C         -11.9068  -17.6482   21.8559 C.3     1  UNL1        0.1054
     20 C         -12.5027  -16.7131   20.8457 C.1     1  UNL1        0.0731
     21 N         -13.0986  -15.7779   19.8356 N.1     1  UNL1       -0.1959
     22 C          -6.2455  -15.4736   26.6227 C.3     1  UNL1        0.0450
     23 C          -6.2442  -15.3290   25.1297 C.3     1  UNL1        0.2165
     24 O          -6.9955  -14.2023   24.4846 O.3     1  UNL1       -0.3737
     25 H          -6.8920  -14.2542   23.5215 H       1  UNL1        0.2111
@<TRIPOS>BOND
     1    23    22    1
     2    23    24    1
     3    23     1    1
     4     1     2    2
     5     2     3    1
     6     3     4    2
     7     4     5    1
     8     5     6    2
     9     6     7    1
    10     7     8    2
    11     8     9    1
    12     9    10    2
    13    10    11    1
    14    11    12    1
    15    13    12    1
    16    13    14    1
    17    14    15    1
    18    15    16    1
    19    16    19    1
    20    19    20    1
    21    20    21    3
    22    16    17    1
    23    17    18    1
    24    12     1    1
    25    18    13    1
    26    11     3    1
    27    10     6    1
    28    24    25    1
@<TRIPOS>MOLECULE
*****
 25 28 0 0 0
SMALL
GASTEIGER

@<TRIPOS>ATOM
      1 C          -7.2075  -18.1464   21.8519 C.2     1  UNL1        0.3270
      2 N          -5.7638  -17.7965   22.0601 N.2     1  UNL1       -0.0380
      3 C          -5.6555  -17.0160   23.3366 C.2     1  UNL1        0.2637
      4 C          -4.4812  -16.4089   24.0451 C.2     1  UNL1        0.2821
      5 N          -4.6835  -15.6692   25.3344 N.2     1  UNL1       -0.0268
      6 C          -6.0602  -15.5367   25.9149 C.2     1  UNL1        0.3760
      7 N          -6.5644  -14.8702   27.1605 N.2     1  UNL1       -0.0306
      8 C          -8.0503  -15.0655   27.2217 C.2     1  UNL1        0.2361
      9 C          -8.4646  -15.8527   26.0139 C.2     1  UNL1        0.0583
     10 C          -7.2346  -16.1439   25.2062 C.2     1  UNL1        0.1203
     11 C          -7.0323  -16.8836   23.9171 C.3     1  UNL1        0.2596
     12 N          -7.9914  -17.5822   22.9995 N.pl3   1  UNL1       -0.1887
     13 C          -9.4742  -17.6965   23.1952 C.3     1  UNL1        0.1605
     14 C         -10.0394  -18.8297   23.9992 C.3     1  UNL1        0.0466
     15 C         -11.5223  -18.9440   24.1948 C.3     1  UNL1        0.0052
     16 C         -12.4398  -17.9251   23.5866 C.3     1  UNL1        0.0154
     17 C         -11.8745  -16.7919   22.7826 C.3     1  UNL1        0.0052
     18 C         -10.3918  -16.6776   22.5869 C.3     1  UNL1        0.0466
     19 C         -13.9225  -18.0395   23.7823 C.3     1  UNL1        0.1054
     20 C         -14.4736  -18.4513   25.1152 C.1     1  UNL1        0.0731
     21 N         -15.0246  -18.8632   26.4481 N.1     1  UNL1       -0.1959
     22 C          -7.0307  -20.1177   20.1688 C.3     1  UNL1        0.0450
     23 C          -7.7687  -18.9240   20.6984 C.3     1  UNL1        0.2165
     24 O          -9.0678  -18.5080   20.0747 O.3     1  UNL1       -0.3737
     25 H          -9.4101  -17.7244   20.5327 H       1  UNL1        0.2111
@<TRIPOS>BOND
     1    23    22    1
     2    23    24    1
     3    23     1    1
     4     1     2    2
     5     2     3    1
     6     3     4    2
     7     4     5    1
     8     5     6    2
     9     6     7    1
    10     7     8    2
    11     8     9    1
    12     9    10    2
    13    10    11    1
    14    11    12    1
    15    13    12    1
    16    13    14    1
    17    14    15    1
    18    15    16    1
    19    16    19    1
    20    19    20    1
    21    20    21    3
    22    16    17    1
    23    17    18    1
    24    12     1    1
    25    18    13    1
    26    11     3    1
    27    10     6    1
    28    24    25    1
@<TRIPOS>MOLECULE
*****
 25 28 0 0 0
SMALL
GASTEIGER

@<TRIPOS>ATOM
      1 C         -11.5924  -17.8246   21.9222 C.2     1  UNL1        0.3270
      2 N         -11.6908  -18.4507   20.5626 N.2     1  UNL1       -0.0380
      3 C         -10.3380  -18.9887   20.2011 C.2     1  UNL1        0.2637
      4 C          -9.8363  -19.7079   18.9842 C.2     1  UNL1        0.2821
      5 N          -8.4002  -20.1336   18.9033 N.2     1  UNL1       -0.0268
      6 C          -7.4659  -19.8399   20.0394 C.2     1  UNL1        0.3760
      7 N          -6.0092  -20.1347   20.2428 N.2     1  UNL1       -0.0306
      8 C          -5.6107  -19.5976   21.5854 C.2     1  UNL1        0.2361
      9 C          -6.8210  -18.9709   22.2118 C.2     1  UNL1        0.0583
     10 C          -7.9676  -19.1207   21.2563 C.2     1  UNL1        0.1203
     11 C          -9.4037  -18.6950   21.3372 C.3     1  UNL1        0.2596
     12 N         -10.1789  -17.9756   22.4009 N.pl3   1  UNL1       -0.1887
     13 C          -9.6361  -17.4921   23.7129 C.3     1  UNL1        0.1605
     14 C          -9.8221  -18.3174   24.9515 C.3     1  UNL1        0.0466
     15 C          -9.2792  -17.8338   26.2636 C.3     1  UNL1        0.0052
     16 C          -8.5502  -16.5250   26.3369 C.3     1  UNL1        0.0154
     17 C          -8.3641  -15.6996   25.0983 C.3     1  UNL1        0.0052
     18 C          -8.9070  -16.1832   23.7863 C.3     1  UNL1        0.0466
     19 C          -8.0073  -16.0414   27.6489 C.3     1  UNL1        0.1054
     20 C          -7.0138  -14.9181   27.6813 C.1     1  UNL1        0.0731
     21 N          -6.0203  -13.7948   27.7137 N.1     1  UNL1       -0.1959
     22 C         -13.6015  -17.9783   23.5623 C.3     1  UNL1        0.0450
     23 C         -12.7112  -17.1636   22.6714 C.3     1  UNL1        0.2165
     24 O         -12.9398  -15.6880   22.5297 O.3     1  UNL1       -0.3737
     25 H         -12.2818  -15.3158   21.9218 H       1  UNL1        0.2111
@<TRIPOS>BOND
     1    23    22    1
     2    23    24    1
     3    23     1    1
     4     1     2    2
     5     2     3    1
     6     3     4    2
     7     4     5    1
     8     5     6    2
     9     6     7    1
    10     7     8    2
    11     8     9    1
    12     9    10    2
    13    10    11    1
    14    11    12    1
    15    13    12    1
    16    13    14    1
    17    14    15    1
    18    15    16    1
    19    16    19    1
    20    19    20    1
    21    20    21    3
    22    16    17    1
    23    17    18    1
    24    12     1    1
    25    18    13    1
    26    11     3    1
    27    10     6    1
    28    24    25    1
@<TRIPOS>MOLECULE
*****
 25 28 0 0 0
SMALL
GASTEIGER

@<TRIPOS>ATOM
      1 C          -8.0888  -16.1331   24.4820 C.2     1  UNL1        0.3270
      2 N          -9.5754  -15.9489   24.4048 N.2     1  UNL1       -0.0380
      3 C         -10.0765  -16.7158   23.2170 C.2     1  UNL1        0.2637
      4 C         -11.4523  -16.8999   22.6488 C.2     1  UNL1        0.2821
      5 N         -11.6513  -17.7422   21.4236 N.2     1  UNL1       -0.0268
      6 C         -10.4743  -18.4003   20.7667 C.2     1  UNL1        0.3760
      7 N         -10.3625  -19.2810   19.5576 N.2     1  UNL1       -0.0306
      8 C          -8.9175  -19.6412   19.3787 C.2     1  UNL1        0.2361
      9 C          -8.1362  -18.9832   20.4771 C.2     1  UNL1        0.0583
     10 C          -9.0984  -18.2162   21.3350 C.2     1  UNL1        0.1203
     11 C          -8.8995  -17.3740   22.5601 C.3     1  UNL1        0.2596
     12 N          -7.6710  -17.0138   23.3419 N.pl3   1  UNL1       -0.1887
     13 C          -6.2707  -17.4566   23.0371 C.3     1  UNL1        0.1605
     14 C          -6.0276  -18.7983   22.4121 C.3     1  UNL1        0.0466
     15 C          -4.6272  -19.2411   22.1073 C.3     1  UNL1        0.0052
     16 C          -3.4699  -18.3422   22.4276 C.3     1  UNL1        0.0154
     17 C          -3.7130  -17.0005   23.0527 C.3     1  UNL1        0.0052
     18 C          -5.1133  -16.5577   23.3574 C.3     1  UNL1        0.0466
     19 C          -2.0696  -18.7850   22.1228 C.3     1  UNL1        0.1054
     20 C          -1.4966  -18.5710   20.7532 C.1     1  UNL1        0.0731
     21 N          -0.9236  -18.3569   19.3836 N.1     1  UNL1       -0.1959
     22 C          -7.1576  -16.1043   26.9073 C.3     1  UNL1        0.0450
     23 C          -7.1795  -15.5405   25.5174 C.3     1  UNL1        0.2165
     24 O          -6.2923  -14.3842   25.1630 O.3     1  UNL1       -0.3737
     25 H          -6.4288  -14.1450   24.2329 H       1  UNL1        0.2111
@<TRIPOS>BOND
     1    23    22    1
     2    23    24    1
     3    23     1    1
     4     1     2    2
     5     2     3    1
     6     3     4    2
     7     4     5    1
     8     5     6    2
     9     6     7    1
    10     7     8    2
    11     8     9    1
    12     9    10    2
    13    10    11    1
    14    11    12    1
    15    13    12    1
    16    13    14    1
    17    14    15    1
    18    15    16    1
    19    16    19    1
    20    19    20    1
    21    20    21    3
    22    16    17    1
    23    17    18    1
    24    12     1    1
    25    18    13    1
    26    11     3    1
    27    10     6    1
    28    24    25    1
@<TRIPOS>MOLECULE
*****
 25 28 0 0 0
SMALL
GASTEIGER

@<TRIPOS>ATOM
      1 C          -9.1452  -20.0632   19.4215 C.2     1  UNL1        0.3270
      2 N         -10.5848  -19.6710   19.5748 N.2     1  UNL1       -0.0380
      3 C         -10.6774  -18.6748   20.6925 C.2     1  UNL1        0.2637
      4 C         -11.8418  -17.9423   21.2902 C.2     1  UNL1        0.2821
      5 N         -11.6239  -16.9863   22.4255 N.2     1  UNL1       -0.0268
      6 C         -10.2414  -16.7630   22.9629 C.2     1  UNL1        0.3760
      7 N          -9.7225  -15.8890   24.0660 N.2     1  UNL1       -0.0306
      8 C          -8.2373  -16.0814   24.1500 C.2     1  UNL1        0.2361
      9 C          -7.8383  -17.0743   23.0988 C.2     1  UNL1        0.0583
     10 C          -9.0769  -17.4955   22.3651 C.2     1  UNL1        0.1203
     11 C          -9.2949  -18.4514   21.2299 C.3     1  UNL1        0.2596
     12 N          -8.3479  -19.3095   20.4443 N.pl3   1  UNL1       -0.1887
     13 C          -6.8643  -19.3982   20.6463 C.3     1  UNL1        0.1605
     14 C          -6.3134  -19.9686   21.9195 C.3     1  UNL1        0.0466
     15 C          -4.8297  -20.0574   22.1214 C.3     1  UNL1        0.0052
     16 C          -3.8969  -19.5758   21.0500 C.3     1  UNL1        0.0154
     17 C          -4.4477  -19.0054   19.7768 C.3     1  UNL1        0.0052
     18 C          -5.9314  -18.9166   19.5749 C.3     1  UNL1        0.0466
     19 C          -2.4132  -19.6645   21.2520 C.3     1  UNL1        0.1054
     20 C          -1.4851  -18.9417   20.3213 C.1     1  UNL1        0.0731
     21 N          -0.5569  -18.2189   19.3907 N.1     1  UNL1       -0.1959
     22 C          -9.2014  -21.1227   17.0499 C.3     1  UNL1        0.0450
     23 C          -8.5987  -21.0380   18.4209 C.3     1  UNL1        0.2165
     24 O          -7.4496  -21.9281   18.7913 O.3     1  UNL1       -0.3737
     25 H          -7.1821  -21.7470   19.7060 H       1  UNL1        0.2111
@<TRIPOS>BOND
     1    23    22    1
     2    23    24    1
     3    23     1    1
     4     1     2    2
     5     2     3    1
     6     3     4    2
     7     4     5    1
     8     5     6    2
     9     6     7    1
    10     7     8    2
    11     8     9    1
    12     9    10    2
    13    10    11    1
    14    11    12    1
    15    13    12    1
    16    13    14    1
    17    14    15    1
    18    15    16    1
    19    16    19    1
    20    19    20    1
    21    20    21    3
    22    16    17    1
    23    17    18    1
    24    12     1    1
    25    18    13    1
    26    11     3    1
    27    10     6    1
    28    24    25    1
@<TRIPOS>MOLECULE
*****
 25 28 0 0 0
SMALL
GASTEIGER

@<TRIPOS>ATOM
      1 C         -11.0901   -5.5504   18.1008 C.2     1  UNL1        0.3270
      2 N         -10.3131   -4.2703   18.1862 N.2     1  UNL1       -0.0380
      3 C         -11.2922   -3.1415   18.3181 C.2     1  UNL1        0.2637
      4 C         -11.1038   -1.6586   18.4413 C.2     1  UNL1        0.2821
      5 N         -12.2976   -0.7582   18.5605 N.2     1  UNL1       -0.0268
      6 C         -13.6798   -1.3408   18.5565 C.2     1  UNL1        0.3760
      7 N         -15.0360   -0.7080   18.6579 N.2     1  UNL1       -0.0306
      8 C         -16.0626   -1.8000   18.5973 C.2     1  UNL1        0.2361
      9 C         -15.3409   -3.1076   18.4585 C.2     1  UNL1        0.0583
     10 C         -13.8682   -2.8238   18.4333 C.2     1  UNL1        0.1203
     11 C         -12.6744   -3.7242   18.3141 C.3     1  UNL1        0.2596
     12 N         -12.5495   -5.2130   18.1798 N.pl3   1  UNL1       -0.1887
     13 C         -13.6847   -6.1923   18.1328 C.3     1  UNL1        0.1605
     14 C         -14.4315   -6.5356   19.3875 C.3     1  UNL1        0.0466
     15 C         -15.5668   -7.5150   19.3404 C.3     1  UNL1        0.0052
     16 C         -15.9551   -8.1510   18.0387 C.3     1  UNL1        0.0154
     17 C         -15.2083   -7.8077   16.7839 C.3     1  UNL1        0.0052
     18 C         -14.0731   -6.8283   16.8310 C.3     1  UNL1        0.0466
     19 C         -17.0903   -9.1303   17.9916 C.3     1  UNL1        0.1054
     20 C         -16.8983  -10.5263   18.5058 C.1     1  UNL1        0.0731
     21 N         -16.7063  -11.9223   19.0199 N.1     1  UNL1       -0.1959
     22 C          -9.5499   -7.4439   18.9909 C.3     1  UNL1        0.0450
     23 C         -10.5097   -6.9265   17.9608 C.3     1  UNL1        0.2165
     24 O         -10.8890   -7.7850   16.7908 O.3     1  UNL1       -0.3737
     25 H         -11.5129   -7.3036   16.2253 H       1  UNL1        0.2111
@<TRIPOS>BOND
     1    23    22    1
     2    23    24    1
     3    23     1    1
     4     1     2    2
     5     2     3    1
     6     3     4    2
     7     4     5    1
     8     5     6    2
     9     6     7    1
    10     7     8    2
    11     8     9    1
    12     9    10    2
    13    10    11    1
    14    11    12    1
    15    13    12    1
    16    13    14    1
    17    14    15    1
    18    15    16    1
    19    16    19    1
    20    19    20    1
    21    20    21    3
    22    16    17    1
    23    17    18    1
    24    12     1    1
    25    18    13    1
    26    11     3    1
    27    10     6    1
    28    24    25    1
@<TRIPOS>MOLECULE
*****
 25 28 0 0 0
SMALL
GASTEIGER

@<TRIPOS>ATOM
      1 C         -11.0748   -3.2183   18.0639 C.2     1  UNL1        0.3270
      2 N         -10.9320   -1.7296   18.1798 N.2     1  UNL1       -0.0380
      3 C         -12.3080   -1.1332   18.2130 C.2     1  UNL1        0.2637
      4 C         -12.7849    0.2850   18.3178 C.2     1  UNL1        0.2821
      5 N         -14.2550    0.5833   18.3272 N.2     1  UNL1       -0.0268
      6 C         -15.2480   -0.5368   18.2317 C.2     1  UNL1        0.3760
      7 N         -16.7479   -0.5498   18.2168 N.2     1  UNL1       -0.0306
      8 C         -17.1979   -1.9762   18.1029 C.2     1  UNL1        0.2361
      9 C         -15.9762   -2.8447   18.0473 C.2     1  UNL1        0.0583
     10 C         -14.7711   -1.9551   18.1269 C.2     1  UNL1        0.1203
     11 C         -13.3011   -2.2533   18.1176 C.3     1  UNL1        0.2596
     12 N         -12.5389   -3.5420   18.0254 N.pl3   1  UNL1       -0.1887
     13 C         -13.1360   -4.9135   17.9143 C.3     1  UNL1        0.1605
     14 C         -13.2716   -5.5658   16.5704 C.3     1  UNL1        0.0466
     15 C         -13.8687   -6.9374   16.4593 C.3     1  UNL1        0.0052
     16 C         -14.3303   -7.6565   17.6921 C.3     1  UNL1        0.0154
     17 C         -14.1948   -7.0042   19.0360 C.3     1  UNL1        0.0052
     18 C         -13.5976   -5.6327   19.1471 C.3     1  UNL1        0.0466
     19 C         -14.9274   -9.0280   17.5810 C.3     1  UNL1        0.1054
     20 C         -15.8270   -9.5444   18.6645 C.1     1  UNL1        0.0731
     21 N         -16.7266  -10.0608   19.7481 N.1     1  UNL1       -0.1959
     22 C          -9.6926   -5.1287   19.1548 C.3     1  UNL1        0.0450
     23 C          -9.9507   -4.2093   17.9980 C.3     1  UNL1        0.2165
     24 O          -9.0847   -4.2809   16.7753 O.3     1  UNL1       -0.3737
     25 H          -9.3846   -3.6239   16.1278 H       1  UNL1        0.2111
@<TRIPOS>BOND
     1    23    22    1
     2    23    24    1
     3    23     1    1
     4     1     2    2
     5     2     3    1
     6     3     4    2
     7     4     5    1
     8     5     6    2
     9     6     7    1
    10     7     8    2
    11     8     9    1
    12     9    10    2
    13    10    11    1
    14    11    12    1
    15    13    12    1
    16    13    14    1
    17    14    15    1
    18    15    16    1
    19    16    19    1
    20    19    20    1
    21    20    21    3
    22    16    17    1
    23    17    18    1
    24    12     1    1
    25    18    13    1
    26    11     3    1
    27    10     6    1
    28    24    25    1
@<TRIPOS>MOLECULE
*****
 25 28 0 0 0
SMALL
GASTEIGER

@<TRIPOS>ATOM
      1 C           3.2427   -0.0347   18.2370 C.2     1  UNL1        0.3270
      2 N           1.9612    0.7365   18.1221 N.2     1  UNL1       -0.0380
      3 C           1.4291    0.9601   19.5067 C.2     1  UNL1        0.2637
      4 C           0.2003    1.6583   20.0091 C.2     1  UNL1        0.2821
      5 N          -0.0760    1.7236   21.4820 N.2     1  UNL1       -0.0268
      6 C           0.8767    1.0907   22.4525 C.2     1  UNL1        0.3760
      7 N           0.8684    0.9948   23.9494 N.2     1  UNL1       -0.0306
      8 C           2.0921    0.2373   24.3721 C.2     1  UNL1        0.2361
      9 C           2.8567   -0.1349   23.1365 C.2     1  UNL1        0.0583
     10 C           2.1056    0.3925   21.9501 C.2     1  UNL1        0.1203
     11 C           2.3818    0.3272   20.4772 C.3     1  UNL1        0.2596
     12 N           3.5026   -0.2876   19.6924 N.pl3   1  UNL1       -0.1887
     13 C           4.6771   -1.0257   20.2630 C.3     1  UNL1        0.1605
     14 C           5.9285   -0.2808   20.6224 C.3     1  UNL1        0.0466
     15 C           7.1031   -1.0190   21.1930 C.3     1  UNL1        0.0052
     16 C           7.0263   -2.5021   21.4041 C.3     1  UNL1        0.0154
     17 C           5.7749   -3.2470   21.0448 C.3     1  UNL1        0.0052
     18 C           4.6003   -2.5088   20.4742 C.3     1  UNL1        0.0466
     19 C           8.2008   -3.2402   21.9747 C.3     1  UNL1        0.1054
     20 C           8.0014   -4.5738   22.6317 C.1     1  UNL1        0.0731
     21 N           7.8019   -5.9075   23.2886 N.1     1  UNL1       -0.1959
     22 C           5.4735    0.1264   16.9151 C.3     1  UNL1        0.0450
     23 C           4.1116   -0.4754   17.0965 C.3     1  UNL1        0.2165
     24 O           3.6186   -1.5181   16.1375 O.3     1  UNL1       -0.3737
     25 H           2.7271   -1.7995   16.3960 H       1  UNL1        0.2111
@<TRIPOS>BOND
     1    23    22    1
     2    23    24    1
     3    23     1    1
     4     1     2    2
     5     2     3    1
     6     3     4    2
     7     4     5    1
     8     5     6    2
     9     6     7    1
    10     7     8    2
    11     8     9    1
    12     9    10    2
    13    10    11    1
    14    11    12    1
    15    13    12    1
    16    13    14    1
    17    14    15    1
    18    15    16    1
    19    16    19    1
    20    19    20    1
    21    20    21    3
    22    16    17    1
    23    17    18    1
    24    12     1    1
    25    18    13    1
    26    11     3    1
    27    10     6    1
    28    24    25    1
