@<TRIPOS>MOLECULE
*****
 24 26 0 0 0
SMALL
GASTEIGER

@<TRIPOS>ATOM
      1 C          -9.6604  -17.6136   23.9988 C.3     1  UNL1        0.0061
      2 C          -9.8967  -18.3347   22.7049 C.3     1  UNL1        0.0373
      3 C         -10.6204  -19.0360   21.5939 C.3     1  UNL1        0.0075
      4 C          -9.8586  -19.5439   20.4057 C.3     1  UNL1        0.0219
      5 C          -8.3731  -19.3506   20.3287 C.3     1  UNL1        0.0950
      6 N          -7.6494  -18.6493   21.4397 N.am    1  UNL1       -0.2637
      7 C          -6.1638  -18.4560   21.3627 C.2     1  UNL1        0.3077
      8 O          -5.4402  -17.7548   22.4738 O.2     1  UNL1       -0.2522
      9 N          -5.4021  -18.9640   20.1745 N.am    1  UNL1       -0.2681
     10 C          -8.4111  -18.1414   22.6279 C.3     1  UNL1        0.0989
     11 H          -5.8770  -19.4242   19.4453 H       1  UNL1        0.1564
     12 C          -3.9166  -18.7706   20.0975 C.ar    1  UNL1        0.0516
     13 C          -3.3284  -17.8973   19.0291 C.ar    1  UNL1        0.0156
     14 C          -1.8430  -17.7039   18.9521 C.ar    1  UNL1        0.0127
     15 C          -0.9457  -18.3838   19.9434 C.ar    1  UNL1        0.0578
     16 CL          0.5399  -18.1904   19.8663 Cl      1  UNL1       -0.0822
     17 C          -1.5338  -19.2570   21.0118 C.ar    1  UNL1        0.0127
     18 C          -3.0194  -19.4504   21.0888 C.ar    1  UNL1        0.0156
     19 C         -11.3001  -18.2776   23.2314 C.ar    1  UNL1       -0.0212
     20 C         -12.3889  -17.6673   22.3995 C.ar    1  UNL1       -0.0042
     21 C         -13.7923  -17.6102   22.9260 C.ar    1  UNL1       -0.0003
     22 C         -14.1069  -18.1634   24.2843 C.ar    1  UNL1       -0.0000
     23 C         -13.0181  -18.7736   25.1162 C.ar    1  UNL1       -0.0003
     24 C         -11.6147  -18.8307   24.5897 C.ar    1  UNL1       -0.0042
@<TRIPOS>BOND
     1     1     2    1
     2     2    19    1
     3    19    20   ar
     4    20    21   ar
     5    21    22   ar
     6    22    23   ar
     7    23    24   ar
     8     2     3    1
     9     3     4    1
    10     4     5    1
    11     5     6    1
    12     6     7   am
    13     7     8    2
    14     7     9   am
    15     9    12    1
    16    12    13   ar
    17    13    14   ar
    18    14    15   ar
    19    15    16    1
    20    15    17   ar
    21    17    18   ar
    22     6    10    1
    23    10     2    1
    24    24    19   ar
    25    18    12   ar
    26     9    11    1
@<TRIPOS>MOLECULE
*****
 24 26 0 0 0
SMALL
GASTEIGER

@<TRIPOS>ATOM
      1 C         -11.5043   -3.4494   18.3029 C.3     1  UNL1        0.0061
      2 C         -12.5714   -4.2359   19.0049 C.3     1  UNL1        0.0373
      3 C         -13.2851   -5.3975   19.6304 C.3     1  UNL1        0.0075
      4 C         -14.6456   -5.2059   20.2323 C.3     1  UNL1        0.0219
      5 C         -15.2923   -3.8527   20.2088 C.3     1  UNL1        0.0950
      6 N         -14.5786   -2.6911   19.5833 N.am    1  UNL1       -0.2637
      7 C         -15.2254   -1.3379   19.5598 C.2     1  UNL1        0.3077
      8 O         -14.5116   -0.1763   18.9343 O.2     1  UNL1       -0.2522
      9 N         -16.5859   -1.1463   20.1617 N.am    1  UNL1       -0.2681
     10 C         -13.2181   -2.8827   18.9814 C.3     1  UNL1        0.0989
     11 H         -17.0543   -1.9087   20.5723 H       1  UNL1        0.1564
     12 C         -17.2325    0.2069   20.1382 C.ar    1  UNL1        0.0516
     13 C         -17.0666    1.1378   21.3027 C.ar    1  UNL1        0.0156
     14 C         -17.7132    2.4910   21.2792 C.ar    1  UNL1        0.0127
     15 C         -18.5258    2.9135   20.0912 C.ar    1  UNL1        0.0578
     16 CL        -19.1725    4.2667   20.0677 Cl      1  UNL1       -0.0822
     17 C         -18.6917    1.9826   18.9267 C.ar    1  UNL1        0.0127
     18 C         -18.0451    0.6294   18.9502 C.ar    1  UNL1        0.0156
     19 C         -11.5540   -5.3160   18.7846 C.ar    1  UNL1       -0.0212
     20 C         -11.9407   -6.5757   18.0681 C.ar    1  UNL1       -0.0042
     21 C         -10.9233   -7.6557   17.8478 C.ar    1  UNL1       -0.0003
     22 C          -9.5193   -7.4760   18.3442 C.ar    1  UNL1       -0.0000
     23 C          -9.1326   -6.2162   19.0607 C.ar    1  UNL1       -0.0003
     24 C         -10.1500   -5.1363   19.2810 C.ar    1  UNL1       -0.0042
@<TRIPOS>BOND
     1     1     2    1
     2     2    19    1
     3    19    20   ar
     4    20    21   ar
     5    21    22   ar
     6    22    23   ar
     7    23    24   ar
     8     2     3    1
     9     3     4    1
    10     4     5    1
    11     5     6    1
    12     6     7   am
    13     7     8    2
    14     7     9   am
    15     9    12    1
    16    12    13   ar
    17    13    14   ar
    18    14    15   ar
    19    15    16    1
    20    15    17   ar
    21    17    18   ar
    22     6    10    1
    23    10     2    1
    24    24    19   ar
    25    18    12   ar
    26     9    11    1
