@<TRIPOS>MOLECULE
*****
 12 13 0 0 0
SMALL
GASTEIGER

@<TRIPOS>ATOM
      1 C          -6.6238  -15.5052   27.2133 C.ar    1  UNL1       -0.0000
      2 C          -8.0670  -15.5464   26.8064 C.ar    1  UNL1       -0.0003
      3 C          -8.4390  -15.4850   25.3546 C.ar    1  UNL1       -0.0024
      4 C          -7.3678  -15.3822   24.3096 C.ar    1  UNL1        0.0004
      5 C          -5.9247  -15.3410   24.7165 C.ar    1  UNL1       -0.0024
      6 C          -5.5527  -15.4025   26.1683 C.ar    1  UNL1       -0.0003
      7 C          -7.7398  -15.3208   22.8578 C.3     1  UNL1        0.1343
      8 N          -8.5027  -16.4497   22.2306 N.ar    1  UNL1       -0.3036
      9 C          -7.9587  -17.8102   21.9091 C.ar    1  UNL1        0.0983
     10 C          -9.0634  -18.6177   21.2945 C.ar    1  UNL1        0.1193
     11 N         -10.2901  -17.7563   21.2361 N.ar    1  UNL1       -0.2223
     12 C          -9.9436  -16.4164   21.8146 C.ar    1  UNL1        0.1789
@<TRIPOS>BOND
     1     1     2   ar
     2     2     3   ar
     3     3     4   ar
     4     4     7    1
     5     7     8    1
     6     8     9   ar
     7     9    10   ar
     8    10    11   ar
     9    11    12   ar
    10     4     5   ar
    11     5     6   ar
    12     6     1   ar
    13    12     8   ar
@<TRIPOS>MOLECULE
*****
 12 13 0 0 0
SMALL
GASTEIGER

@<TRIPOS>ATOM
      1 C          -2.9317  -19.8740   20.6778 C.ar    1  UNL1       -0.0000
      2 C          -3.2695  -19.1859   21.9671 C.ar    1  UNL1       -0.0003
      3 C          -4.6787  -19.2050   22.4806 C.ar    1  UNL1       -0.0024
      4 C          -5.7502  -19.9121   21.7048 C.ar    1  UNL1        0.0004
      5 C          -5.4124  -20.6003   20.4155 C.ar    1  UNL1       -0.0024
      6 C          -4.0031  -20.5812   19.9020 C.ar    1  UNL1       -0.0003
      7 C          -7.1594  -19.9312   22.2183 C.3     1  UNL1        0.1343
      8 N          -8.0805  -18.7845   21.9239 N.ar    1  UNL1       -0.3036
      9 C          -8.1312  -17.4815   22.6653 C.ar    1  UNL1        0.0983
     10 C          -9.1947  -16.6311   22.0360 C.ar    1  UNL1        0.1193
     11 N          -9.8013  -17.4087   20.9056 N.ar    1  UNL1       -0.2223
     12 C          -9.1127  -18.7395   20.8364 C.ar    1  UNL1        0.1789
@<TRIPOS>BOND
     1     1     2   ar
     2     2     3   ar
     3     3     4   ar
     4     4     7    1
     5     7     8    1
     6     8     9   ar
     7     9    10   ar
     8    10    11   ar
     9    11    12   ar
    10     4     5   ar
    11     5     6   ar
    12     6     1   ar
    13    12     8   ar
@<TRIPOS>MOLECULE
*****
 12 13 0 0 0
SMALL
GASTEIGER

@<TRIPOS>ATOM
      1 C          -1.5031  -18.2492   20.7282 C.ar    1  UNL1       -0.0000
      2 C          -2.2325  -18.3595   19.4222 C.ar    1  UNL1       -0.0003
      3 C          -3.5509  -19.0720   19.3574 C.ar    1  UNL1       -0.0024
      4 C          -4.1399  -19.6741   20.5986 C.ar    1  UNL1        0.0004
      5 C          -3.4104  -19.5637   21.9045 C.ar    1  UNL1       -0.0024
      6 C          -2.0920  -18.8513   21.9694 C.ar    1  UNL1       -0.0003
      7 C          -5.4583  -20.3866   20.5337 C.3     1  UNL1        0.1343
      8 N          -6.7354  -19.6174   20.6988 N.ar    1  UNL1       -0.3036
      9 C          -7.0949  -18.7453   21.8652 C.ar    1  UNL1        0.0983
     10 C          -8.4590  -18.1741   21.6138 C.ar    1  UNL1        0.1193
     11 N          -8.9425  -18.6932   20.2920 N.ar    1  UNL1       -0.2223
     12 C          -7.8772  -19.5851   19.7266 C.ar    1  UNL1        0.1789
@<TRIPOS>BOND
     1     1     2   ar
     2     2     3   ar
     3     3     4   ar
     4     4     7    1
     5     7     8    1
     6     8     9   ar
     7     9    10   ar
     8    10    11   ar
     9    11    12   ar
    10     4     5   ar
    11     5     6   ar
    12     6     1   ar
    13    12     8   ar
@<TRIPOS>MOLECULE
*****
 12 13 0 0 0
SMALL
GASTEIGER

@<TRIPOS>ATOM
      1 C          -3.9688  -19.9936   21.0391 C.ar    1  UNL1       -0.0000
      2 C          -5.0021  -20.6606   20.1804 C.ar    1  UNL1       -0.0003
      3 C          -6.4560  -20.3489   20.3777 C.ar    1  UNL1       -0.0024
      4 C          -6.8767  -19.3702   21.4337 C.ar    1  UNL1        0.0004
      5 C          -5.8434  -18.7032   22.2924 C.ar    1  UNL1       -0.0024
      6 C          -4.3895  -19.0149   22.0951 C.ar    1  UNL1       -0.0003
      7 C          -8.3306  -19.0585   21.6310 C.3     1  UNL1        0.1343
      8 N          -8.9385  -19.1508   22.9992 N.ar    1  UNL1       -0.3036
      9 C          -9.3896  -17.9958   23.8433 C.ar    1  UNL1        0.0983
     10 C          -9.9319  -18.5454   25.1294 C.ar    1  UNL1        0.1193
     11 N          -9.8160  -20.0402   25.0800 N.ar    1  UNL1       -0.2223
     12 C          -9.2020  -20.4143   23.7636 C.ar    1  UNL1        0.1789
@<TRIPOS>BOND
     1     1     2   ar
     2     2     3   ar
     3     3     4   ar
     4     4     7    1
     5     7     8    1
     6     8     9   ar
     7     9    10   ar
     8    10    11   ar
     9    11    12   ar
    10     4     5   ar
    11     5     6   ar
    12     6     1   ar
    13    12     8   ar
@<TRIPOS>MOLECULE
*****
 12 13 0 0 0
SMALL
GASTEIGER

@<TRIPOS>ATOM
      1 C         -12.3545  -17.8031   21.0274 C.ar    1  UNL1       -0.0000
      2 C         -12.2813  -16.4972   21.7618 C.ar    1  UNL1       -0.0003
      3 C         -11.3465  -16.3420   22.9246 C.ar    1  UNL1       -0.0024
      4 C         -10.4849  -17.4926   23.3530 C.ar    1  UNL1        0.0004
      5 C         -10.5580  -18.7984   22.6186 C.ar    1  UNL1       -0.0024
      6 C         -11.4928  -18.9537   21.4558 C.ar    1  UNL1       -0.0003
      7 C          -9.5501  -17.3374   24.5158 C.3     1  UNL1        0.1343
      8 N          -8.2557  -16.5990   24.3442 N.ar    1  UNL1       -0.3036
      9 C          -7.6222  -15.6846   25.3504 C.ar    1  UNL1        0.0983
     10 C          -6.3425  -15.1659   24.7642 C.ar    1  UNL1        0.1193
     11 N          -6.1852  -15.7597   23.3958 N.ar    1  UNL1       -0.2223
     12 C          -7.3676  -16.6454   23.1361 C.ar    1  UNL1        0.1789
@<TRIPOS>BOND
     1     1     2   ar
     2     2     3   ar
     3     3     4   ar
     4     4     7    1
     5     7     8    1
     6     8     9   ar
     7     9    10   ar
     8    10    11   ar
     9    11    12   ar
    10     4     5   ar
    11     5     6   ar
    12     6     1   ar
    13    12     8   ar
@<TRIPOS>MOLECULE
*****
 12 13 0 0 0
SMALL
GASTEIGER

@<TRIPOS>ATOM
      1 C         -11.5363  -17.1164   22.8296 C.ar    1  UNL1       -0.0000
      2 C         -10.2116  -16.7174   23.4091 C.ar    1  UNL1       -0.0003
      3 C          -9.0422  -17.6526   23.3211 C.ar    1  UNL1       -0.0024
      4 C          -9.1974  -18.9868   22.6535 C.ar    1  UNL1        0.0004
      5 C         -10.5221  -19.3858   22.0739 C.ar    1  UNL1       -0.0024
      6 C         -11.6916  -18.4506   22.1620 C.ar    1  UNL1       -0.0003
      7 C          -8.0279  -19.9220   22.5654 C.3     1  UNL1        0.1343
      8 N          -6.8366  -19.5566   21.7305 N.ar    1  UNL1       -0.3036
      9 C          -5.4001  -19.6659   22.1484 C.ar    1  UNL1        0.0983
     10 C          -4.5482  -19.1945   21.0072 C.ar    1  UNL1        0.1193
     11 N          -5.4583  -18.7939   19.8841 N.ar    1  UNL1       -0.2223
     12 C          -6.8725  -19.0176   20.3311 C.ar    1  UNL1        0.1789
@<TRIPOS>BOND
     1     1     2   ar
     2     2     3   ar
     3     3     4   ar
     4     4     7    1
     5     7     8    1
     6     8     9   ar
     7     9    10   ar
     8    10    11   ar
     9    11    12   ar
    10     4     5   ar
    11     5     6   ar
    12     6     1   ar
    13    12     8   ar
@<TRIPOS>MOLECULE
*****
 12 13 0 0 0
SMALL
GASTEIGER

@<TRIPOS>ATOM
      1 C          -9.6144   -5.7458   19.0921 C.ar    1  UNL1       -0.0000
      2 C          -9.6668   -7.1154   18.4827 C.ar    1  UNL1       -0.0003
      3 C         -10.9384   -7.6114   17.8605 C.ar    1  UNL1       -0.0024
      4 C         -12.1576   -6.7377   17.8477 C.ar    1  UNL1        0.0004
      5 C         -12.1051   -5.3681   18.4571 C.ar    1  UNL1       -0.0024
      6 C         -10.8335   -4.8722   19.0793 C.ar    1  UNL1       -0.0003
      7 C         -13.4292   -7.2336   17.2255 C.3     1  UNL1        0.1343
      8 N         -14.4548   -7.9307   18.0693 N.ar    1  UNL1       -0.3036
      9 C         -15.3381   -7.2858   19.0958 C.ar    1  UNL1        0.0983
     10 C         -16.2066   -8.3518   19.6957 C.ar    1  UNL1        0.1193
     11 N         -15.8599   -9.6555   19.0398 N.ar    1  UNL1       -0.2223
     12 C         -14.7773   -9.3953   18.0346 C.ar    1  UNL1        0.1789
@<TRIPOS>BOND
     1     1     2   ar
     2     2     3   ar
     3     3     4   ar
     4     4     7    1
     5     7     8    1
     6     8     9   ar
     7     9    10   ar
     8    10    11   ar
     9    11    12   ar
    10     4     5   ar
    11     5     6   ar
    12     6     1   ar
    13    12     8   ar
@<TRIPOS>MOLECULE
*****
 12 13 0 0 0
SMALL
GASTEIGER

@<TRIPOS>ATOM
      1 C          -4.6938  -19.6281   21.4756 C.ar    1  UNL1       -0.0000
      2 C          -5.5310  -18.6749   22.2759 C.ar    1  UNL1       -0.0003
      3 C          -6.9922  -18.5234   21.9726 C.ar    1  UNL1       -0.0024
      4 C          -7.6162  -19.3252   20.8691 C.ar    1  UNL1        0.0004
      5 C          -6.7790  -20.2784   20.0689 C.ar    1  UNL1       -0.0024
      6 C          -5.3178  -20.4298   20.3721 C.ar    1  UNL1       -0.0003
      7 C          -9.0774  -19.1737   20.5659 C.3     1  UNL1        0.1343
      8 N         -10.0355  -18.8019   21.6584 N.ar    1  UNL1       -0.3036
      9 C         -10.6635  -17.4547   21.8597 C.ar    1  UNL1        0.0983
     10 C         -11.5500  -17.5322   23.0673 C.ar    1  UNL1        0.1193
     11 N         -11.4699  -18.9274   23.6123 N.ar    1  UNL1       -0.2223
     12 C         -10.5339  -19.7122   22.7416 C.ar    1  UNL1        0.1789
@<TRIPOS>BOND
     1     1     2   ar
     2     2     3   ar
     3     3     4   ar
     4     4     7    1
     5     7     8    1
     6     8     9   ar
     7     9    10   ar
     8    10    11   ar
     9    11    12   ar
    10     4     5   ar
    11     5     6   ar
    12     6     1   ar
    13    12     8   ar
@<TRIPOS>MOLECULE
*****
 12 13 0 0 0
SMALL
GASTEIGER

@<TRIPOS>ATOM
      1 C          -4.3270  -18.3552   22.7941 C.ar    1  UNL1       -0.0000
      2 C          -5.5562  -18.9538   22.1773 C.ar    1  UNL1       -0.0003
      3 C          -6.8816  -18.2681   22.3292 C.ar    1  UNL1       -0.0024
      4 C          -6.9778  -16.9838   23.0980 C.ar    1  UNL1        0.0004
      5 C          -5.7486  -16.3851   23.7149 C.ar    1  UNL1       -0.0024
      6 C          -4.4232  -17.0708   23.5630 C.ar    1  UNL1       -0.0003
      7 C          -8.3033  -16.2981   23.2500 C.3     1  UNL1        0.1343
      8 N          -9.5401  -17.1058   23.5104 N.ar    1  UNL1       -0.3036
      9 C          -9.7471  -18.0588   24.6501 C.ar    1  UNL1        0.0983
     10 C         -11.1221  -18.6444   24.5209 C.ar    1  UNL1        0.1193
     11 N         -11.7648  -18.0533   23.3012 N.ar    1  UNL1       -0.2223
     12 C         -10.7872  -17.1024   22.6767 C.ar    1  UNL1        0.1789
@<TRIPOS>BOND
     1     1     2   ar
     2     2     3   ar
     3     3     4   ar
     4     4     7    1
     5     7     8    1
     6     8     9   ar
     7     9    10   ar
     8    10    11   ar
     9    11    12   ar
    10     4     5   ar
    11     5     6   ar
    12     6     1   ar
    13    12     8   ar
