@<TRIPOS>MOLECULE
*****
 27 30 0 0 0
SMALL
GASTEIGER

@<TRIPOS>ATOM
      1 O         -10.2565  -20.5474   22.6659 O.2     1  UNL1       -0.2900
      2 P          -9.9380  -19.0882   22.5270 P.3     1  UNL1        0.2302
      3 C          -8.6488  -19.4347   21.8429 C.ar    1  UNL1        0.0500
      4 C          -7.5394  -20.0825   22.6172 C.ar    1  UNL1        0.0047
      5 C          -6.2503  -20.4290   21.9331 C.ar    1  UNL1        0.0002
      6 C          -6.0705  -20.1277   20.4747 C.ar    1  UNL1        0.0000
      7 C          -7.1799  -19.4799   19.7004 C.ar    1  UNL1        0.0002
      8 C          -8.4690  -19.1334   20.3845 C.ar    1  UNL1        0.0047
      9 C         -11.2272  -18.7417   23.2110 C.ar    1  UNL1        0.0500
     10 C         -12.2958  -17.9986   22.4654 C.ar    1  UNL1        0.0047
     11 C         -13.5850  -17.6521   23.1495 C.ar    1  UNL1        0.0002
     12 C         -13.8056  -18.0488   24.5792 C.ar    1  UNL1        0.0000
     13 C         -12.7370  -18.7919   25.3248 C.ar    1  UNL1        0.0002
     14 C         -11.4478  -19.1383   24.6407 C.ar    1  UNL1        0.0047
     15 N          -9.6196  -17.6290   22.3880 N.pl3   1  UNL1       -0.2374
     16 C         -10.1611  -16.8506   21.2257 C.ar    1  UNL1        0.0767
     17 C         -11.1162  -17.4993   20.2682 C.ar    1  UNL1        0.0183
     18 C         -11.6576  -16.7208   19.1060 C.ar    1  UNL1        0.0220
     19 C         -11.2440  -15.2936   18.9013 C.ar    1  UNL1        0.0990
     20 N         -10.2889  -14.6448   19.8588 N.ar    1  UNL1       -0.2410
     21 C          -9.7474  -15.4233   21.0211 C.ar    1  UNL1        0.1140
     22 C          -8.7596  -16.9482   23.4113 C.ar    1  UNL1        0.0767
     23 C          -9.3550  -16.5011   24.7135 C.ar    1  UNL1        0.0183
     24 C          -8.4951  -15.8203   25.7368 C.ar    1  UNL1        0.0220
     25 C          -7.0398  -15.5867   25.4579 C.ar    1  UNL1        0.0990
     26 N          -6.4445  -16.0338   24.1557 N.ar    1  UNL1       -0.2410
     27 C          -7.3045  -16.7146   23.1324 C.ar    1  UNL1        0.1140
@<TRIPOS>BOND
     1     1     2    2
     2     2     3    1
     3     3     4   ar
     4     4     5   ar
     5     5     6   ar
     6     6     7   ar
     7     7     8   ar
     8     2     9    1
     9     9    10   ar
    10    10    11   ar
    11    11    12   ar
    12    12    13   ar
    13    13    14   ar
    14     2    15    1
    15    15    16    1
    16    16    17   ar
    17    17    18   ar
    18    18    19   ar
    19    19    20   ar
    20    20    21   ar
    21    15    22    1
    22    22    23   ar
    23    23    24   ar
    24    24    25   ar
    25    25    26   ar
    26    26    27   ar
    27     8     3   ar
    28    14     9   ar
    29    21    16   ar
    30    27    22   ar
@<TRIPOS>MOLECULE
*****
 27 30 0 0 0
SMALL
GASTEIGER

@<TRIPOS>ATOM
      1 O         -10.2561  -20.5485   22.6662 O.2     1  UNL1       -0.2900
      2 P          -9.9385  -19.0891   22.5283 P.3     1  UNL1        0.2302
      3 C         -11.2269  -18.7439   23.2147 C.ar    1  UNL1        0.0500
      4 C         -12.2956  -17.9977   22.4724 C.ar    1  UNL1        0.0047
      5 C         -13.5839  -17.6526   23.1588 C.ar    1  UNL1        0.0002
      6 C         -13.8036  -18.0538   24.5873 C.ar    1  UNL1        0.0000
      7 C         -12.7349  -18.8000   25.3296 C.ar    1  UNL1        0.0002
      8 C         -11.4466  -19.1451   24.6432 C.ar    1  UNL1        0.0047
      9 C          -8.6502  -19.4342   21.8420 C.ar    1  UNL1        0.0500
     10 C          -7.5339  -20.0688   22.6174 C.ar    1  UNL1        0.0047
     11 C          -6.2455  -20.4139   21.9311 C.ar    1  UNL1        0.0002
     12 C          -6.0735  -20.1245   20.4694 C.ar    1  UNL1        0.0000
     13 C          -7.1897  -19.4899   19.6940 C.ar    1  UNL1        0.0002
     14 C          -8.4781  -19.1448   20.3803 C.ar    1  UNL1        0.0047
     15 N          -9.6209  -17.6296   22.3905 N.pl3   1  UNL1       -0.2374
     16 C         -10.1625  -16.8507   21.2286 C.ar    1  UNL1        0.0767
     17 C         -11.1171  -17.4992   20.2705 C.ar    1  UNL1        0.0183
     18 C         -11.6587  -16.7203   19.1086 C.ar    1  UNL1        0.0220
     19 C         -11.2456  -15.2928   18.9048 C.ar    1  UNL1        0.0990
     20 N         -10.2909  -14.6441   19.8630 N.ar    1  UNL1       -0.2410
     21 C          -9.7494  -15.4231   21.0249 C.ar    1  UNL1        0.1140
     22 C          -8.7618  -16.9490   23.4146 C.ar    1  UNL1        0.0767
     23 C          -9.3563  -16.5091   24.7196 C.ar    1  UNL1        0.0183
     24 C          -8.4972  -15.8285   25.7436 C.ar    1  UNL1        0.0220
     25 C          -7.0435  -15.5878   25.4627 C.ar    1  UNL1        0.0990
     26 N          -6.4490  -16.0276   24.1577 N.ar    1  UNL1       -0.2410
     27 C          -7.3082  -16.7082   23.1336 C.ar    1  UNL1        0.1140
@<TRIPOS>BOND
     1     1     2    2
     2     2     3    1
     3     3     4   ar
     4     4     5   ar
     5     5     6   ar
     6     6     7   ar
     7     7     8   ar
     8     2     9    1
     9     9    10   ar
    10    10    11   ar
    11    11    12   ar
    12    12    13   ar
    13    13    14   ar
    14     2    15    1
    15    15    16    1
    16    16    17   ar
    17    17    18   ar
    18    18    19   ar
    19    19    20   ar
    20    20    21   ar
    21    15    22    1
    22    22    23   ar
    23    23    24   ar
    24    24    25   ar
    25    25    26   ar
    26    26    27   ar
    27     8     3   ar
    28    14     9   ar
    29    21    16   ar
    30    27    22   ar
@<TRIPOS>MOLECULE
*****
 27 30 0 0 0
SMALL
GASTEIGER

@<TRIPOS>ATOM
      1 O         -10.2577  -20.5447   22.6572 O.2     1  UNL1       -0.2900
      2 P          -9.9432  -19.0848   22.5168 P.3     1  UNL1        0.2302
      3 C          -8.6569  -19.4284   21.8258 C.ar    1  UNL1        0.0500
      4 C          -8.4858  -19.1271   20.3664 C.ar    1  UNL1        0.0047
      5 C          -7.1995  -19.4707   19.6755 C.ar    1  UNL1        0.0002
      6 C          -6.0843  -20.1156   20.4439 C.ar    1  UNL1        0.0000
      7 C          -6.2554  -20.4169   21.9033 C.ar    1  UNL1        0.0002
      8 C          -7.5417  -20.0733   22.5943 C.ar    1  UNL1        0.0047
      9 C         -11.2294  -18.7413   23.2078 C.ar    1  UNL1        0.0500
     10 C         -12.3026  -17.9983   22.4688 C.ar    1  UNL1        0.0047
     11 C         -13.5889  -17.6548   23.1599 C.ar    1  UNL1        0.0002
     12 C         -13.8020  -18.0543   24.5899 C.ar    1  UNL1        0.0000
     13 C         -12.7287  -18.7973   25.3289 C.ar    1  UNL1        0.0002
     14 C         -11.4425  -19.1408   24.6379 C.ar    1  UNL1        0.0047
     15 N          -9.6287  -17.6249   22.3765 N.pl3   1  UNL1       -0.2374
     16 C          -8.7684  -16.9415   23.3977 C.ar    1  UNL1        0.0767
     17 C          -9.3650  -16.4839   24.6956 C.ar    1  UNL1        0.0183
     18 C          -8.5048  -15.8004   25.7168 C.ar    1  UNL1        0.0220
     19 C          -7.0480  -15.5746   25.4401 C.ar    1  UNL1        0.0990
     20 N          -6.4513  -16.0322   24.1422 N.ar    1  UNL1       -0.2410
     21 C          -7.3115  -16.7156   23.1209 C.ar    1  UNL1        0.1140
     22 C         -10.1744  -16.8484   21.2149 C.ar    1  UNL1        0.0767
     23 C         -11.1358  -17.4977   20.2640 C.ar    1  UNL1        0.0183
     24 C         -11.6815  -16.7213   19.1024 C.ar    1  UNL1        0.0220
     25 C         -11.2659  -15.2955   18.8917 C.ar    1  UNL1        0.0990
     26 N         -10.3046  -14.6461   19.8426 N.ar    1  UNL1       -0.2410
     27 C          -9.7588  -15.4227   21.0042 C.ar    1  UNL1        0.1140
@<TRIPOS>BOND
     1     1     2    2
     2     2     3    1
     3     3     4   ar
     4     4     5   ar
     5     5     6   ar
     6     6     7   ar
     7     7     8   ar
     8     2     9    1
     9     9    10   ar
    10    10    11   ar
    11    11    12   ar
    12    12    13   ar
    13    13    14   ar
    14     2    15    1
    15    15    16    1
    16    16    17   ar
    17    17    18   ar
    18    18    19   ar
    19    19    20   ar
    20    20    21   ar
    21    15    22    1
    22    22    23   ar
    23    23    24   ar
    24    24    25   ar
    25    25    26   ar
    26    26    27   ar
    27     8     3   ar
    28    14     9   ar
    29    21    16   ar
    30    27    22   ar
@<TRIPOS>MOLECULE
*****
 27 30 0 0 0
SMALL
GASTEIGER

@<TRIPOS>ATOM
      1 O         -10.2567  -20.5485   22.6693 O.2     1  UNL1       -0.2900
      2 P          -9.9387  -19.0891   22.5309 P.3     1  UNL1        0.2302
      3 C         -11.2286  -18.7433   23.2141 C.ar    1  UNL1        0.0500
      4 C         -11.4517  -19.1439   24.6423 C.ar    1  UNL1        0.0047
      5 C         -12.7415  -18.7981   25.3254 C.ar    1  UNL1        0.0002
      6 C         -13.8082  -18.0516   24.5804 C.ar    1  UNL1        0.0000
      7 C         -13.5851  -17.6510   23.1523 C.ar    1  UNL1        0.0002
      8 C         -12.2953  -17.9968   22.4691 C.ar    1  UNL1        0.0047
      9 C          -8.6490  -19.4350   21.8477 C.ar    1  UNL1        0.0500
     10 C          -7.5338  -20.0674   22.6264 C.ar    1  UNL1        0.0047
     11 C          -6.2440  -20.4133   21.9432 C.ar    1  UNL1        0.0002
     12 C          -6.0694  -20.1268   20.4812 C.ar    1  UNL1        0.0000
     13 C          -7.1846  -19.4944   19.7024 C.ar    1  UNL1        0.0002
     14 C          -8.4743  -19.1485   20.3856 C.ar    1  UNL1        0.0047
     15 N          -9.6207  -17.6298   22.3924 N.pl3   1  UNL1       -0.2374
     16 C          -8.7610  -16.9491   23.4159 C.ar    1  UNL1        0.0767
     17 C          -9.3539  -16.5128   24.7228 C.ar    1  UNL1        0.0183
     18 C          -8.4942  -15.8321   25.7464 C.ar    1  UNL1        0.0220
     19 C          -7.0416  -15.5878   25.4630 C.ar    1  UNL1        0.0990
     20 N          -6.4487  -16.0242   24.1560 N.ar    1  UNL1       -0.2410
     21 C          -7.3084  -16.7049   23.1325 C.ar    1  UNL1        0.1140
     22 C         -10.1625  -16.8511   21.2304 C.ar    1  UNL1        0.0767
     23 C         -11.1156  -17.5006   20.2713 C.ar    1  UNL1        0.0183
     24 C         -11.6573  -16.7219   19.1094 C.ar    1  UNL1        0.0220
     25 C         -11.2459  -15.2937   18.9064 C.ar    1  UNL1        0.0990
     26 N         -10.2928  -14.6443   19.8655 N.ar    1  UNL1       -0.2410
     27 C          -9.7511  -15.4230   21.0275 C.ar    1  UNL1        0.1140
@<TRIPOS>BOND
     1     1     2    2
     2     2     3    1
     3     3     4   ar
     4     4     5   ar
     5     5     6   ar
     6     6     7   ar
     7     7     8   ar
     8     2     9    1
     9     9    10   ar
    10    10    11   ar
    11    11    12   ar
    12    12    13   ar
    13    13    14   ar
    14     2    15    1
    15    15    16    1
    16    16    17   ar
    17    17    18   ar
    18    18    19   ar
    19    19    20   ar
    20    20    21   ar
    21    15    22    1
    22    22    23   ar
    23    23    24   ar
    24    24    25   ar
    25    25    26   ar
    26    26    27   ar
    27     8     3   ar
    28    14     9   ar
    29    21    16   ar
    30    27    22   ar
@<TRIPOS>MOLECULE
*****
 27 30 0 0 0
SMALL
GASTEIGER

@<TRIPOS>ATOM
      1 O           4.5554   -4.2768   21.9370 O.2     1  UNL1       -0.2900
      2 P           5.4507   -3.1032   21.6705 P.3     1  UNL1        0.2302
      3 C           4.2508   -2.2586   21.3593 C.ar    1  UNL1        0.0500
      4 C           3.7545   -1.2614   22.3639 C.ar    1  UNL1        0.0047
      5 C           2.5547   -0.4168   22.0526 C.ar    1  UNL1        0.0002
      6 C           1.8510   -0.5694   20.7367 C.ar    1  UNL1        0.0000
      7 C           2.3473   -1.5666   19.7321 C.ar    1  UNL1        0.0002
      8 C           3.5471   -2.4112   20.0434 C.ar    1  UNL1        0.0047
      9 C           6.6506   -3.9479   21.9818 C.ar    1  UNL1        0.0500
     10 C           6.9152   -4.3840   23.3923 C.ar    1  UNL1        0.0047
     11 C           8.1152   -5.2287   23.7036 C.ar    1  UNL1        0.0002
     12 C           9.0503   -5.6372   22.6042 C.ar    1  UNL1        0.0000
     13 C           8.7856   -5.2010   21.1937 C.ar    1  UNL1        0.0002
     14 C           7.5858   -4.3564   20.8824 C.ar    1  UNL1        0.0047
     15 N           6.3460   -1.9296   21.4041 N.pl3   1  UNL1       -0.2374
     16 C           7.1970   -1.3702   22.5054 C.ar    1  UNL1        0.0767
     17 C           8.6839   -1.2775   22.3309 C.ar    1  UNL1        0.0183
     18 C           9.5348   -0.7181   23.4322 C.ar    1  UNL1        0.0220
     19 C           8.8989   -0.2513   24.7080 C.ar    1  UNL1        0.0990
     20 N           7.4119   -0.3439   24.8825 N.ar    1  UNL1       -0.2410
     21 C           6.5610   -0.9034   23.7812 C.ar    1  UNL1        0.1140
     22 C           6.3904   -1.3154   20.0363 C.ar    1  UNL1        0.0767
     23 C           6.0867    0.1428   19.8588 C.ar    1  UNL1        0.0183
     24 C           6.1310    0.7570   18.4910 C.ar    1  UNL1        0.0220
     25 C           6.4790   -0.0869   17.3008 C.ar    1  UNL1        0.0990
     26 N           6.7827   -1.5451   17.4783 N.ar    1  UNL1       -0.2410
     27 C           6.7384   -2.1593   18.8461 C.ar    1  UNL1        0.1140
@<TRIPOS>BOND
     1     1     2    2
     2     2     3    1
     3     3     4   ar
     4     4     5   ar
     5     5     6   ar
     6     6     7   ar
     7     7     8   ar
     8     2     9    1
     9     9    10   ar
    10    10    11   ar
    11    11    12   ar
    12    12    13   ar
    13    13    14   ar
    14     2    15    1
    15    15    16    1
    16    16    17   ar
    17    17    18   ar
    18    18    19   ar
    19    19    20   ar
    20    20    21   ar
    21    15    22    1
    22    22    23   ar
    23    23    24   ar
    24    24    25   ar
    25    25    26   ar
    26    26    27   ar
    27     8     3   ar
    28    14     9   ar
    29    21    16   ar
    30    27    22   ar
@<TRIPOS>MOLECULE
*****
 27 30 0 0 0
SMALL
GASTEIGER

@<TRIPOS>ATOM
      1 O           4.5475   -4.2531   21.9463 O.2     1  UNL1       -0.2900
      2 P           5.4413   -3.0829   21.6608 P.3     1  UNL1        0.2302
      3 C           6.6435   -3.9275   21.9635 C.ar    1  UNL1        0.0500
      4 C           6.9225   -4.3573   23.3732 C.ar    1  UNL1        0.0047
      5 C           8.1246   -5.2018   23.6758 C.ar    1  UNL1        0.0002
      6 C           9.0478   -5.6165   22.5687 C.ar    1  UNL1        0.0000
      7 C           8.7689   -5.1866   21.1589 C.ar    1  UNL1        0.0002
      8 C           7.5668   -4.3421   20.8563 C.ar    1  UNL1        0.0047
      9 C           4.2392   -2.2385   21.3581 C.ar    1  UNL1        0.0500
     10 C           3.5269   -2.3902   20.0468 C.ar    1  UNL1        0.0047
     11 C           2.3247   -1.5457   19.7442 C.ar    1  UNL1        0.0002
     12 C           1.8348   -0.5495   20.7529 C.ar    1  UNL1        0.0000
     13 C           2.5471   -0.3977   22.0642 C.ar    1  UNL1        0.0002
     14 C           3.7492   -1.2422   22.3669 C.ar    1  UNL1        0.0047
     15 N           6.3352   -1.9127   21.3753 N.pl3   1  UNL1       -0.2374
     16 C           6.3720   -1.3149   20.0001 C.ar    1  UNL1        0.0767
     17 C           6.0561    0.1384   19.8053 C.ar    1  UNL1        0.0183
     18 C           6.0928    0.7362   18.4301 C.ar    1  UNL1        0.0220
     19 C           6.4454   -0.1193   17.2496 C.ar    1  UNL1        0.0990
     20 N           6.7613   -1.5728   17.4443 N.ar    1  UNL1       -0.2410
     21 C           6.7246   -2.1706   18.8195 C.ar    1  UNL1        0.1140
     22 C           7.1924   -1.3403   22.4651 C.ar    1  UNL1        0.0767
     23 C           8.6780   -1.2465   22.2796 C.ar    1  UNL1        0.0183
     24 C           9.5352   -0.6741   23.3693 C.ar    1  UNL1        0.0220
     25 C           8.9068   -0.1954   24.6446 C.ar    1  UNL1        0.0990
     26 N           7.4213   -0.2891   24.8300 N.ar    1  UNL1       -0.2410
     27 C           6.5641   -0.8616   23.7402 C.ar    1  UNL1        0.1140
@<TRIPOS>BOND
     1     1     2    2
     2     2     3    1
     3     3     4   ar
     4     4     5   ar
     5     5     6   ar
     6     6     7   ar
     7     7     8   ar
     8     2     9    1
     9     9    10   ar
    10    10    11   ar
    11    11    12   ar
    12    12    13   ar
    13    13    14   ar
    14     2    15    1
    15    15    16    1
    16    16    17   ar
    17    17    18   ar
    18    18    19   ar
    19    19    20   ar
    20    20    21   ar
    21    15    22    1
    22    22    23   ar
    23    23    24   ar
    24    24    25   ar
    25    25    26   ar
    26    26    27   ar
    27     8     3   ar
    28    14     9   ar
    29    21    16   ar
    30    27    22   ar
@<TRIPOS>MOLECULE
*****
 27 30 0 0 0
SMALL
GASTEIGER

@<TRIPOS>ATOM
      1 O           4.5505   -4.2521   21.9295 O.2     1  UNL1       -0.2900
      2 P           5.4457   -3.0802   21.6554 P.3     1  UNL1        0.2302
      3 C           4.2451   -2.2349   21.3486 C.ar    1  UNL1        0.0500
      4 C           3.7534   -1.2371   22.3549 C.ar    1  UNL1        0.0047
      5 C           2.5529   -0.3919   22.0480 C.ar    1  UNL1        0.0002
      6 C           1.8440   -0.5445   20.7350 C.ar    1  UNL1        0.0000
      7 C           2.3357   -1.5423   19.7287 C.ar    1  UNL1        0.0002
      8 C           3.5362   -2.3875   20.0355 C.ar    1  UNL1        0.0047
      9 C           6.6463   -3.9255   21.9622 C.ar    1  UNL1        0.0500
     10 C           6.9187   -4.3575   23.3726 C.ar    1  UNL1        0.0047
     11 C           8.1193   -5.2029   23.6794 C.ar    1  UNL1        0.0002
     12 C           9.0474   -5.6161   22.5758 C.ar    1  UNL1        0.0000
     13 C           8.7749   -5.1840   21.1655 C.ar    1  UNL1        0.0002
     14 C           7.5744   -4.3388   20.8587 C.ar    1  UNL1        0.0047
     15 N           6.3409   -1.9083   21.3813 N.pl3   1  UNL1       -0.2374
     16 C           6.3842   -1.3021   20.0099 C.ar    1  UNL1        0.0767
     17 C           6.0867    0.1563   19.8248 C.ar    1  UNL1        0.0183
     18 C           6.1300    0.7625   18.4534 C.ar    1  UNL1        0.0220
     19 C           6.4708   -0.0899   17.2671 C.ar    1  UNL1        0.0990
     20 N           6.7683   -1.5484   17.4522 N.ar    1  UNL1       -0.2410
     21 C           6.7251   -2.1546   18.8236 C.ar    1  UNL1        0.1140
     22 C           7.1929   -1.3424   22.4787 C.ar    1  UNL1        0.0767
     23 C           8.6806   -1.2590   22.3058 C.ar    1  UNL1        0.0183
     24 C           9.5325   -0.6932   23.4031 C.ar    1  UNL1        0.0220
     25 C           8.8968   -0.2108   24.6732 C.ar    1  UNL1        0.0990
     26 N           7.4091   -0.2941   24.8460 N.ar    1  UNL1       -0.2410
     27 C           6.5572   -0.8600   23.7487 C.ar    1  UNL1        0.1140
@<TRIPOS>BOND
     1     1     2    2
     2     2     3    1
     3     3     4   ar
     4     4     5   ar
     5     5     6   ar
     6     6     7   ar
     7     7     8   ar
     8     2     9    1
     9     9    10   ar
    10    10    11   ar
    11    11    12   ar
    12    12    13   ar
    13    13    14   ar
    14     2    15    1
    15    15    16    1
    16    16    17   ar
    17    17    18   ar
    18    18    19   ar
    19    19    20   ar
    20    20    21   ar
    21    15    22    1
    22    22    23   ar
    23    23    24   ar
    24    24    25   ar
    25    25    26   ar
    26    26    27   ar
    27     8     3   ar
    28    14     9   ar
    29    21    16   ar
    30    27    22   ar
@<TRIPOS>MOLECULE
*****
 27 30 0 0 0
SMALL
GASTEIGER

@<TRIPOS>ATOM
      1 O           4.5471   -4.2500   21.9574 O.2     1  UNL1       -0.2900
      2 P           5.4393   -3.0789   21.6703 P.3     1  UNL1        0.2302
      3 C           6.6428   -3.9215   21.9733 C.ar    1  UNL1        0.0500
      4 C           6.9215   -4.3518   23.3829 C.ar    1  UNL1        0.0047
      5 C           8.1249   -5.1944   23.6858 C.ar    1  UNL1        0.0002
      6 C           9.0496   -5.6068   22.5790 C.ar    1  UNL1        0.0000
      7 C           8.7708   -5.1765   21.1694 C.ar    1  UNL1        0.0002
      8 C           7.5674   -4.3339   20.8665 C.ar    1  UNL1        0.0047
      9 C           4.2359   -2.2363   21.3674 C.ar    1  UNL1        0.0500
     10 C           3.5258   -2.3872   20.0548 C.ar    1  UNL1        0.0047
     11 C           2.3223   -1.5446   19.7519 C.ar    1  UNL1        0.0002
     12 C           1.8290   -0.5511   20.7616 C.ar    1  UNL1        0.0000
     13 C           2.5391   -0.4001   22.0742 C.ar    1  UNL1        0.0002
     14 C           3.7425   -1.2427   22.3771 C.ar    1  UNL1        0.0047
     15 N           6.3315   -1.9078   21.3833 N.pl3   1  UNL1       -0.2374
     16 C           7.1910   -1.3353   22.4711 C.ar    1  UNL1        0.0767
     17 C           8.6763   -1.2426   22.2830 C.ar    1  UNL1        0.0183
     18 C           9.5358   -0.6702   23.3709 C.ar    1  UNL1        0.0220
     19 C           8.9101   -0.1904   24.6469 C.ar    1  UNL1        0.0990
     20 N           7.4248   -0.2830   24.8351 N.ar    1  UNL1       -0.2410
     21 C           6.5652   -0.8555   23.7472 C.ar    1  UNL1        0.1140
     22 C           6.3643   -1.3091   20.0082 C.ar    1  UNL1        0.0767
     23 C           6.0524    0.1455   19.8160 C.ar    1  UNL1        0.0183
     24 C           6.0852    0.7442   18.4411 C.ar    1  UNL1        0.0220
     25 C           6.4297   -0.1117   17.2583 C.ar    1  UNL1        0.0990
     26 N           6.7415   -1.5663   17.4506 N.ar    1  UNL1       -0.2410
     27 C           6.7088   -2.1650   18.8256 C.ar    1  UNL1        0.1140
@<TRIPOS>BOND
     1     1     2    2
     2     2     3    1
     3     3     4   ar
     4     4     5   ar
     5     5     6   ar
     6     6     7   ar
     7     7     8   ar
     8     2     9    1
     9     9    10   ar
    10    10    11   ar
    11    11    12   ar
    12    12    13   ar
    13    13    14   ar
    14     2    15    1
    15    15    16    1
    16    16    17   ar
    17    17    18   ar
    18    18    19   ar
    19    19    20   ar
    20    20    21   ar
    21    15    22    1
    22    22    23   ar
    23    23    24   ar
    24    24    25   ar
    25    25    26   ar
    26    26    27   ar
    27     8     3   ar
    28    14     9   ar
    29    21    16   ar
    30    27    22   ar
@<TRIPOS>MOLECULE
*****
 27 30 0 0 0
SMALL
GASTEIGER

@<TRIPOS>ATOM
      1 O           5.0734   -0.8060   17.6627 O.2     1  UNL1       -0.2900
      2 P           4.5945   -0.7632   19.0835 P.3     1  UNL1        0.2302
      3 C           4.6735    0.7347   19.0649 C.ar    1  UNL1        0.0500
      4 C           5.7973    1.4352   19.7693 C.ar    1  UNL1        0.0047
      5 C           5.8763    2.9330   19.7507 C.ar    1  UNL1        0.0002
      6 C           4.8314    3.7302   19.0277 C.ar    1  UNL1        0.0000
      7 C           3.7076    3.0297   18.3234 C.ar    1  UNL1        0.0002
      8 C           3.6286    1.5319   18.3420 C.ar    1  UNL1        0.0047
      9 C           4.5155   -2.2609   19.1020 C.ar    1  UNL1        0.0500
     10 C           5.7732   -3.0784   19.1017 C.ar    1  UNL1        0.0047
     11 C           5.6942   -4.5762   19.1202 C.ar    1  UNL1        0.0002
     12 C           4.3575   -5.2566   19.1391 C.ar    1  UNL1        0.0000
     13 C           3.0998   -4.4391   19.1394 C.ar    1  UNL1        0.0002
     14 C           3.1788   -2.9414   19.1209 C.ar    1  UNL1        0.0047
     15 N           4.1156   -0.7203   20.5043 N.pl3   1  UNL1       -0.2374
     16 C           2.8345   -0.0176   20.8432 C.ar    1  UNL1        0.0767
     17 C           1.5521   -0.4393   20.1892 C.ar    1  UNL1        0.0183
     18 C           0.2710    0.2635   20.5280 C.ar    1  UNL1        0.0220
     19 C           0.2722    1.3879   21.5208 C.ar    1  UNL1        0.0990
     20 N           1.5546    1.8096   22.1748 N.ar    1  UNL1       -0.2410
     21 C           2.8358    1.1069   21.8360 C.ar    1  UNL1        0.1140
     22 C           4.9179   -1.3803   21.5864 C.ar    1  UNL1        0.0767
     23 C           4.2910   -2.4376   22.4461 C.ar    1  UNL1        0.0183
     24 C           5.0932   -3.0975   23.5282 C.ar    1  UNL1        0.0220
     25 C           6.5224   -2.7002   23.7506 C.ar    1  UNL1        0.0990
     26 N           7.1494   -1.6429   22.8909 N.ar    1  UNL1       -0.2410
     27 C           6.3471   -0.9829   21.8088 C.ar    1  UNL1        0.1140
@<TRIPOS>BOND
     1     1     2    2
     2     2     3    1
     3     3     4   ar
     4     4     5   ar
     5     5     6   ar
     6     6     7   ar
     7     7     8   ar
     8     2     9    1
     9     9    10   ar
    10    10    11   ar
    11    11    12   ar
    12    12    13   ar
    13    13    14   ar
    14     2    15    1
    15    15    16    1
    16    16    17   ar
    17    17    18   ar
    18    18    19   ar
    19    19    20   ar
    20    20    21   ar
    21    15    22    1
    22    22    23   ar
    23    23    24   ar
    24    24    25   ar
    25    25    26   ar
    26    26    27   ar
    27     8     3   ar
    28    14     9   ar
    29    21    16   ar
    30    27    22   ar
