@<TRIPOS>MOLECULE
*****
 28 32 0 0 0
SMALL
GASTEIGER

@<TRIPOS>ATOM
      1 N          -5.6532  -15.6235   23.7141 N.pl3   1  UNL1       -0.3133
      2 C          -7.0121  -16.1169   23.3142 C.2     1  UNL1        0.2770
      3 N          -7.2976  -17.2251   22.3445 N.2     1  UNL1       -0.2203
      4 C          -8.7860  -17.3818   22.2447 C.3     1  UNL1        0.1539
      5 C          -9.4204  -16.3704   23.1528 C.3     1  UNL1        0.2350
      6 O          -8.3241  -15.5887   23.8138 O.2     1  UNL1       -0.4478
      7 C          -8.0131  -18.3361   21.3835 C.ar    1  UNL1        0.0355
      8 C          -6.5135  -18.2967   21.3794 C.ar    1  UNL1        0.0007
      9 C          -5.7405  -19.2510   20.5182 C.ar    1  UNL1        0.0015
     10 C          -6.4670  -20.2446   19.6609 C.ar    1  UNL1        0.0031
     11 C          -7.9665  -20.2840   19.6649 C.ar    1  UNL1        0.0366
     12 C          -8.7395  -19.3297   20.5262 C.ar    1  UNL1        0.1363
     13 O         -10.2390  -19.3691   20.5302 O.3     1  UNL1       -0.4768
     14 C         -11.0120  -18.4148   21.3915 C.3     1  UNL1        0.1975
     15 C         -12.5115  -18.4542   21.3955 C.3     1  UNL1        0.1855
     16 O         -13.2845  -17.4999   22.2567 O.3     1  UNL1       -0.3499
     17 C         -12.5580  -16.5063   23.1140 C.3     1  UNL1        0.1425
     18 C         -11.0585  -16.4669   23.1100 C.3     1  UNL1        0.0381
     19 C         -10.2856  -17.4212   22.2488 C.3     1  UNL1        0.0734
     20 H          -4.8466  -16.0365   23.3292 H       1  UNL1        0.1466
     21 H          -5.5678  -14.8867   24.3615 H       1  UNL1        0.1466
     22 C          -4.2411  -19.2116   20.5142 C.ar    1  UNL1        0.0200
     23 C          -3.4700  -19.8933   21.6054 C.ar    1  UNL1        0.0989
     24 N          -1.9705  -19.8539   21.6014 N.ar    1  UNL1       -0.2414
     25 C          -1.2421  -19.1329   20.5061 C.ar    1  UNL1        0.1102
     26 C          -2.0132  -18.4512   19.4149 C.ar    1  UNL1        0.0768
     27 CL         -1.2848  -17.7302   18.3197 Cl      1  UNL1       -0.0806
     28 C          -3.5126  -18.4906   19.4189 C.ar    1  UNL1        0.0145
@<TRIPOS>BOND
     1     1     2    1
     2     2     3    2
     3     3     4    1
     4     4     5    1
     5     5     6    1
     6     4     7    1
     7     7     8   ar
     8     8     9   ar
     9     9    22    1
    10    22    23   ar
    11    23    24   ar
    12    24    25   ar
    13    25    26   ar
    14    26    27    1
    15    26    28   ar
    16     9    10   ar
    17    10    11   ar
    18    11    12   ar
    19    12    13    1
    20    13    14    1
    21    14    15    1
    22    15    16    1
    23    16    17    1
    24    17    18    1
    25    19    18    1
    26     6     2    1
    27    12     7   ar
    28    19    14    1
    29    19     4    1
    30    28    22   ar
    31     1    20    1
    32     1    21    1
@<TRIPOS>MOLECULE
*****
 28 32 0 0 0
SMALL
GASTEIGER

@<TRIPOS>ATOM
      1 N          -8.5528  -20.6634   19.2573 N.pl3   1  UNL1       -0.3133
      2 C          -7.3045  -20.1730   19.9291 C.2     1  UNL1        0.2770
      3 N          -7.2326  -19.1212   20.9961 N.2     1  UNL1       -0.2203
      4 C          -5.7928  -18.9463   21.3784 C.3     1  UNL1        0.1539
      5 C          -4.9748  -19.8900   20.5476 C.3     1  UNL1        0.2350
      6 O          -5.9091  -20.6482   19.6519 O.2     1  UNL1       -0.4478
      7 C          -6.7367  -18.0590   22.1344 C.ar    1  UNL1        0.0355
      8 C          -8.2098  -18.1232   21.8585 C.ar    1  UNL1        0.0007
      9 C          -9.1538  -17.2359   22.6145 C.ar    1  UNL1        0.0015
     10 C          -8.6248  -16.2844   23.6464 C.ar    1  UNL1        0.0031
     11 C          -7.1518  -16.2202   23.9223 C.ar    1  UNL1        0.0366
     12 C          -6.2078  -17.1075   23.1663 C.ar    1  UNL1        0.1363
     13 O          -4.7348  -17.0432   23.4422 O.3     1  UNL1       -0.4768
     14 C          -3.7907  -17.9305   22.6862 C.3     1  UNL1        0.1975
     15 C          -2.3177  -17.8663   22.9620 C.3     1  UNL1        0.1855
     16 O          -1.3737  -18.7536   22.2060 O.3     1  UNL1       -0.3499
     17 C          -1.9027  -19.7051   21.1742 C.3     1  UNL1        0.1425
     18 C          -3.3757  -19.7694   20.8983 C.3     1  UNL1        0.0381
     19 C          -4.3197  -18.8821   21.6543 C.3     1  UNL1        0.0734
     20 H          -9.4273  -20.2880   19.5090 H       1  UNL1        0.1466
     21 H          -8.4974  -21.3608   18.5646 H       1  UNL1        0.1466
     22 C         -10.6268  -17.3002   22.3387 C.ar    1  UNL1        0.0200
     23 C         -11.1473  -16.9875   20.9671 C.ar    1  UNL1        0.0989
     24 N         -12.6204  -17.0518   20.6912 N.ar    1  UNL1       -0.2414
     25 C         -13.5728  -17.4287   21.7869 C.ar    1  UNL1        0.1102
     26 C         -13.0523  -17.7414   23.1585 C.ar    1  UNL1        0.0768
     27 CL        -14.0048  -18.1184   24.2542 Cl      1  UNL1       -0.0806
     28 C         -11.5793  -17.6772   23.4344 C.ar    1  UNL1        0.0145
@<TRIPOS>BOND
     1     1     2    1
     2     2     3    2
     3     3     4    1
     4     4     5    1
     5     5     6    1
     6     4     7    1
     7     7     8   ar
     8     8     9   ar
     9     9    22    1
    10    22    23   ar
    11    23    24   ar
    12    24    25   ar
    13    25    26   ar
    14    26    27    1
    15    26    28   ar
    16     9    10   ar
    17    10    11   ar
    18    11    12   ar
    19    12    13    1
    20    13    14    1
    21    14    15    1
    22    15    16    1
    23    16    17    1
    24    17    18    1
    25    19    18    1
    26     6     2    1
    27    12     7   ar
    28    19    14    1
    29    19     4    1
    30    28    22   ar
    31     1    20    1
    32     1    21    1
@<TRIPOS>MOLECULE
*****
 28 32 0 0 0
SMALL
GASTEIGER

@<TRIPOS>ATOM
      1 N         -16.4092   -3.7508   20.5697 N.pl3   1  UNL1       -0.3133
      2 C         -15.0595   -4.1078   20.0211 C.2     1  UNL1        0.2770
      3 N         -14.0960   -3.1630   19.3661 N.2     1  UNL1       -0.2203
      4 C         -12.8774   -3.9435   18.9713 C.3     1  UNL1        0.1539
      5 C         -13.0878   -5.3706   19.3823 C.3     1  UNL1        0.2350
      6 O         -14.4365   -5.4722   20.0311 O.2     1  UNL1       -0.4478
      7 C         -12.8092   -2.4868   18.6199 C.ar    1  UNL1        0.0355
      8 C         -13.9566   -1.5802   18.9540 C.ar    1  UNL1        0.0007
      9 C         -13.8884   -0.1235   18.6026 C.ar    1  UNL1        0.0015
     10 C         -12.6729    0.4265   17.9172 C.ar    1  UNL1        0.0031
     11 C         -11.5255   -0.4800   17.5832 C.ar    1  UNL1        0.0366
     12 C         -11.5937   -1.9367   17.9345 C.ar    1  UNL1        0.1363
     13 O         -10.4463   -2.8433   17.6005 O.3     1  UNL1       -0.4768
     14 C         -10.5144   -4.3000   17.9518 C.3     1  UNL1        0.1975
     15 C          -9.3670   -5.2066   17.6178 C.3     1  UNL1        0.1855
     16 O          -9.4352   -6.6632   17.9692 O.3     1  UNL1       -0.3499
     17 C         -10.6508   -7.2133   18.6546 C.3     1  UNL1        0.1425
     18 C         -11.7982   -6.3067   18.9886 C.3     1  UNL1        0.0381
     19 C         -11.7300   -4.8501   18.6373 C.3     1  UNL1        0.0734
     20 H         -16.7325   -2.8224   20.5162 H       1  UNL1        0.1466
     21 H         -16.9717   -4.4448   20.9834 H       1  UNL1        0.1466
     22 C         -15.0358    0.7830   18.9367 C.ar    1  UNL1        0.0200
     23 C         -15.0309    2.2055   18.4608 C.ar    1  UNL1        0.0989
     24 N         -16.1784    3.1121   18.7949 N.ar    1  UNL1       -0.2414
     25 C         -17.3307    2.5961   19.6048 C.ar    1  UNL1        0.1102
     26 C         -17.3356    1.1736   20.0807 C.ar    1  UNL1        0.0768
     27 CL        -18.4878    0.6577   20.8906 Cl      1  UNL1       -0.0806
     28 C         -16.1882    0.2671   19.7467 C.ar    1  UNL1        0.0145
@<TRIPOS>BOND
     1     1     2    1
     2     2     3    2
     3     3     4    1
     4     4     5    1
     5     5     6    1
     6     4     7    1
     7     7     8   ar
     8     8     9   ar
     9     9    22    1
    10    22    23   ar
    11    23    24   ar
    12    24    25   ar
    13    25    26   ar
    14    26    27    1
    15    26    28   ar
    16     9    10   ar
    17    10    11   ar
    18    11    12   ar
    19    12    13    1
    20    13    14    1
    21    14    15    1
    22    15    16    1
    23    16    17    1
    24    17    18    1
    25    19    18    1
    26     6     2    1
    27    12     7   ar
    28    19    14    1
    29    19     4    1
    30    28    22   ar
    31     1    20    1
    32     1    21    1
@<TRIPOS>MOLECULE
*****
 28 32 0 0 0
SMALL
GASTEIGER

@<TRIPOS>ATOM
      1 N          -0.9840    2.2231   20.7479 N.pl3   1  UNL1       -0.3133
      2 C           0.2260    1.4692   20.2815 C.2     1  UNL1        0.2770
      3 N           1.2791    0.8617   21.1601 N.2     1  UNL1       -0.2203
      4 C           2.2993    0.2075   20.2763 C.3     1  UNL1        0.1539
      5 C           1.8767    0.4106   18.8515 C.3     1  UNL1        0.2350
      6 O           0.5953    1.1903   18.8547 O.2     1  UNL1       -0.4478
      7 C           2.5932    0.0843   21.7421 C.ar    1  UNL1        0.0355
      8 C           1.6596    0.6904   22.7477 C.ar    1  UNL1        0.0007
      9 C           1.9535    0.5673   24.2134 C.ar    1  UNL1        0.0015
     10 C           3.1808   -0.1620   24.6736 C.ar    1  UNL1        0.0031
     11 C           4.1143   -0.7682   23.6681 C.ar    1  UNL1        0.0366
     12 C           3.8205   -0.6450   22.2023 C.ar    1  UNL1        0.1363
     13 O           4.7540   -1.2512   21.1967 O.3     1  UNL1       -0.4768
     14 C           4.4602   -1.1280   19.7309 C.3     1  UNL1        0.1975
     15 C           5.3937   -1.7341   18.7254 C.3     1  UNL1        0.1855
     16 O           5.0998   -1.6110   17.2596 O.3     1  UNL1       -0.3499
     17 C           3.8725   -0.8817   16.7994 C.3     1  UNL1        0.1425
     18 C           2.9390   -0.2755   17.8049 C.3     1  UNL1        0.0381
     19 C           3.2328   -0.3987   19.2707 C.3     1  UNL1        0.0734
     20 H          -1.1409    2.3551   21.7108 H       1  UNL1        0.1466
     21 H          -1.6213    2.5860   20.0911 H       1  UNL1        0.1466
     22 C           1.0200    1.1734   25.2190 C.ar    1  UNL1        0.0200
     23 C           1.3044    1.0350   26.6852 C.ar    1  UNL1        0.0989
     24 N           0.3708    1.6412   27.6908 N.ar    1  UNL1       -0.2414
     25 C          -0.8471    2.3857   27.2300 C.ar    1  UNL1        0.1102
     26 C          -1.1315    2.5241   25.7638 C.ar    1  UNL1        0.0768
     27 CL         -2.3494    3.2686   25.3030 Cl      1  UNL1       -0.0806
     28 C          -0.1980    1.9180   24.7582 C.ar    1  UNL1        0.0145
@<TRIPOS>BOND
     1     1     2    1
     2     2     3    2
     3     3     4    1
     4     4     5    1
     5     5     6    1
     6     4     7    1
     7     7     8   ar
     8     8     9   ar
     9     9    22    1
    10    22    23   ar
    11    23    24   ar
    12    24    25   ar
    13    25    26   ar
    14    26    27    1
    15    26    28   ar
    16     9    10   ar
    17    10    11   ar
    18    11    12   ar
    19    12    13    1
    20    13    14    1
    21    14    15    1
    22    15    16    1
    23    16    17    1
    24    17    18    1
    25    19    18    1
    26     6     2    1
    27    12     7   ar
    28    19    14    1
    29    19     4    1
    30    28    22   ar
    31     1    20    1
    32     1    21    1
@<TRIPOS>MOLECULE
*****
 28 32 0 0 0
SMALL
GASTEIGER

@<TRIPOS>ATOM
      1 N           1.7449    0.3081   24.3980 N.pl3   1  UNL1       -0.3133
      2 C           2.7770   -0.5869   23.7785 C.2     1  UNL1        0.2770
      3 N           3.0500   -0.7339   22.3109 N.2     1  UNL1       -0.2203
      4 C           4.1590   -1.7300   22.1432 C.3     1  UNL1        0.1539
      5 C           4.5712   -2.1986   23.5071 C.3     1  UNL1        0.2350
      6 O           3.7171   -1.4922   24.5178 O.2     1  UNL1       -0.4478
      7 C           3.6411   -1.1703   20.8515 C.ar    1  UNL1        0.0355
      8 C           2.5306   -0.1619   20.8626 C.ar    1  UNL1        0.0007
      9 C           2.0127    0.3977   19.5710 C.ar    1  UNL1        0.0015
     10 C           2.6053   -0.0509   18.2680 C.ar    1  UNL1        0.0031
     11 C           3.7157   -1.0592   18.2568 C.ar    1  UNL1        0.0366
     12 C           4.2337   -1.6189   19.5486 C.ar    1  UNL1        0.1363
     13 O           5.3441   -2.6272   19.5374 O.3     1  UNL1       -0.4768
     14 C           5.8621   -3.1869   20.8291 C.3     1  UNL1        0.1975
     15 C           6.9725   -4.1952   20.8179 C.3     1  UNL1        0.1855
     16 O           7.4904   -4.7549   22.1096 O.3     1  UNL1       -0.3499
     17 C           6.8978   -4.3063   23.4125 C.3     1  UNL1        0.1425
     18 C           5.7873   -3.2980   23.4237 C.3     1  UNL1        0.0381
     19 C           5.2695   -2.7383   22.1320 C.3     1  UNL1        0.0734
     20 H           1.1719    0.8682   23.8260 H       1  UNL1        0.1466
     21 H           1.6406    0.3354   25.3766 H       1  UNL1        0.1466
     22 C           0.9022    1.4060   19.5822 C.ar    1  UNL1        0.0200
     23 C          -0.0063    1.5080   20.7714 C.ar    1  UNL1        0.0989
     24 N          -1.1168    2.5163   20.7825 N.ar    1  UNL1       -0.2414
     25 C          -1.3187    3.4227   19.6046 C.ar    1  UNL1        0.1102
     26 C          -0.4102    3.3208   18.4154 C.ar    1  UNL1        0.0768
     27 CL         -0.6121    4.2271   17.2374 Cl      1  UNL1       -0.0806
     28 C           0.7003    2.3125   18.4041 C.ar    1  UNL1        0.0145
@<TRIPOS>BOND
     1     1     2    1
     2     2     3    2
     3     3     4    1
     4     4     5    1
     5     5     6    1
     6     4     7    1
     7     7     8   ar
     8     8     9   ar
     9     9    22    1
    10    22    23   ar
    11    23    24   ar
    12    24    25   ar
    13    25    26   ar
    14    26    27    1
    15    26    28   ar
    16     9    10   ar
    17    10    11   ar
    18    11    12   ar
    19    12    13    1
    20    13    14    1
    21    14    15    1
    22    15    16    1
    23    16    17    1
    24    17    18    1
    25    19    18    1
    26     6     2    1
    27    12     7   ar
    28    19    14    1
    29    19     4    1
    30    28    22   ar
    31     1    20    1
    32     1    21    1
@<TRIPOS>MOLECULE
*****
 28 32 0 0 0
SMALL
GASTEIGER

@<TRIPOS>ATOM
      1 N           4.3094   -2.0391   25.4407 N.pl3   1  UNL1       -0.3133
      2 C           4.2905   -1.9483   23.9436 C.2     1  UNL1        0.2770
      3 N           3.3930   -1.0683   23.1249 N.2     1  UNL1       -0.2203
      4 C           3.7136   -1.2976   21.6776 C.3     1  UNL1        0.1539
      5 C           4.8093   -2.3193   21.6018 C.3     1  UNL1        0.2350
      6 O           5.1658   -2.7214   23.0022 O.2     1  UNL1       -0.4478
      7 C           2.6260   -0.2911   21.9094 C.ar    1  UNL1        0.0355
      8 C           2.1976    0.0415   23.3080 C.ar    1  UNL1        0.0007
      9 C           1.1099    1.0481   23.5398 C.ar    1  UNL1        0.0015
     10 C           0.4507    1.7221   22.3732 C.ar    1  UNL1        0.0031
     11 C           0.8790    1.3896   20.9747 C.ar    1  UNL1        0.0366
     12 C           1.9667    0.3829   20.7428 C.ar    1  UNL1        0.1363
     13 O           2.3951    0.0504   19.3443 O.3     1  UNL1       -0.4768
     14 C           3.4828   -0.9562   19.1124 C.3     1  UNL1        0.1975
     15 C           3.9112   -1.2888   17.7139 C.3     1  UNL1        0.1855
     16 O           4.9988   -2.2954   17.4820 O.3     1  UNL1       -0.3499
     17 C           5.6581   -2.9694   18.6487 C.3     1  UNL1        0.1425
     18 C           5.2297   -2.6368   20.0472 C.3     1  UNL1        0.0381
     19 C           4.1421   -1.6303   20.2790 C.3     1  UNL1        0.0734
     20 H           3.6928   -1.4881   25.9751 H       1  UNL1        0.1466
     21 H           4.9383   -2.6496   25.8889 H       1  UNL1        0.1466
     22 C           0.6816    1.3807   24.9383 C.ar    1  UNL1        0.0200
     23 C           1.5316    0.9645   26.1021 C.ar    1  UNL1        0.0989
     24 N           1.1031    1.2971   27.5007 N.ar    1  UNL1       -0.2414
     25 C          -0.1752    2.0459   27.7354 C.ar    1  UNL1        0.1102
     26 C          -1.0252    2.4620   26.5717 C.ar    1  UNL1        0.0768
     27 CL         -2.3036    3.2107   26.8064 Cl      1  UNL1       -0.0806
     28 C          -0.5969    2.1294   25.1732 C.ar    1  UNL1        0.0145
@<TRIPOS>BOND
     1     1     2    1
     2     2     3    2
     3     3     4    1
     4     4     5    1
     5     5     6    1
     6     4     7    1
     7     7     8   ar
     8     8     9   ar
     9     9    22    1
    10    22    23   ar
    11    23    24   ar
    12    24    25   ar
    13    25    26   ar
    14    26    27    1
    15    26    28   ar
    16     9    10   ar
    17    10    11   ar
    18    11    12   ar
    19    12    13    1
    20    13    14    1
    21    14    15    1
    22    15    16    1
    23    16    17    1
    24    17    18    1
    25    19    18    1
    26     6     2    1
    27    12     7   ar
    28    19    14    1
    29    19     4    1
    30    28    22   ar
    31     1    20    1
    32     1    21    1
@<TRIPOS>MOLECULE
*****
 28 32 0 0 0
SMALL
GASTEIGER

@<TRIPOS>ATOM
      1 N           5.8426   -3.8722   20.0502 N.pl3   1  UNL1       -0.3133
      2 C           6.0487   -3.8309   21.5353 C.2     1  UNL1        0.2770
      3 N           5.3241   -2.9415   22.5017 N.2     1  UNL1       -0.2203
      4 C           5.8432   -3.2326   23.8785 C.3     1  UNL1        0.1539
      5 C           6.8887   -4.3020   23.7631 C.3     1  UNL1        0.2350
      6 O           7.0158   -4.6718   22.3150 O.2     1  UNL1       -0.4478
      7 C           4.7819   -2.1735   23.8381 C.ar    1  UNL1        0.0355
      8 C           4.1683   -1.7762   22.5282 C.ar    1  UNL1        0.0007
      9 C           3.1069   -0.7170   22.4877 C.ar    1  UNL1        0.0015
     10 C           2.6592   -0.0550   23.7571 C.ar    1  UNL1        0.0031
     11 C           3.2727   -0.4522   25.0669 C.ar    1  UNL1        0.0366
     12 C           4.3341   -1.5115   25.1074 C.ar    1  UNL1        0.1363
     13 O           4.9477   -1.9087   26.4173 O.3     1  UNL1       -0.4768
     14 C           6.0091   -2.9679   26.4578 C.3     1  UNL1        0.1975
     15 C           6.6226   -3.3651   27.7676 C.3     1  UNL1        0.1855
     16 O           7.6840   -4.4243   27.8081 O.3     1  UNL1       -0.3499
     17 C           8.1317   -5.0863   26.5387 C.3     1  UNL1        0.1425
     18 C           7.5182   -4.6891   25.2289 C.3     1  UNL1        0.0381
     19 C           6.4568   -3.6299   25.1884 C.3     1  UNL1        0.0734
     20 H           5.1806   -3.2779   19.6284 H       1  UNL1        0.1466
     21 H           6.3692   -4.4935   19.4972 H       1  UNL1        0.1466
     22 C           2.4934   -0.3198   21.1779 C.ar    1  UNL1        0.0200
     23 C           1.1404    0.3272   21.1490 C.ar    1  UNL1        0.0989
     24 N           0.5268    0.7244   19.8390 N.ar    1  UNL1       -0.2414
     25 C           1.2663    0.4746   18.5581 C.ar    1  UNL1        0.1102
     26 C           2.6192   -0.1724   18.5870 C.ar    1  UNL1        0.0768
     27 CL          3.3587   -0.4221   17.3061 Cl      1  UNL1       -0.0806
     28 C           3.2328   -0.5696   19.8969 C.ar    1  UNL1        0.0145
@<TRIPOS>BOND
     1     1     2    1
     2     2     3    2
     3     3     4    1
     4     4     5    1
     5     5     6    1
     6     4     7    1
     7     7     8   ar
     8     8     9   ar
     9     9    22    1
    10    22    23   ar
    11    23    24   ar
    12    24    25   ar
    13    25    26   ar
    14    26    27    1
    15    26    28   ar
    16     9    10   ar
    17    10    11   ar
    18    11    12   ar
    19    12    13    1
    20    13    14    1
    21    14    15    1
    22    15    16    1
    23    16    17    1
    24    17    18    1
    25    19    18    1
    26     6     2    1
    27    12     7   ar
    28    19    14    1
    29    19     4    1
    30    28    22   ar
    31     1    20    1
    32     1    21    1
@<TRIPOS>MOLECULE
*****
 28 32 0 0 0
SMALL
GASTEIGER

@<TRIPOS>ATOM
      1 N           2.9254   -0.4975   24.6894 N.pl3   1  UNL1       -0.3133
      2 C           1.9047    0.4430   24.1203 C.2     1  UNL1        0.2770
      3 N           1.6294    0.6687   22.6632 N.2     1  UNL1       -0.2203
      4 C           0.5347    1.6880   22.5507 C.3     1  UNL1        0.1539
      5 C           0.1335    2.0923   23.9383 C.3     1  UNL1        0.2350
      6 O           0.9802    1.3228   24.9084 O.2     1  UNL1       -0.4478
      7 C           1.0404    1.1876   21.2302 C.ar    1  UNL1        0.0355
      8 C           2.1360    0.1640   21.1856 C.ar    1  UNL1        0.0007
      9 C           2.6417   -0.3364   19.8651 C.ar    1  UNL1        0.0015
     10 C           2.0518    0.1868   18.5890 C.ar    1  UNL1        0.0031
     11 C           0.9562    1.2104   18.6335 C.ar    1  UNL1        0.0366
     12 C           0.4505    1.7108   19.9541 C.ar    1  UNL1        0.1363
     13 O          -0.6451    2.7344   19.9986 O.3     1  UNL1       -0.4768
     14 C          -1.1508    3.2348   21.3192 C.3     1  UNL1        0.1975
     15 C          -2.2464    4.2584   21.3637 C.3     1  UNL1        0.1855
     16 O          -2.7520    4.7587   22.6842 O.3     1  UNL1       -0.3499
     17 C          -2.1621    4.2356   23.9603 C.3     1  UNL1        0.1425
     18 C          -1.0666    3.2120   23.9158 C.3     1  UNL1        0.0381
     19 C          -0.5609    2.7116   22.5952 C.3     1  UNL1        0.0734
     20 H           3.4883   -1.0359   24.0874 H       1  UNL1        0.1466
     21 H           3.0323   -0.5763   25.6649 H       1  UNL1        0.1466
     22 C           3.7372   -1.3599   19.8206 C.ar    1  UNL1        0.0200
     23 C           5.1423   -0.9704   20.1729 C.ar    1  UNL1        0.0989
     24 N           6.2379   -1.9941   20.1283 N.ar    1  UNL1       -0.2414
     25 C           5.9284   -3.4071   19.7316 C.ar    1  UNL1        0.1102
     26 C           4.5233   -3.7966   19.3793 C.ar    1  UNL1        0.0768
     27 CL          4.2138   -5.2097   18.9825 Cl      1  UNL1       -0.0806
     28 C           3.4277   -2.7731   19.4238 C.ar    1  UNL1        0.0145
@<TRIPOS>BOND
     1     1     2    1
     2     2     3    2
     3     3     4    1
     4     4     5    1
     5     5     6    1
     6     4     7    1
     7     7     8   ar
     8     8     9   ar
     9     9    22    1
    10    22    23   ar
    11    23    24   ar
    12    24    25   ar
    13    25    26   ar
    14    26    27    1
    15    26    28   ar
    16     9    10   ar
    17    10    11   ar
    18    11    12   ar
    19    12    13    1
    20    13    14    1
    21    14    15    1
    22    15    16    1
    23    16    17    1
    24    17    18    1
    25    19    18    1
    26     6     2    1
    27    12     7   ar
    28    19    14    1
    29    19     4    1
    30    28    22   ar
    31     1    20    1
    32     1    21    1
@<TRIPOS>MOLECULE
*****
 28 32 0 0 0
SMALL
GASTEIGER

@<TRIPOS>ATOM
      1 N           4.2880   -2.0313   25.2055 N.pl3   1  UNL1       -0.3133
      2 C           4.2009   -1.8549   23.7185 C.2     1  UNL1        0.2770
      3 N           3.2658   -0.9332   22.9932 N.2     1  UNL1       -0.2203
      4 C           3.5205   -1.0778   21.5221 C.3     1  UNL1        0.1539
      5 C           4.6130   -2.0890   21.3382 C.3     1  UNL1        0.2350
      6 O           5.0335   -2.5693   22.6956 O.2     1  UNL1       -0.4478
      7 C           2.4430   -0.0906   21.8605 C.ar    1  UNL1        0.0355
      8 C           2.0782    0.1595   23.2939 C.ar    1  UNL1        0.0007
      9 C           1.0008    1.1467   23.6323 C.ar    1  UNL1        0.0015
     10 C           0.2881    1.8838   22.5374 C.ar    1  UNL1        0.0031
     11 C           0.6529    1.6337   21.1041 C.ar    1  UNL1        0.0366
     12 C           1.7304    0.6465   20.7656 C.ar    1  UNL1        0.1363
     13 O           2.0951    0.3964   19.3324 O.3     1  UNL1       -0.4768
     14 C           3.1726   -0.5908   18.9939 C.3     1  UNL1        0.1975
     15 C           3.5374   -0.8409   17.5606 C.3     1  UNL1        0.1855
     16 O           4.6148   -1.8281   17.2222 O.3     1  UNL1       -0.3499
     17 C           5.3275   -2.5652   18.3171 C.3     1  UNL1        0.1425
     18 C           4.9627   -2.3151   19.7504 C.3     1  UNL1        0.0381
     19 C           3.8853   -1.3279   20.0888 C.3     1  UNL1        0.0734
     20 H           3.6955   -1.5145   25.7981 H       1  UNL1        0.1466
     21 H           4.9376   -2.6640   25.5889 H       1  UNL1        0.1466
     22 C           0.6360    1.3967   25.0656 C.ar    1  UNL1        0.0200
     23 C          -0.6547    2.0827   25.4023 C.ar    1  UNL1        0.0989
     24 N          -1.0195    2.3328   26.8357 N.ar    1  UNL1       -0.2414
     25 C          -0.0935    1.8969   27.9322 C.ar    1  UNL1        0.1102
     26 C           1.1973    1.2109   27.5955 C.ar    1  UNL1        0.0768
     27 CL          2.1233    0.7750   28.6921 Cl      1  UNL1       -0.0806
     28 C           1.5620    0.9608   26.1622 C.ar    1  UNL1        0.0145
@<TRIPOS>BOND
     1     1     2    1
     2     2     3    2
     3     3     4    1
     4     4     5    1
     5     5     6    1
     6     4     7    1
     7     7     8   ar
     8     8     9   ar
     9     9    22    1
    10    22    23   ar
    11    23    24   ar
    12    24    25   ar
    13    25    26   ar
    14    26    27    1
    15    26    28   ar
    16     9    10   ar
    17    10    11   ar
    18    11    12   ar
    19    12    13    1
    20    13    14    1
    21    14    15    1
    22    15    16    1
    23    16    17    1
    24    17    18    1
    25    19    18    1
    26     6     2    1
    27    12     7   ar
    28    19    14    1
    29    19     4    1
    30    28    22   ar
    31     1    20    1
    32     1    21    1
