@<TRIPOS>MOLECULE
*****
 32 35 0 0 0
SMALL
GASTEIGER

@<TRIPOS>ATOM
      1 C           1.8992    3.5533   18.5726 C.3     1  UNL1        0.0311
      2 C           0.7043    2.6660   18.7600 C.3     1  UNL1        0.1470
      3 C          -0.5212    3.1932   19.4457 C.2     1  UNL1        0.2450
      4 O          -1.2656    4.3569   18.8613 O.2     1  UNL1       -0.2730
      5 N          -1.0022    2.5567   20.7160 N.am    1  UNL1       -0.2680
      6 H          -0.5136    1.7929   21.0996 H       1  UNL1        0.1563
      7 C          -2.2277    3.0839   21.4018 C.ar    1  UNL1        0.1342
      8 C          -2.0955    3.8819   22.6650 C.ar    1  UNL1        0.0345
      9 C          -3.3210    4.4091   23.3508 C.ar    1  UNL1        0.0045
     10 C          -4.6786    4.1383   22.7733 C.ar    1  UNL1        0.0208
     11 C          -4.8108    3.3404   21.5101 C.ar    1  UNL1        0.1003
     12 N          -3.5853    2.8131   20.8243 N.ar    1  UNL1       -0.2290
     13 C          -5.9041    4.6656   23.4590 C.ar    1  UNL1        0.0207
     14 C          -5.7694    5.5057   24.6944 C.ar    1  UNL1        0.0032
     15 C          -6.9949    6.0329   25.3802 C.ar    1  UNL1        0.0207
     16 C          -8.3551    5.7200   24.8305 C.ar    1  UNL1        0.0989
     17 N          -8.4897    4.8799   23.5952 N.ar    1  UNL1       -0.2423
     18 C          -7.2643    4.3527   22.9095 C.ar    1  UNL1        0.0989
     19 N           0.7349    1.2515   18.2616 N.pl3   1  UNL1       -0.3257
     20 H           0.0562    0.9411   17.6196 H       1  UNL1        0.1472
     21 C           1.7996    0.3101   18.7415 C.ar    1  UNL1        0.0644
     22 C           1.6264   -0.4183   20.0412 C.ar    1  UNL1        0.0175
     23 C           2.6911   -1.3596   20.5210 C.ar    1  UNL1        0.0219
     24 C           3.9290   -1.5726   19.7010 C.ar    1  UNL1        0.0987
     25 N           4.1021   -0.8442   18.4013 N.ar    1  UNL1       -0.2410
     26 C           3.0375    0.0971   17.9215 C.ar    1  UNL1        0.1131
     27 C           4.9937   -2.5140   20.1809 C.ar    1  UNL1        0.0971
     28 C           6.1480   -2.1597   21.0709 C.ar    1  UNL1        0.0427
     29 C           6.9587   -3.4017   21.2950 C.ar    1  UNL1        0.1217
     30 N           6.3054   -4.5236   20.5435 N.ar    1  UNL1       -0.1676
     31 N           5.0910   -3.9749   19.8550 N.ar    1  UNL1       -0.2473
     32 C           4.1407   -4.7510   18.9921 C.3     1  UNL1        0.1538
@<TRIPOS>BOND
     1     2     1    1
     2     2    19    1
     3    19    21    1
     4    21    22   ar
     5    22    23   ar
     6    23    24   ar
     7    24    27    1
     8    27    28   ar
     9    28    29   ar
    10    29    30   ar
    11    30    31   ar
    12    31    32    1
    13    24    25   ar
    14    25    26   ar
    15     2     3    1
    16     3     4    2
    17     3     5   am
    18     5     7    1
    19     7     8   ar
    20     8     9   ar
    21     9    10   ar
    22    10    13    1
    23    13    14   ar
    24    14    15   ar
    25    15    16   ar
    26    16    17   ar
    27    17    18   ar
    28    10    11   ar
    29    11    12   ar
    30    26    21   ar
    31    12     7   ar
    32    31    27   ar
    33    18    13   ar
    34    19    20    1
    35     5     6    1
@<TRIPOS>MOLECULE
*****
 32 35 0 0 0
SMALL
GASTEIGER

@<TRIPOS>ATOM
      1 C         -11.4054  -20.5859   20.8465 C.3     1  UNL1        0.0311
      2 C         -10.6090  -19.6537   21.7107 C.3     1  UNL1        0.1470
      3 C          -9.2018  -19.2981   21.3321 C.2     1  UNL1        0.2450
      4 O          -8.9337  -18.5494   20.0603 O.2     1  UNL1       -0.2730
      5 N          -8.0627  -19.6911   22.2255 N.am    1  UNL1       -0.2680
      6 H          -8.2387  -20.1825   23.0602 H       1  UNL1        0.1563
      7 C          -6.6555  -19.3355   21.8469 C.ar    1  UNL1        0.1342
      8 C          -5.9999  -20.0100   20.6784 C.ar    1  UNL1        0.0345
      9 C          -4.5927  -19.6544   20.2998 C.ar    1  UNL1        0.0045
     10 C          -3.8411  -18.6243   21.0898 C.ar    1  UNL1        0.0208
     11 C          -4.4967  -17.9498   22.2582 C.ar    1  UNL1        0.1003
     12 N          -5.9039  -18.3054   22.6368 N.ar    1  UNL1       -0.2290
     13 C          -2.4339  -18.2687   20.7112 C.ar    1  UNL1        0.0207
     14 C          -1.9549  -16.8538   20.8492 C.ar    1  UNL1        0.0032
     15 C          -0.5477  -16.4982   20.4706 C.ar    1  UNL1        0.0207
     16 C           0.3805  -17.5574   19.9541 C.ar    1  UNL1        0.0989
     17 N          -0.0985  -18.9721   19.8162 N.ar    1  UNL1       -0.2423
     18 C          -1.5057  -19.3277   20.1948 C.ar    1  UNL1        0.0989
     19 N         -11.2199  -19.0771   22.9534 N.pl3   1  UNL1       -0.3257
     20 H         -12.1574  -19.2759   23.1790 H       1  UNL1        0.1472
     21 C         -10.4024  -18.1976   23.8524 C.ar    1  UNL1        0.0644
     22 C         -10.0768  -16.7942   23.4348 C.ar    1  UNL1        0.0175
     23 C          -9.2593  -15.9148   24.3338 C.ar    1  UNL1        0.0219
     24 C          -8.7676  -16.4387   25.6505 C.ar    1  UNL1        0.0987
     25 N          -9.0933  -17.8420   26.0682 N.ar    1  UNL1       -0.2410
     26 C          -9.9107  -18.7215   25.1691 C.ar    1  UNL1        0.1131
     27 C          -7.9501  -15.5591   26.5496 C.ar    1  UNL1        0.0971
     28 C          -8.4336  -14.8816   27.7975 C.ar    1  UNL1        0.0427
     29 C          -7.2880  -14.1065   28.3778 C.ar    1  UNL1        0.1217
     30 N          -6.0964  -14.3050   27.4885 N.ar    1  UNL1       -0.1676
     31 N          -6.5056  -15.2027   26.3587 N.ar    1  UNL1       -0.2473
     32 C          -5.6250  -15.6633   25.2351 C.3     1  UNL1        0.1538
@<TRIPOS>BOND
     1     2     1    1
     2     2    19    1
     3    19    21    1
     4    21    22   ar
     5    22    23   ar
     6    23    24   ar
     7    24    27    1
     8    27    28   ar
     9    28    29   ar
    10    29    30   ar
    11    30    31   ar
    12    31    32    1
    13    24    25   ar
    14    25    26   ar
    15     2     3    1
    16     3     4    2
    17     3     5   am
    18     5     7    1
    19     7     8   ar
    20     8     9   ar
    21     9    10   ar
    22    10    13    1
    23    13    14   ar
    24    14    15   ar
    25    15    16   ar
    26    16    17   ar
    27    17    18   ar
    28    10    11   ar
    29    11    12   ar
    30    26    21   ar
    31    12     7   ar
    32    31    27   ar
    33    18    13   ar
    34    19    20    1
    35     5     6    1
@<TRIPOS>MOLECULE
*****
 32 35 0 0 0
SMALL
GASTEIGER

@<TRIPOS>ATOM
      1 C           8.6905   -6.4497   26.5845 C.3     1  UNL1        0.0311
      2 C           7.3261   -5.8736   26.3466 C.3     1  UNL1        0.1470
      3 C           6.9846   -5.2810   25.0116 C.2     1  UNL1        0.2450
      4 O           7.5198   -5.9029   23.7559 O.2     1  UNL1       -0.2730
      5 N           6.1077   -4.0665   24.9323 N.am    1  UNL1       -0.2680
      6 H           5.7565   -3.6583   25.7565 H       1  UNL1        0.1563
      7 C           5.7662   -3.4739   23.5973 C.ar    1  UNL1        0.1342
      8 C           6.2934   -2.1211   23.2202 C.ar    1  UNL1        0.0345
      9 C           5.9519   -1.5286   21.8852 C.ar    1  UNL1        0.0045
     10 C           5.0831   -2.2888   20.9273 C.ar    1  UNL1        0.0208
     11 C           4.5560   -3.6414   21.3045 C.ar    1  UNL1        0.1003
     12 N           4.8975   -4.2340   22.6395 N.ar    1  UNL1       -0.2290
     13 C           4.7416   -1.6962   19.5923 C.ar    1  UNL1        0.0207
     14 C           3.4931   -0.8804   19.4312 C.ar    1  UNL1        0.0032
     15 C           3.1516   -0.2878   18.0962 C.ar    1  UNL1        0.0207
     16 C           4.0585   -0.5110   16.9224 C.ar    1  UNL1        0.0989
     17 N           5.3069   -1.3268   17.0836 N.ar    1  UNL1       -0.2423
     18 C           5.6484   -1.9194   18.4186 C.ar    1  UNL1        0.0989
     19 N           6.3033   -5.8901   27.4436 N.pl3   1  UNL1       -0.3257
     20 H           5.5342   -6.5023   27.3904 H       1  UNL1        0.1472
     21 C           6.4524   -4.9737   28.6219 C.ar    1  UNL1        0.0644
     22 C           6.8235   -5.5318   29.9638 C.ar    1  UNL1        0.0175
     23 C           6.9725   -4.6155   31.1419 C.ar    1  UNL1        0.0219
     24 C           6.7505   -3.1410   30.9781 C.ar    1  UNL1        0.0987
     25 N           6.3795   -2.5830   29.6362 N.ar    1  UNL1       -0.2410
     26 C           6.2304   -3.4993   28.4581 C.ar    1  UNL1        0.1131
     27 C           6.8996   -2.2247   32.1564 C.ar    1  UNL1        0.0971
     28 C           8.1712   -1.5703   32.6090 C.ar    1  UNL1        0.0427
     29 C           7.8608   -0.7430   33.8212 C.ar    1  UNL1        0.1217
     30 N           6.3973   -0.8862   34.1177 N.ar    1  UNL1       -0.1676
     31 N           5.8033   -1.8019   33.0888 N.ar    1  UNL1       -0.2473
     32 C           4.3655   -2.2212   33.0068 C.3     1  UNL1        0.1538
@<TRIPOS>BOND
     1     2     1    1
     2     2    19    1
     3    19    21    1
     4    21    22   ar
     5    22    23   ar
     6    23    24   ar
     7    24    27    1
     8    27    28   ar
     9    28    29   ar
    10    29    30   ar
    11    30    31   ar
    12    31    32    1
    13    24    25   ar
    14    25    26   ar
    15     2     3    1
    16     3     4    2
    17     3     5   am
    18     5     7    1
    19     7     8   ar
    20     8     9   ar
    21     9    10   ar
    22    10    13    1
    23    13    14   ar
    24    14    15   ar
    25    15    16   ar
    26    16    17   ar
    27    17    18   ar
    28    10    11   ar
    29    11    12   ar
    30    26    21   ar
    31    12     7   ar
    32    31    27   ar
    33    18    13   ar
    34    19    20    1
    35     5     6    1
@<TRIPOS>MOLECULE
*****
 32 35 0 0 0
SMALL
GASTEIGER

@<TRIPOS>ATOM
      1 C           6.8579   -2.0243   17.8818 C.3     1  UNL1        0.0311
      2 C           5.6996   -2.6761   18.5774 C.3     1  UNL1        0.1470
      3 C           5.9297   -3.4862   19.8187 C.2     1  UNL1        0.2450
      4 O           5.0627   -4.6751   20.1097 O.2     1  UNL1       -0.2730
      5 N           7.0268   -3.1074   20.7690 N.am    1  UNL1       -0.2680
      6 H           7.5958   -2.3271   20.5779 H       1  UNL1        0.1563
      7 C           7.2568   -3.9176   22.0102 C.ar    1  UNL1        0.1342
      8 C           6.5775   -3.5354   23.2919 C.ar    1  UNL1        0.0345
      9 C           6.8076   -4.3455   24.5331 C.ar    1  UNL1        0.0045
     10 C           7.7169   -5.5379   24.4927 C.ar    1  UNL1        0.0208
     11 C           8.3961   -5.9200   23.2111 C.ar    1  UNL1        0.1003
     12 N           8.1661   -5.1098   21.9698 N.ar    1  UNL1       -0.2290
     13 C           7.9469   -6.3480   25.7340 C.ar    1  UNL1        0.0207
     14 C           8.3423   -7.7910   25.6253 C.ar    1  UNL1        0.0032
     15 C           8.5723   -8.6011   26.8665 C.ar    1  UNL1        0.0207
     16 C           8.4070   -7.9684   28.2165 C.ar    1  UNL1        0.0989
     17 N           8.0117   -6.5255   28.3252 N.ar    1  UNL1       -0.2423
     18 C           7.7816   -5.7154   27.0839 C.ar    1  UNL1        0.0989
     19 N           4.3115   -2.5176   18.0318 N.pl3   1  UNL1       -0.3257
     20 H           4.0023   -3.0957   17.2972 H       1  UNL1        0.1472
     21 C           3.3942   -1.4784   18.6052 C.ar    1  UNL1        0.0644
     22 C           2.6019   -1.7782   19.8431 C.ar    1  UNL1        0.0175
     23 C           1.6848   -0.7390   20.4165 C.ar    1  UNL1        0.0219
     24 C           1.5599    0.6000   19.7520 C.ar    1  UNL1        0.0987
     25 N           2.3521    0.8998   18.5141 N.ar    1  UNL1       -0.2410
     26 C           3.2693   -0.1394   17.9407 C.ar    1  UNL1        0.1131
     27 C           0.6426    1.6392   20.3254 C.ar    1  UNL1        0.0971
     28 C           0.2842    1.7964   21.7735 C.ar    1  UNL1        0.0427
     29 C          -0.6572    2.9579   21.8946 C.ar    1  UNL1        0.1217
     30 N          -0.8805    3.5186   20.5213 N.ar    1  UNL1       -0.1676
     31 N          -0.0772    2.7036   19.5516 N.ar    1  UNL1       -0.2473
     32 C          -0.0062    2.9157   18.0684 C.3     1  UNL1        0.1538
@<TRIPOS>BOND
     1     2     1    1
     2     2    19    1
     3    19    21    1
     4    21    22   ar
     5    22    23   ar
     6    23    24   ar
     7    24    27    1
     8    27    28   ar
     9    28    29   ar
    10    29    30   ar
    11    30    31   ar
    12    31    32    1
    13    24    25   ar
    14    25    26   ar
    15     2     3    1
    16     3     4    2
    17     3     5   am
    18     5     7    1
    19     7     8   ar
    20     8     9   ar
    21     9    10   ar
    22    10    13    1
    23    13    14   ar
    24    14    15   ar
    25    15    16   ar
    26    16    17   ar
    27    17    18   ar
    28    10    11   ar
    29    11    12   ar
    30    26    21   ar
    31    12     7   ar
    32    31    27   ar
    33    18    13   ar
    34    19    20    1
    35     5     6    1
@<TRIPOS>MOLECULE
*****
 32 35 0 0 0
SMALL
GASTEIGER

@<TRIPOS>ATOM
      1 C          -1.4455    5.0882   18.9879 C.3     1  UNL1        0.0311
      2 C          -1.6446    3.7300   19.5926 C.3     1  UNL1        0.1470
      3 C          -0.4695    2.8206   19.7973 C.2     1  UNL1        0.2450
      4 O           0.7911    3.0360   19.0133 O.2     1  UNL1       -0.2730
      5 N          -0.5549    1.6957   20.7860 N.am    1  UNL1       -0.2680
      6 H          -1.3822    1.5543   21.3005 H       1  UNL1        0.1563
      7 C           0.6203    0.7863   20.9906 C.ar    1  UNL1        0.1342
      8 C           0.9322   -0.2757   19.9781 C.ar    1  UNL1        0.0345
      9 C           2.1074   -1.1851   20.1828 C.ar    1  UNL1        0.0045
     10 C           2.9707   -1.0326   21.4000 C.ar    1  UNL1        0.0208
     11 C           2.6588    0.0293   22.4124 C.ar    1  UNL1        0.1003
     12 N           1.4836    0.9387   22.2077 N.ar    1  UNL1       -0.2290
     13 C           4.1459   -1.9420   21.6047 C.ar    1  UNL1        0.0207
     14 C           4.2767   -2.7233   22.8785 C.ar    1  UNL1        0.0032
     15 C           5.4519   -3.6327   23.0832 C.ar    1  UNL1        0.0207
     16 C           6.4963   -3.7608   22.0140 C.ar    1  UNL1        0.0989
     17 N           6.3654   -2.9796   20.7403 N.ar    1  UNL1       -0.2423
     18 C           5.1902   -2.0702   20.5356 C.ar    1  UNL1        0.0989
     19 N          -3.0189    3.2812   19.9926 N.pl3   1  UNL1       -0.3257
     20 H          -3.5353    2.6889   19.3996 H       1  UNL1        0.1472
     21 C          -3.6063    3.7349   21.2961 C.ar    1  UNL1        0.0644
     22 C          -4.9300    3.1953   21.7505 C.ar    1  UNL1        0.0175
     23 C          -5.5173    3.6490   23.0540 C.ar    1  UNL1        0.0219
     24 C          -4.7809    4.6423   23.9031 C.ar    1  UNL1        0.0987
     25 N          -3.4572    5.1820   23.4488 N.ar    1  UNL1       -0.2410
     26 C          -2.8699    4.7283   22.1453 C.ar    1  UNL1        0.1131
     27 C          -5.3683    5.0961   25.2067 C.ar    1  UNL1        0.0971
     28 C          -6.5805    5.9638   25.3730 C.ar    1  UNL1        0.0427
     29 C          -6.8081    6.1657   26.8418 C.ar    1  UNL1        0.1217
     30 N          -5.7365    5.4228   27.5833 N.ar    1  UNL1       -0.1676
     31 N          -4.8467    4.7617   26.5727 N.ar    1  UNL1       -0.2473
     32 C          -3.6461    3.9150   26.8751 C.3     1  UNL1        0.1538
@<TRIPOS>BOND
     1     2     1    1
     2     2    19    1
     3    19    21    1
     4    21    22   ar
     5    22    23   ar
     6    23    24   ar
     7    24    27    1
     8    27    28   ar
     9    28    29   ar
    10    29    30   ar
    11    30    31   ar
    12    31    32    1
    13    24    25   ar
    14    25    26   ar
    15     2     3    1
    16     3     4    2
    17     3     5   am
    18     5     7    1
    19     7     8   ar
    20     8     9   ar
    21     9    10   ar
    22    10    13    1
    23    13    14   ar
    24    14    15   ar
    25    15    16   ar
    26    16    17   ar
    27    17    18   ar
    28    10    11   ar
    29    11    12   ar
    30    26    21   ar
    31    12     7   ar
    32    31    27   ar
    33    18    13   ar
    34    19    20    1
    35     5     6    1
@<TRIPOS>MOLECULE
*****
 32 35 0 0 0
SMALL
GASTEIGER

@<TRIPOS>ATOM
      1 C           0.0474    5.6365   16.6277 C.3     1  UNL1        0.0311
      2 C          -0.6069    4.7601   17.6543 C.3     1  UNL1        0.1470
      3 C           0.1991    3.7226   18.3781 C.2     1  UNL1        0.2450
      4 O           1.0158    4.1083   19.5757 O.2     1  UNL1       -0.2730
      5 N           0.1884    2.2993   17.9043 N.am    1  UNL1       -0.2680
      6 H          -0.3477    2.0462   17.1183 H       1  UNL1        0.1563
      7 C           0.9944    1.2619   18.6282 C.ar    1  UNL1        0.1342
      8 C           2.4372    1.0523   18.2753 C.ar    1  UNL1        0.0345
      9 C           3.2432    0.0148   18.9992 C.ar    1  UNL1        0.0045
     10 C           2.6064   -0.8131   20.0759 C.ar    1  UNL1        0.0208
     11 C           1.1637   -0.6035   20.4287 C.ar    1  UNL1        0.1003
     12 N           0.3577    0.4340   19.7048 N.ar    1  UNL1       -0.2290
     13 C           3.4125   -1.8506   20.7997 C.ar    1  UNL1        0.0207
     14 C           3.6818   -1.7014   22.2679 C.ar    1  UNL1        0.0032
     15 C           4.4878   -2.7389   22.9917 C.ar    1  UNL1        0.0207
     16 C           5.0245   -3.9255   22.2474 C.ar    1  UNL1        0.0989
     17 N           4.7552   -4.0747   20.7794 N.ar    1  UNL1       -0.2423
     18 C           3.9492   -3.0372   20.0555 C.ar    1  UNL1        0.0989
     19 N          -2.0672    4.9211   17.9570 N.pl3   1  UNL1       -0.3257
     20 H          -2.6960    5.1569   17.2371 H       1  UNL1        0.1472
     21 C          -2.5693    4.7230   19.3565 C.ar    1  UNL1        0.0644
     22 C          -3.4456    3.5493   19.6798 C.ar    1  UNL1        0.0175
     23 C          -3.9477    3.3512   21.0793 C.ar    1  UNL1        0.0219
     24 C          -3.5736    4.3268   22.1555 C.ar    1  UNL1        0.0987
     25 N          -2.6973    5.5006   21.8322 N.ar    1  UNL1       -0.2410
     26 C          -2.1952    5.6986   20.4327 C.ar    1  UNL1        0.1131
     27 C          -4.0757    4.1287   23.5550 C.ar    1  UNL1        0.0971
     28 C          -3.2283    3.9075   24.7728 C.ar    1  UNL1        0.0427
     29 C          -4.1422    3.7590   25.9529 C.ar    1  UNL1        0.1217
     30 N          -5.5546    3.8886   25.4644 N.ar    1  UNL1       -0.1676
     31 N          -5.5135    4.1170   23.9825 N.ar    1  UNL1       -0.2473
     32 C          -6.7015    4.3014   23.0856 C.3     1  UNL1        0.1538
@<TRIPOS>BOND
     1     2     1    1
     2     2    19    1
     3    19    21    1
     4    21    22   ar
     5    22    23   ar
     6    23    24   ar
     7    24    27    1
     8    27    28   ar
     9    28    29   ar
    10    29    30   ar
    11    30    31   ar
    12    31    32    1
    13    24    25   ar
    14    25    26   ar
    15     2     3    1
    16     3     4    2
    17     3     5   am
    18     5     7    1
    19     7     8   ar
    20     8     9   ar
    21     9    10   ar
    22    10    13    1
    23    13    14   ar
    24    14    15   ar
    25    15    16   ar
    26    16    17   ar
    27    17    18   ar
    28    10    11   ar
    29    11    12   ar
    30    26    21   ar
    31    12     7   ar
    32    31    27   ar
    33    18    13   ar
    34    19    20    1
    35     5     6    1
@<TRIPOS>MOLECULE
*****
 32 35 0 0 0
SMALL
GASTEIGER

@<TRIPOS>ATOM
      1 C           8.7229   -3.6757   30.4527 C.3     1  UNL1        0.0311
      2 C           7.2421   -3.8252   30.2656 C.3     1  UNL1        0.1470
      3 C           6.6583   -3.8383   28.8839 C.2     1  UNL1        0.2450
      4 O           5.9562   -5.0634   28.3779 O.2     1  UNL1       -0.2730
      5 N           6.7765   -2.6261   28.0082 N.am    1  UNL1       -0.2680
      6 H           7.2373   -1.8220   28.3404 H       1  UNL1        0.1563
      7 C           6.1927   -2.6391   26.6266 C.ar    1  UNL1        0.1342
      8 C           6.7599   -3.5533   25.5813 C.ar    1  UNL1        0.0345
      9 C           6.1761   -3.5664   24.1996 C.ar    1  UNL1        0.0045
     10 C           5.0250   -2.6652   23.8633 C.ar    1  UNL1        0.0208
     11 C           4.4579   -1.7511   24.9085 C.ar    1  UNL1        0.1003
     12 N           5.0417   -1.7381   26.2902 N.ar    1  UNL1       -0.2290
     13 C           4.4412   -2.6783   22.4816 C.ar    1  UNL1        0.0207
     14 C           4.6821   -3.8501   21.5766 C.ar    1  UNL1        0.0032
     15 C           4.0983   -3.8631   20.1950 C.ar    1  UNL1        0.0207
     16 C           3.2736   -2.7044   19.7183 C.ar    1  UNL1        0.0989
     17 N           3.0327   -1.5326   20.6232 N.ar    1  UNL1       -0.2423
     18 C           3.6166   -1.5196   22.0049 C.ar    1  UNL1        0.0989
     19 N           6.3452   -3.9617   31.4601 N.pl3   1  UNL1       -0.3257
     20 H           6.2258   -4.8401   31.8882 H       1  UNL1        0.1472
     21 C           5.6301   -2.7597   32.0023 C.ar    1  UNL1        0.0644
     22 C           5.9477   -1.3942   31.4689 C.ar    1  UNL1        0.0175
     23 C           5.2326   -0.1923   32.0111 C.ar    1  UNL1        0.0219
     24 C           4.2001   -0.3558   33.0868 C.ar    1  UNL1        0.0987
     25 N           3.8825   -1.7213   33.6202 N.ar    1  UNL1       -0.2410
     26 C           4.5976   -2.9232   33.0780 C.ar    1  UNL1        0.1131
     27 C           3.4850    0.8462   33.6291 C.ar    1  UNL1        0.0971
     28 C           3.7018    1.4672   34.9772 C.ar    1  UNL1        0.0427
     29 C           2.7785    2.6430   35.0997 C.ar    1  UNL1        0.1217
     30 N           1.9911    2.7486   33.8273 N.ar    1  UNL1       -0.1676
     31 N           2.4278    1.6381   32.9184 N.ar    1  UNL1       -0.2473
     32 C           1.8999    1.3672   31.5408 C.3     1  UNL1        0.1538
@<TRIPOS>BOND
     1     2     1    1
     2     2    19    1
     3    19    21    1
     4    21    22   ar
     5    22    23   ar
     6    23    24   ar
     7    24    27    1
     8    27    28   ar
     9    28    29   ar
    10    29    30   ar
    11    30    31   ar
    12    31    32    1
    13    24    25   ar
    14    25    26   ar
    15     2     3    1
    16     3     4    2
    17     3     5   am
    18     5     7    1
    19     7     8   ar
    20     8     9   ar
    21     9    10   ar
    22    10    13    1
    23    13    14   ar
    24    14    15   ar
    25    15    16   ar
    26    16    17   ar
    27    17    18   ar
    28    10    11   ar
    29    11    12   ar
    30    26    21   ar
    31    12     7   ar
    32    31    27   ar
    33    18    13   ar
    34    19    20    1
    35     5     6    1
@<TRIPOS>MOLECULE
*****
 32 35 0 0 0
SMALL
GASTEIGER

@<TRIPOS>ATOM
      1 C           7.3502   -7.9424   25.9512 C.3     1  UNL1        0.0311
      2 C           8.1253   -6.6582   25.9644 C.3     1  UNL1        0.1470
      3 C           8.0002   -5.7186   27.1269 C.2     1  UNL1        0.2450
      4 O           9.0297   -4.6488   27.3407 O.2     1  UNL1       -0.2730
      5 N           6.8456   -5.8488   28.0756 N.am    1  UNL1       -0.2680
      6 H           6.1699   -6.5509   27.9352 H       1  UNL1        0.1563
      7 C           6.7205   -4.9091   29.2381 C.ar    1  UNL1        0.1342
      8 C           6.9379   -5.4110   30.6349 C.ar    1  UNL1        0.0345
      9 C           6.8128   -4.4714   31.7974 C.ar    1  UNL1        0.0045
     10 C           6.4703   -3.0299   31.5631 C.ar    1  UNL1        0.0208
     11 C           6.2529   -2.5281   30.1664 C.ar    1  UNL1        0.1003
     12 N           6.3780   -3.4677   29.0039 N.ar    1  UNL1       -0.2290
     13 C           6.3452   -2.0902   32.7256 C.ar    1  UNL1        0.0207
     14 C           7.5273   -1.2771   33.1634 C.ar    1  UNL1        0.0032
     15 C           7.4022   -0.3375   34.3259 C.ar    1  UNL1        0.0207
     16 C           6.0950   -0.2109   35.0506 C.ar    1  UNL1        0.0989
     17 N           4.9129   -1.0240   34.6128 N.ar    1  UNL1       -0.2423
     18 C           5.0380   -1.9636   33.4503 C.ar    1  UNL1        0.0989
     19 N           9.0255   -6.3138   24.8151 N.pl3   1  UNL1       -0.3257
     20 H           9.9783   -6.5598   24.8452 H       1  UNL1        0.1472
     21 C           8.4741   -5.5944   23.6198 C.ar    1  UNL1        0.0644
     22 C           9.1961   -5.6587   22.3067 C.ar    1  UNL1        0.0175
     23 C           8.6446   -4.9394   21.1116 C.ar    1  UNL1        0.0219
     24 C           7.3711   -4.1557   21.2296 C.ar    1  UNL1        0.0987
     25 N           6.6490   -4.0914   22.5428 N.ar    1  UNL1       -0.2410
     26 C           7.2005   -4.8107   23.7379 C.ar    1  UNL1        0.1131
     27 C           6.8196   -3.4364   20.0344 C.ar    1  UNL1        0.0971
     28 C           7.5594   -2.4499   19.1802 C.ar    1  UNL1        0.0427
     29 C           6.6286   -1.9810   18.1015 C.ar    1  UNL1        0.1217
     30 N           5.3135   -2.6778   18.2889 N.ar    1  UNL1       -0.1676
     31 N           5.4316   -3.5772   19.4835 N.ar    1  UNL1       -0.2473
     32 C           4.3512   -4.4621   20.0310 C.3     1  UNL1        0.1538
@<TRIPOS>BOND
     1     2     1    1
     2     2    19    1
     3    19    21    1
     4    21    22   ar
     5    22    23   ar
     6    23    24   ar
     7    24    27    1
     8    27    28   ar
     9    28    29   ar
    10    29    30   ar
    11    30    31   ar
    12    31    32    1
    13    24    25   ar
    14    25    26   ar
    15     2     3    1
    16     3     4    2
    17     3     5   am
    18     5     7    1
    19     7     8   ar
    20     8     9   ar
    21     9    10   ar
    22    10    13    1
    23    13    14   ar
    24    14    15   ar
    25    15    16   ar
    26    16    17   ar
    27    17    18   ar
    28    10    11   ar
    29    11    12   ar
    30    26    21   ar
    31    12     7   ar
    32    31    27   ar
    33    18    13   ar
    34    19    20    1
    35     5     6    1
@<TRIPOS>MOLECULE
*****
 32 35 0 0 0
SMALL
GASTEIGER

@<TRIPOS>ATOM
      1 C           4.0843   -0.7160   16.6061 C.3     1  UNL1        0.0311
      2 C           4.1316   -1.3255   17.9759 C.3     1  UNL1        0.1470
      3 C           3.6235   -0.5543   19.1579 C.2     1  UNL1        0.2450
      4 O           4.3685    0.6545   19.6413 O.2     1  UNL1       -0.2730
      5 N           2.3702   -0.9919   19.8564 N.am    1  UNL1       -0.2680
      6 H           1.8811   -1.7852   19.5390 H       1  UNL1        0.1563
      7 C           1.8620   -0.2207   21.0383 C.ar    1  UNL1        0.1342
      8 C           2.4727   -0.4338   22.3917 C.ar    1  UNL1        0.0345
      9 C           1.9646    0.3375   23.5737 C.ar    1  UNL1        0.0045
     10 C           0.8457    1.3217   23.4022 C.ar    1  UNL1        0.0208
     11 C           0.2350    1.5348   22.0489 C.ar    1  UNL1        0.1003
     12 N           0.7432    0.7636   20.8669 N.ar    1  UNL1       -0.2290
     13 C           0.3375    2.0929   24.5842 C.ar    1  UNL1        0.0207
     14 C          -0.1629    1.3644   25.7962 C.ar    1  UNL1        0.0032
     15 C          -0.6711    2.1356   26.9782 C.ar    1  UNL1        0.0207
     16 C          -0.6788    3.6353   26.9481 C.ar    1  UNL1        0.0989
     17 N          -0.1784    4.3638   25.7361 N.ar    1  UNL1       -0.2423
     18 C           0.3297    3.5926   24.5542 C.ar    1  UNL1        0.0989
     19 N           4.6871   -2.7061   18.1637 N.pl3   1  UNL1       -0.3257
     20 H           4.6835   -3.3443   17.4141 H       1  UNL1        0.1472
     21 C           5.2480   -3.1144   19.4937 C.ar    1  UNL1        0.0644
     22 C           6.6528   -2.7396   19.8622 C.ar    1  UNL1        0.0175
     23 C           7.2137   -3.1479   21.1921 C.ar    1  UNL1        0.0219
     24 C           6.3697   -3.9310   22.1535 C.ar    1  UNL1        0.0987
     25 N           4.9648   -4.3058   21.7851 N.ar    1  UNL1       -0.2410
     26 C           4.4039   -3.8975   20.4551 C.ar    1  UNL1        0.1131
     27 C           6.9306   -4.3393   23.4835 C.ar    1  UNL1        0.0971
     28 C           7.8526   -5.4956   23.7341 C.ar    1  UNL1        0.0427
     29 C           8.1599   -5.5339   25.2017 C.ar    1  UNL1        0.1217
     30 N           7.4276   -4.4012   25.8583 N.ar    1  UNL1       -0.1676
     31 N           6.6679   -3.6629   24.7963 N.ar    1  UNL1       -0.2473
     32 C           5.7982   -2.4596   25.0098 C.3     1  UNL1        0.1538
@<TRIPOS>BOND
     1     2     1    1
     2     2    19    1
     3    19    21    1
     4    21    22   ar
     5    22    23   ar
     6    23    24   ar
     7    24    27    1
     8    27    28   ar
     9    28    29   ar
    10    29    30   ar
    11    30    31   ar
    12    31    32    1
    13    24    25   ar
    14    25    26   ar
    15     2     3    1
    16     3     4    2
    17     3     5   am
    18     5     7    1
    19     7     8   ar
    20     8     9   ar
    21     9    10   ar
    22    10    13    1
    23    13    14   ar
    24    14    15   ar
    25    15    16   ar
    26    16    17   ar
    27    17    18   ar
    28    10    11   ar
    29    11    12   ar
    30    26    21   ar
    31    12     7   ar
    32    31    27   ar
    33    18    13   ar
    34    19    20    1
    35     5     6    1
