@<TRIPOS>MOLECULE
*****
 24 27 0 0 0
SMALL
GASTEIGER

@<TRIPOS>ATOM
      1 O           6.6029   -4.6206   22.5700 O.2     1  UNL1       -0.2526
      2 C           6.2457   -3.5426   23.5500 C.2     1  UNL1        0.3039
      3 N           5.7595   -2.2119   23.0571 N.am    1  UNL1       -0.2901
      4 N           6.3746   -3.7953   25.0229 N.am    1  UNL1       -0.2641
      5 C           6.8608   -5.1260   25.5158 C.3     1  UNL1        0.0969
      6 C           6.9898   -5.3787   26.9888 C.3     1  UNL1        0.0459
      7 C           6.6326   -4.3007   27.9688 C.3     1  UNL1        0.1086
      8 C           6.1464   -2.9701   27.4759 C.3     1  UNL1        0.0459
      9 C           6.0174   -2.7173   26.0029 C.3     1  UNL1        0.0969
     10 H           5.5250   -1.5044   23.7003 H       1  UNL1        0.1509
     11 N           6.7616   -4.5534   29.4417 N.ar    1  UNL1       -0.2512
     12 C           6.6694   -3.5199   30.5250 C.ar    1  UNL1        0.0966
     13 C           6.8563   -4.2117   31.8428 C.ar    1  UNL1        0.0427
     14 C           7.0639   -5.6728   31.5739 C.ar    1  UNL1        0.1217
     15 N           7.0054   -5.8839   30.0900 N.ar    1  UNL1       -0.1677
     16 C           5.6305   -1.9592   21.5842 C.3     1  UNL1        0.0774
     17 C           6.1906   -2.0541   20.1960 C.3     1  UNL1        0.0259
     18 C           4.8469   -1.4267   20.4213 C.3     1  UNL1        0.0420
     19 C           3.6187   -0.7569   19.8800 C.ar    1  UNL1       -0.0208
     20 C           3.7340    0.2173   18.7453 C.ar    1  UNL1       -0.0042
     21 C           2.5058    0.8870   18.2040 C.ar    1  UNL1       -0.0003
     22 C           1.1623    0.5825   18.7974 C.ar    1  UNL1       -0.0000
     23 C           1.0470   -0.3918   19.9321 C.ar    1  UNL1       -0.0003
     24 C           2.2752   -1.0614   20.4734 C.ar    1  UNL1       -0.0042
@<TRIPOS>BOND
     1     1     2    2
     2     2     3   am
     3     3    16    1
     4    16    17    1
     5    17    18    1
     6    18    19    1
     7    19    20   ar
     8    20    21   ar
     9    21    22   ar
    10    22    23   ar
    11    23    24   ar
    12     2     4   am
    13     4     5    1
    14     5     6    1
    15     6     7    1
    16     7    11    1
    17    11    12   ar
    18    12    13   ar
    19    13    14   ar
    20    14    15   ar
    21     7     8    1
    22     8     9    1
    23    18    16    1
    24    24    19   ar
    25     9     4    1
    26    15    11   ar
    27     3    10    1
@<TRIPOS>MOLECULE
*****
 24 27 0 0 0
SMALL
GASTEIGER

@<TRIPOS>ATOM
      1 O           8.2174   -5.2547   23.5156 O.2     1  UNL1       -0.2526
      2 C           6.9276   -4.5132   23.7074 C.2     1  UNL1        0.3039
      3 N           6.2610   -4.5029   25.0511 N.am    1  UNL1       -0.2901
      4 N           6.3044   -3.7819   22.5554 N.am    1  UNL1       -0.2641
      5 C           6.9711   -3.7922   21.2117 C.3     1  UNL1        0.0969
      6 C           6.3479   -3.0610   20.0597 C.3     1  UNL1        0.0459
      7 C           5.0582   -2.3195   20.2515 C.3     1  UNL1        0.1086
      8 C           4.3916   -2.3092   21.5952 C.3     1  UNL1        0.0459
      9 C           5.0147   -3.0405   22.7472 C.3     1  UNL1        0.0969
     10 H           5.4145   -4.0162   25.1769 H       1  UNL1        0.1509
     11 N           4.4350   -1.5883   19.0996 N.ar    1  UNL1       -0.2512
     12 C           3.3851   -0.5214   19.1966 C.ar    1  UNL1        0.0966
     13 C           3.0536   -0.0693   17.8053 C.ar    1  UNL1        0.0427
     14 C           3.8986   -0.8567   16.8484 C.ar    1  UNL1        0.1217
     15 N           4.7524   -1.7955   17.6483 N.ar    1  UNL1       -0.1677
     16 C           6.8841   -5.2341   26.2031 C.3     1  UNL1        0.0774
     17 C           7.7071   -6.3741   26.7258 C.3     1  UNL1        0.0259
     18 C           7.1405   -5.3606   27.6755 C.3     1  UNL1        0.0420
     19 C           6.9614   -4.8486   29.0740 C.ar    1  UNL1       -0.0208
     20 C           7.1151   -5.7804   30.2394 C.ar    1  UNL1       -0.0042
     21 C           6.9360   -5.2683   31.6378 C.ar    1  UNL1       -0.0003
     22 C           6.6033   -3.8244   31.8709 C.ar    1  UNL1       -0.0000
     23 C           6.4496   -2.8925   30.7056 C.ar    1  UNL1       -0.0003
     24 C           6.6287   -3.4046   29.3071 C.ar    1  UNL1       -0.0042
@<TRIPOS>BOND
     1     1     2    2
     2     2     3   am
     3     3    16    1
     4    16    17    1
     5    17    18    1
     6    18    19    1
     7    19    20   ar
     8    20    21   ar
     9    21    22   ar
    10    22    23   ar
    11    23    24   ar
    12     2     4   am
    13     4     5    1
    14     5     6    1
    15     6     7    1
    16     7    11    1
    17    11    12   ar
    18    12    13   ar
    19    13    14   ar
    20    14    15   ar
    21     7     8    1
    22     8     9    1
    23    18    16    1
    24    24    19   ar
    25     9     4    1
    26    15    11   ar
    27     3    10    1
@<TRIPOS>MOLECULE
*****
 24 27 0 0 0
SMALL
GASTEIGER

@<TRIPOS>ATOM
      1 O           0.3968    2.4754   23.1654 O.2     1  UNL1       -0.2526
      2 C           0.1535    1.7811   21.8582 C.2     1  UNL1        0.3039
      3 N          -1.0023    2.1915   20.9947 N.am    1  UNL1       -0.2901
      4 N           1.0660    0.6763   21.4145 N.am    1  UNL1       -0.2641
      5 C           2.2218    0.2659   22.2781 C.3     1  UNL1        0.0969
      6 C           3.1344   -0.8388   21.8344 C.3     1  UNL1        0.0459
      7 C           2.8910   -1.5332   20.5272 C.3     1  UNL1        0.1086
      8 C           1.7352   -1.1228   19.6637 C.3     1  UNL1        0.0459
      9 C           0.8227   -0.0180   20.1074 C.3     1  UNL1        0.0969
     10 H          -1.1620    1.7358   20.1368 H       1  UNL1        0.1509
     11 N           3.8036   -2.6379   20.0835 N.ar    1  UNL1       -0.2512
     12 C           3.4490   -3.7493   19.1406 C.ar    1  UNL1        0.0966
     13 C           4.6572   -4.6235   18.9792 C.ar    1  UNL1        0.0427
     14 C           5.7585   -4.0524   19.8224 C.ar    1  UNL1        0.1217
     15 N           5.2309   -2.8253   20.5049 N.ar    1  UNL1       -0.1677
     16 C          -1.9149    3.2962   21.4384 C.3     1  UNL1        0.0774
     17 C          -2.6774    4.5519   21.1353 C.3     1  UNL1        0.0259
     18 C          -2.7328    3.9540   22.5099 C.3     1  UNL1        0.0420
     19 C          -3.2371    3.9886   23.9222 C.ar    1  UNL1       -0.0208
     20 C          -2.3161    3.6480   25.0560 C.ar    1  UNL1       -0.0042
     21 C          -2.8204    3.6826   26.4683 C.ar    1  UNL1       -0.0003
     22 C          -4.2458    4.0578   26.7467 C.ar    1  UNL1       -0.0000
     23 C          -5.1668    4.3984   25.6128 C.ar    1  UNL1       -0.0003
     24 C          -4.6625    4.3638   24.2006 C.ar    1  UNL1       -0.0042
@<TRIPOS>BOND
     1     1     2    2
     2     2     3   am
     3     3    16    1
     4    16    17    1
     5    17    18    1
     6    18    19    1
     7    19    20   ar
     8    20    21   ar
     9    21    22   ar
    10    22    23   ar
    11    23    24   ar
    12     2     4   am
    13     4     5    1
    14     5     6    1
    15     6     7    1
    16     7    11    1
    17    11    12   ar
    18    12    13   ar
    19    13    14   ar
    20    14    15   ar
    21     7     8    1
    22     8     9    1
    23    18    16    1
    24    24    19   ar
    25     9     4    1
    26    15    11   ar
    27     3    10    1
@<TRIPOS>MOLECULE
*****
 24 27 0 0 0
SMALL
GASTEIGER

@<TRIPOS>ATOM
      1 O          -0.2122    3.7712   19.1212 O.2     1  UNL1       -0.2526
      2 C          -0.2576    2.4675   19.8619 C.2     1  UNL1        0.3039
      3 N          -1.3467    2.2098   20.8606 N.am    1  UNL1       -0.2901
      4 N           0.7863    1.4217   19.6039 N.am    1  UNL1       -0.2641
      5 C           1.8754    1.6794   18.6052 C.3     1  UNL1        0.0969
      6 C           2.9192    0.6336   18.3472 C.3     1  UNL1        0.0459
      7 C           2.8739   -0.6701   19.0879 C.3     1  UNL1        0.1086
      8 C           1.7848   -0.9278   20.0865 C.3     1  UNL1        0.0459
      9 C           0.7410    0.1181   20.3445 C.3     1  UNL1        0.0969
     10 H          -1.3764    1.3542   21.3467 H       1  UNL1        0.1509
     11 N           3.9178   -1.7160   18.8298 N.ar    1  UNL1       -0.2512
     12 C           3.7441   -3.1960   19.0010 C.ar    1  UNL1        0.0966
     13 C           5.0376   -3.8602   18.6323 C.ar    1  UNL1        0.0427
     14 C           6.0106   -2.7906   18.2333 C.ar    1  UNL1        0.1217
     15 N           5.3185   -1.4654   18.3554 N.ar    1  UNL1       -0.1677
     16 C          -2.3905    3.2557   21.1186 C.3     1  UNL1        0.0774
     17 C          -3.2575    4.3754   20.6242 C.3     1  UNL1        0.0259
     18 C          -3.3314    3.9474   22.0599 C.3     1  UNL1        0.0420
     19 C          -3.9174    4.0997   23.4324 C.ar    1  UNL1       -0.0208
     20 C          -5.3388    4.5501   23.5953 C.ar    1  UNL1       -0.0042
     21 C          -5.9246    4.7024   24.9677 C.ar    1  UNL1       -0.0003
     22 C          -5.0890    4.4042   26.1772 C.ar    1  UNL1       -0.0000
     23 C          -3.6676    3.9538   26.0143 C.ar    1  UNL1       -0.0003
     24 C          -3.0818    3.8016   24.6419 C.ar    1  UNL1       -0.0042
@<TRIPOS>BOND
     1     1     2    2
     2     2     3   am
     3     3    16    1
     4    16    17    1
     5    17    18    1
     6    18    19    1
     7    19    20   ar
     8    20    21   ar
     9    21    22   ar
    10    22    23   ar
    11    23    24   ar
    12     2     4   am
    13     4     5    1
    14     5     6    1
    15     6     7    1
    16     7    11    1
    17    11    12   ar
    18    12    13   ar
    19    13    14   ar
    20    14    15   ar
    21     7     8    1
    22     8     9    1
    23    18    16    1
    24    24    19   ar
    25     9     4    1
    26    15    11   ar
    27     3    10    1
@<TRIPOS>MOLECULE
*****
 24 27 0 0 0
SMALL
GASTEIGER

@<TRIPOS>ATOM
      1 O           5.5132   -2.1240   22.3756 O.2     1  UNL1       -0.2526
      2 C           6.3753   -3.3171   22.0865 C.2     1  UNL1        0.3039
      3 N           6.7585   -3.6406   20.6729 N.am    1  UNL1       -0.2901
      4 N           6.8540   -4.1866   23.2111 N.am    1  UNL1       -0.2641
      5 C           6.4707   -3.8630   24.6248 C.3     1  UNL1        0.0969
      6 C           6.9495   -4.7326   25.7494 C.3     1  UNL1        0.0459
      7 C           7.8115   -5.9256   25.4603 C.3     1  UNL1        0.1086
      8 C           8.1948   -6.2491   24.0466 C.3     1  UNL1        0.0459
      9 C           7.7160   -5.3796   22.9220 C.3     1  UNL1        0.0969
     10 H           7.3243   -4.4236   20.4831 H       1  UNL1        0.1509
     11 N           8.2903   -6.7952   26.5849 N.ar    1  UNL1       -0.2512
     12 C           8.5646   -8.2677   26.5056 C.ar    1  UNL1        0.0966
     13 C           9.0226   -8.7275   27.8579 C.ar    1  UNL1        0.0427
     14 C           9.0314   -7.5390   28.7731 C.ar    1  UNL1        0.1217
     15 N           8.5788   -6.3448   27.9863 N.ar    1  UNL1       -0.1677
     16 C           6.2798   -2.7710   19.5483 C.3     1  UNL1        0.0774
     17 C           6.4944   -2.1643   18.1934 C.3     1  UNL1        0.0259
     18 C           5.2359   -1.8718   18.9553 C.3     1  UNL1        0.0420
     19 C           3.9066   -1.1836   19.0529 C.ar    1  UNL1       -0.0208
     20 C           2.9154   -1.6111   20.0945 C.ar    1  UNL1       -0.0042
     21 C           1.5862   -0.9230   20.1920 C.ar    1  UNL1       -0.0003
     22 C           1.2481    0.1926   19.2480 C.ar    1  UNL1       -0.0000
     23 C           2.2392    0.6201   18.2065 C.ar    1  UNL1       -0.0003
     24 C           3.5685   -0.0680   18.1089 C.ar    1  UNL1       -0.0042
@<TRIPOS>BOND
     1     1     2    2
     2     2     3   am
     3     3    16    1
     4    16    17    1
     5    17    18    1
     6    18    19    1
     7    19    20   ar
     8    20    21   ar
     9    21    22   ar
    10    22    23   ar
    11    23    24   ar
    12     2     4   am
    13     4     5    1
    14     5     6    1
    15     6     7    1
    16     7    11    1
    17    11    12   ar
    18    12    13   ar
    19    13    14   ar
    20    14    15   ar
    21     7     8    1
    22     8     9    1
    23    18    16    1
    24    24    19   ar
    25     9     4    1
    26    15    11   ar
    27     3    10    1
@<TRIPOS>MOLECULE
*****
 24 27 0 0 0
SMALL
GASTEIGER

@<TRIPOS>ATOM
      1 O           5.0904   -0.7805   25.0764 O.2     1  UNL1       -0.2526
      2 C           3.8659   -0.5346   25.9071 C.2     1  UNL1        0.3039
      3 N           2.5678   -0.1816   25.2434 N.am    1  UNL1       -0.2901
      4 N           3.9394   -0.6417   27.4015 N.am    1  UNL1       -0.2641
      5 C           5.2375   -0.9947   28.0651 C.3     1  UNL1        0.0969
      6 C           5.3110   -1.1018   29.5595 C.3     1  UNL1        0.0459
      7 C           4.0865   -0.8559   30.3902 C.3     1  UNL1        0.1086
      8 C           2.7884   -0.5029   29.7265 C.3     1  UNL1        0.0459
      9 C           2.7149   -0.3958   28.2322 C.3     1  UNL1        0.0969
     10 H           1.7641   -0.0202   25.7887 H       1  UNL1        0.1509
     11 N           4.1600   -0.9630   31.8846 N.ar    1  UNL1       -0.2512
     12 C           4.3413    0.1771   32.8424 C.ar    1  UNL1        0.0966
     13 C           4.3585   -0.3842   34.2333 C.ar    1  UNL1        0.0427
     14 C           4.1878   -1.8713   34.1351 C.ar    1  UNL1        0.1217
     15 N           4.0651   -2.2289   32.6835 N.ar    1  UNL1       -0.1677
     16 C           2.4943   -0.0745   23.7491 C.3     1  UNL1        0.0774
     17 C           2.0723    0.6739   22.5196 C.3     1  UNL1        0.0259
     18 C           2.7890   -0.6375   22.3903 C.3     1  UNL1        0.0420
     19 C           3.3729   -1.7196   21.5312 C.ar    1  UNL1       -0.0208
     20 C           3.0175   -1.7957   20.0760 C.ar    1  UNL1       -0.0042
     21 C           3.6015   -2.8778   19.2169 C.ar    1  UNL1       -0.0003
     22 C           4.5408   -3.8839   19.8132 C.ar    1  UNL1       -0.0000
     23 C           4.8962   -3.8078   21.2684 C.ar    1  UNL1       -0.0003
     24 C           4.3123   -2.7257   22.1275 C.ar    1  UNL1       -0.0042
@<TRIPOS>BOND
     1     1     2    2
     2     2     3   am
     3     3    16    1
     4    16    17    1
     5    17    18    1
     6    18    19    1
     7    19    20   ar
     8    20    21   ar
     9    21    22   ar
    10    22    23   ar
    11    23    24   ar
    12     2     4   am
    13     4     5    1
    14     5     6    1
    15     6     7    1
    16     7    11    1
    17    11    12   ar
    18    12    13   ar
    19    13    14   ar
    20    14    15   ar
    21     7     8    1
    22     8     9    1
    23    18    16    1
    24    24    19   ar
    25     9     4    1
    26    15    11   ar
    27     3    10    1
@<TRIPOS>MOLECULE
*****
 24 27 0 0 0
SMALL
GASTEIGER

@<TRIPOS>ATOM
      1 O          -1.2986    2.4622   21.3772 O.2     1  UNL1       -0.2526
      2 C          -0.5671    2.4443   20.0677 C.2     1  UNL1        0.3039
      3 N          -0.8553    3.4916   19.0333 N.am    1  UNL1       -0.2901
      4 N           0.4525    1.3790   19.7928 N.am    1  UNL1       -0.2641
      5 C           0.7407    0.3317   20.8273 C.3     1  UNL1        0.0969
      6 C           1.7603   -0.7335   20.5523 C.3     1  UNL1        0.0459
      7 C           2.4918   -0.7514   19.2428 C.3     1  UNL1        0.1086
      8 C           2.2036    0.2959   18.2084 C.3     1  UNL1        0.0459
      9 C           1.1840    1.3611   18.4834 C.3     1  UNL1        0.0969
     10 H          -0.3752    3.4798   18.1739 H       1  UNL1        0.1509
     11 N           3.5114   -1.8167   18.9679 N.ar    1  UNL1       -0.2512
     12 C           3.4351   -3.2466   19.4146 C.ar    1  UNL1        0.0966
     13 C           4.6629   -3.9527   18.9207 C.ar    1  UNL1        0.0427
     14 C           5.4981   -2.9592   18.1687 C.ar    1  UNL1        0.1217
     15 N           4.7864   -1.6391   18.1979 N.ar    1  UNL1       -0.1677
     16 C          -1.8750    4.5568   19.3083 C.3     1  UNL1        0.0774
     17 C          -2.3597    5.9660   19.1377 C.3     1  UNL1        0.0259
     18 C          -3.1562    4.9926   19.9551 C.3     1  UNL1        0.0420
     19 C          -4.3558    4.6822   20.8006 C.ar    1  UNL1       -0.0208
     20 C          -4.2337    3.7340   21.9564 C.ar    1  UNL1       -0.0042
     21 C          -5.4332    3.4237   22.8017 C.ar    1  UNL1       -0.0003
     22 C          -6.7549    4.0616   22.4913 C.ar    1  UNL1       -0.0000
     23 C          -6.8770    5.0098   21.3356 C.ar    1  UNL1       -0.0003
     24 C          -5.6774    5.3201   20.4902 C.ar    1  UNL1       -0.0042
@<TRIPOS>BOND
     1     1     2    2
     2     2     3   am
     3     3    16    1
     4    16    17    1
     5    17    18    1
     6    18    19    1
     7    19    20   ar
     8    20    21   ar
     9    21    22   ar
    10    22    23   ar
    11    23    24   ar
    12     2     4   am
    13     4     5    1
    14     5     6    1
    15     6     7    1
    16     7    11    1
    17    11    12   ar
    18    12    13   ar
    19    13    14   ar
    20    14    15   ar
    21     7     8    1
    22     8     9    1
    23    18    16    1
    24    24    19   ar
    25     9     4    1
    26    15    11   ar
    27     3    10    1
@<TRIPOS>MOLECULE
*****
 24 27 0 0 0
SMALL
GASTEIGER

@<TRIPOS>ATOM
      1 O           8.8158   -2.9095   31.7669 O.2     1  UNL1       -0.2526
      2 C           7.3957   -3.2283   32.1298 C.2     1  UNL1        0.3039
      3 N           6.8472   -4.6014   31.8773 N.am    1  UNL1       -0.2901
      4 N           6.5241   -2.1740   32.7453 N.am    1  UNL1       -0.2641
      5 C           7.0727   -0.8009   32.9978 C.3     1  UNL1        0.0969
      6 C           6.2011    0.2534   33.6133 C.3     1  UNL1        0.0459
      7 C           4.7810   -0.0654   33.9763 C.3     1  UNL1        0.1086
      8 C           4.2325   -1.4385   33.7238 C.3     1  UNL1        0.0459
      9 C           5.1041   -2.4928   33.1083 C.3     1  UNL1        0.0969
     10 H           5.9152   -4.8106   32.1155 H       1  UNL1        0.1509
     11 N           3.9094    0.9889   34.5918 N.ar    1  UNL1       -0.2512
     12 C           2.9422    1.8711   33.8596 C.ar    1  UNL1        0.0966
     13 C           2.2870    2.7736   34.8628 C.ar    1  UNL1        0.0427
     14 C           2.8494    2.4491   36.2150 C.ar    1  UNL1        0.1217
     15 N           3.8521    1.3461   36.0475 N.ar    1  UNL1       -0.1677
     16 C           7.7188   -5.6557   31.2618 C.3     1  UNL1        0.0774
     17 C           8.8114   -6.6753   31.3899 C.3     1  UNL1        0.0259
     18 C           8.1357   -6.4620   30.0678 C.3     1  UNL1        0.0420
     19 C           7.9864   -6.8045   28.6150 C.ar    1  UNL1       -0.0208
     20 C           8.6234   -8.0475   28.0681 C.ar    1  UNL1       -0.0042
     21 C           8.4740   -8.3898   26.6154 C.ar    1  UNL1       -0.0003
     22 C           7.6876   -7.4892   25.7096 C.ar    1  UNL1       -0.0000
     23 C           7.0506   -6.2462   26.2565 C.ar    1  UNL1       -0.0003
     24 C           7.2000   -5.9038   27.7092 C.ar    1  UNL1       -0.0042
@<TRIPOS>BOND
     1     1     2    2
     2     2     3   am
     3     3    16    1
     4    16    17    1
     5    17    18    1
     6    18    19    1
     7    19    20   ar
     8    20    21   ar
     9    21    22   ar
    10    22    23   ar
    11    23    24   ar
    12     2     4   am
    13     4     5    1
    14     5     6    1
    15     6     7    1
    16     7    11    1
    17    11    12   ar
    18    12    13   ar
    19    13    14   ar
    20    14    15   ar
    21     7     8    1
    22     8     9    1
    23    18    16    1
    24    24    19   ar
    25     9     4    1
    26    15    11   ar
    27     3    10    1
@<TRIPOS>MOLECULE
*****
 24 27 0 0 0
SMALL
GASTEIGER

@<TRIPOS>ATOM
      1 O          -1.1918    2.3427   20.6253 O.2     1  UNL1       -0.2526
      2 C          -0.1526    2.3092   19.5441 C.2     1  UNL1        0.3039
      3 N          -0.1144    3.3918   18.5067 N.am    1  UNL1       -0.2901
      4 N           0.8485    1.1929   19.5005 N.am    1  UNL1       -0.2641
      5 C           0.8102    0.1102   20.5380 C.3     1  UNL1        0.0969
      6 C           1.8112   -1.0061   20.4943 C.3     1  UNL1        0.0459
      7 C           2.8505   -1.0396   19.4131 C.3     1  UNL1        0.1086
      8 C           2.8887    0.0430   18.3757 C.3     1  UNL1        0.0459
      9 C           1.8877    1.1593   18.4194 C.3     1  UNL1        0.0969
     10 H           0.5677    3.3698   17.7971 H       1  UNL1        0.1509
     11 N           3.8515   -2.1559   19.3694 N.ar    1  UNL1       -0.2512
     12 C           3.5459   -3.6056   19.1346 C.ar    1  UNL1        0.0966
     13 C           4.8394   -4.3641   19.1730 C.ar    1  UNL1        0.0427
     14 C           5.9444   -3.3833   19.4315 C.ar    1  UNL1        0.1217
     15 N           5.3339   -2.0186   19.5529 N.ar    1  UNL1       -0.1677
     16 C          -1.1154    4.5081   18.5504 C.3     1  UNL1        0.0774
     17 C          -1.4237    5.9752   18.6004 C.3     1  UNL1        0.0259
     18 C          -2.5408    4.9744   18.5760 C.3     1  UNL1        0.0420
     19 C          -4.0088    4.6658   18.5767 C.ar    1  UNL1       -0.0208
     20 C          -4.9300    5.4003   17.6484 C.ar    1  UNL1       -0.0042
     21 C          -6.3979    5.0917   17.6492 C.ar    1  UNL1       -0.0003
     22 C          -6.9445    4.0486   18.5782 C.ar    1  UNL1       -0.0000
     23 C          -6.0233    3.3141   19.5065 C.ar    1  UNL1       -0.0003
     24 C          -4.5554    3.6227   19.5058 C.ar    1  UNL1       -0.0042
@<TRIPOS>BOND
     1     1     2    2
     2     2     3   am
     3     3    16    1
     4    16    17    1
     5    17    18    1
     6    18    19    1
     7    19    20   ar
     8    20    21   ar
     9    21    22   ar
    10    22    23   ar
    11    23    24   ar
    12     2     4   am
    13     4     5    1
    14     5     6    1
    15     6     7    1
    16     7    11    1
    17    11    12   ar
    18    12    13   ar
    19    13    14   ar
    20    14    15   ar
    21     7     8    1
    22     8     9    1
    23    18    16    1
    24    24    19   ar
    25     9     4    1
    26    15    11   ar
    27     3    10    1
