@<TRIPOS>MOLECULE
*****
 33 38 0 0 0
SMALL
GASTEIGER

@<TRIPOS>ATOM
      1 C           5.7265   -1.3070   21.2725 C.3     1  UNL1        0.1412
      2 C           4.8059   -0.2177   21.7373 C.ar    1  UNL1       -0.0003
      3 C           4.9354    1.1657   21.1721 C.ar    1  UNL1        0.0006
      4 C           4.0148    2.2550   21.6369 C.ar    1  UNL1        0.0372
      5 C           2.9648    1.9608   22.6670 C.ar    1  UNL1        0.1454
      6 O           1.9228    2.8250   23.3131 O.2     1  UNL1       -0.4504
      7 C           1.1493    1.9756   24.2776 C.ar    1  UNL1        0.1796
      8 C           1.7133    0.5865   24.2276 C.ar    1  UNL1        0.0437
      9 C           2.8354    0.5774   23.2322 C.ar    1  UNL1        0.0374
     10 C           3.7559   -0.5118   22.7673 C.ar    1  UNL1        0.0006
     11 N           6.4702   -2.1389   22.2748 N.3     1  UNL1       -0.2630
     12 C           7.2799   -1.3763   23.2811 C.3     1  UNL1        0.0742
     13 C           8.1253   -1.9098   24.3994 C.3     1  UNL1        0.0347
     14 C           8.3697   -3.3379   24.7876 C.3     1  UNL1        0.0735
     15 N           7.8292   -4.5852   24.1534 N.3     1  UNL1       -0.2727
     16 C           6.9107   -4.7123   22.9744 C.3     1  UNL1        0.0896
     17 C           6.3059   -3.6237   22.1383 C.3     1  UNL1        0.0902
     18 C           8.2648   -5.8760   24.7814 C.3     1  UNL1        0.0575
     19 C           8.4206   -7.2888   24.3025 C.3     1  UNL1        0.0160
     20 C           8.8808   -7.7014   25.6693 C.3     1  UNL1        0.0028
     21 C           8.7249   -6.2884   26.1482 C.3     1  UNL1        0.0160
     22 N           4.8170   -1.9273   18.8367 N.ar    1  UNL1       -0.2108
     23 N           5.4397   -2.0911   17.4819 N.ar    1  UNL1       -0.0428
     24 N           6.9108   -1.8293   17.6133 N.ar    1  UNL1       -0.0229
     25 N           7.1973   -1.5037   19.0492 N.ar    1  UNL1       -0.1110
     26 C           5.9033   -1.5643   19.8054 C.ar    1  UNL1        0.1798
     27 C           3.3632   -2.0968   19.1652 C.3     1  UNL1        0.1570
     28 C           0.7093    1.5161   19.5569 C.ar    1  UNL1       -0.0000
     29 C           0.4335    0.2904   20.3765 C.ar    1  UNL1       -0.0003
     30 C           1.3181   -0.9139   20.2460 C.ar    1  UNL1       -0.0023
     31 C           2.4786   -0.8925   19.2958 C.ar    1  UNL1        0.0022
     32 C           2.7544    0.3331   18.4762 C.ar    1  UNL1       -0.0023
     33 C           1.8698    1.5374   18.6067 C.ar    1  UNL1       -0.0003
@<TRIPOS>BOND
     1    28    29   ar
     2    29    30   ar
     3    30    31   ar
     4    31    27    1
     5    27    22    1
     6    22    23   ar
     7    23    24   ar
     8    24    25   ar
     9    25    26   ar
    10    26     1    1
    11     1     2    1
    12     2     3   ar
    13     3     4   ar
    14     4     5   ar
    15     5     6   ar
    16     6     7   ar
    17     7     8   ar
    18     8     9   ar
    19     9    10   ar
    20     1    11    1
    21    11    12    1
    22    12    13    1
    23    13    14    1
    24    14    15    1
    25    15    18    1
    26    18    19    1
    27    19    20    1
    28    20    21    1
    29    15    16    1
    30    16    17    1
    31    31    32   ar
    32    32    33   ar
    33    33    28   ar
    34    26    22   ar
    35    10     2   ar
    36    17    11    1
    37     9     5   ar
    38    21    18    1
@<TRIPOS>MOLECULE
*****
 33 38 0 0 0
SMALL
GASTEIGER

@<TRIPOS>ATOM
      1 C           4.2671    0.2985   22.0132 C.3     1  UNL1        0.1412
      2 C           4.9127   -1.0529   22.0975 C.ar    1  UNL1       -0.0003
      3 C           4.1694   -2.2022   22.7111 C.ar    1  UNL1        0.0006
      4 C           4.8150   -3.5536   22.7954 C.ar    1  UNL1        0.0372
      5 C           6.2038   -3.7556   22.2660 C.ar    1  UNL1        0.1454
      6 O           7.0911   -4.9637   22.2111 O.2     1  UNL1       -0.4504
      7 C           8.3828   -4.5611   21.5636 C.ar    1  UNL1        0.1796
      8 C           8.2938   -3.1041   21.2182 C.ar    1  UNL1        0.0437
      9 C           6.9471   -2.6063   21.6523 C.ar    1  UNL1        0.0374
     10 C           6.3015   -1.2549   21.5680 C.ar    1  UNL1        0.0006
     11 N           3.3961    0.7848   23.1333 N.3     1  UNL1       -0.2630
     12 C           4.0645    0.9100   24.4703 C.3     1  UNL1        0.0742
     13 C           3.4738    1.3630   25.7726 C.3     1  UNL1        0.0347
     14 C           2.0686    1.8025   26.0595 C.3     1  UNL1        0.0735
     15 N           0.9072    1.8977   25.1149 N.3     1  UNL1       -0.2727
     16 C           0.8641    1.5769   23.6504 C.3     1  UNL1        0.0896
     17 C           1.9718    1.0816   22.7684 C.3     1  UNL1        0.0902
     18 C          -0.3815    2.3772   25.7145 C.3     1  UNL1        0.0575
     19 C          -1.5931    3.0910   25.1927 C.3     1  UNL1        0.0160
     20 C          -2.2040    3.0553   26.5621 C.3     1  UNL1        0.0028
     21 C          -0.9923    2.3414   27.0840 C.3     1  UNL1        0.0160
     22 N           3.9649    0.9078   19.4281 N.ar    1  UNL1       -0.2108
     23 N           4.4317    2.0224   18.5395 N.ar    1  UNL1       -0.0428
     24 N           5.2480    2.9671   19.3709 N.ar    1  UNL1       -0.0229
     25 N           5.2858    2.4363   20.7733 N.ar    1  UNL1       -0.1110
     26 C           4.4927    1.1636   20.8088 C.ar    1  UNL1        0.1798
     27 C           3.1188   -0.2580   19.0097 C.3     1  UNL1        0.1570
     28 C           4.9312   -4.3671   18.7276 C.ar    1  UNL1       -0.0000
     29 C           5.6783   -3.1798   18.1965 C.ar    1  UNL1       -0.0003
     30 C           5.0742   -1.8101   18.2905 C.ar    1  UNL1       -0.0023
     31 C           3.7229   -1.6277   18.9157 C.ar    1  UNL1        0.0022
     32 C           2.9758   -2.8150   19.4468 C.ar    1  UNL1       -0.0023
     33 C           3.5799   -4.1847   19.3528 C.ar    1  UNL1       -0.0003
@<TRIPOS>BOND
     1    28    29   ar
     2    29    30   ar
     3    30    31   ar
     4    31    27    1
     5    27    22    1
     6    22    23   ar
     7    23    24   ar
     8    24    25   ar
     9    25    26   ar
    10    26     1    1
    11     1     2    1
    12     2     3   ar
    13     3     4   ar
    14     4     5   ar
    15     5     6   ar
    16     6     7   ar
    17     7     8   ar
    18     8     9   ar
    19     9    10   ar
    20     1    11    1
    21    11    12    1
    22    12    13    1
    23    13    14    1
    24    14    15    1
    25    15    18    1
    26    18    19    1
    27    19    20    1
    28    20    21    1
    29    15    16    1
    30    16    17    1
    31    31    32   ar
    32    32    33   ar
    33    33    28   ar
    34    26    22   ar
    35    10     2   ar
    36    17    11    1
    37     9     5   ar
    38    21    18    1
@<TRIPOS>MOLECULE
*****
 33 38 0 0 0
SMALL
GASTEIGER

@<TRIPOS>ATOM
      1 C          -6.6293  -19.5539   20.8979 C.3     1  UNL1        0.1412
      2 C          -5.1488  -19.3965   20.7147 C.ar    1  UNL1       -0.0003
      3 C          -4.2007  -20.0444   21.6796 C.ar    1  UNL1        0.0006
      4 C          -2.7202  -19.8870   21.4964 C.ar    1  UNL1        0.0372
      5 C          -2.1880  -19.0818   20.3482 C.ar    1  UNL1        0.1454
      6 O          -0.7899  -18.7534   19.9154 O.2     1  UNL1       -0.4504
      7 C          -0.8740  -17.9026   18.6829 C.ar    1  UNL1        0.1796
      8 C          -2.3241  -17.7051   18.3540 C.ar    1  UNL1        0.0437
      9 C          -3.1362  -18.4339   19.3833 C.ar    1  UNL1        0.0374
     10 C          -4.6167  -18.5913   19.5665 C.ar    1  UNL1        0.0006
     11 N          -7.2900  -19.0393   22.1423 N.3     1  UNL1       -0.2630
     12 C          -8.3714  -19.9086   22.7121 C.3     1  UNL1        0.0742
     13 C          -9.2119  -19.6767   23.9328 C.3     1  UNL1        0.0347
     14 C          -9.1783  -18.5183   24.8851 C.3     1  UNL1        0.0735
     15 N          -8.2961  -17.3056   24.8519 N.3     1  UNL1       -0.2727
     16 C          -7.2296  -16.9519   23.8583 C.3     1  UNL1        0.0896
     17 C          -6.7818  -17.7234   22.6524 C.3     1  UNL1        0.0902
     18 C          -8.5086  -16.3158   25.9588 C.3     1  UNL1        0.0575
     19 C          -8.3562  -16.3442   27.4507 C.3     1  UNL1        0.0160
     20 C          -8.8091  -14.9161   27.5243 C.3     1  UNL1        0.0028
     21 C          -8.9615  -14.8877   26.0322 C.3     1  UNL1        0.0160
     22 N          -8.6614  -19.6530   19.1641 N.ar    1  UNL1       -0.2108
     23 N          -9.1620  -20.6617   18.1732 N.ar    1  UNL1       -0.0428
     24 N          -8.2591  -21.8580   18.2333 N.ar    1  UNL1       -0.0229
     25 N          -7.2005  -21.5886   19.2613 N.ar    1  UNL1       -0.1110
     26 C          -7.4491  -20.2258   19.8365 C.ar    1  UNL1        0.1798
     27 C          -9.2668  -18.3075   19.4350 C.3     1  UNL1        0.1570
     28 C         -12.2227  -17.8047   22.7904 C.ar    1  UNL1       -0.0000
     29 C         -12.2363  -19.0537   21.9598 C.ar    1  UNL1       -0.0003
     30 C         -11.2510  -19.2213   20.8413 C.ar    1  UNL1       -0.0023
     31 C         -10.2521  -18.1400   20.5534 C.ar    1  UNL1        0.0022
     32 C         -10.2385  -16.8910   21.3840 C.ar    1  UNL1       -0.0023
     33 C         -11.2238  -16.7234   22.5025 C.ar    1  UNL1       -0.0003
@<TRIPOS>BOND
     1    28    29   ar
     2    29    30   ar
     3    30    31   ar
     4    31    27    1
     5    27    22    1
     6    22    23   ar
     7    23    24   ar
     8    24    25   ar
     9    25    26   ar
    10    26     1    1
    11     1     2    1
    12     2     3   ar
    13     3     4   ar
    14     4     5   ar
    15     5     6   ar
    16     6     7   ar
    17     7     8   ar
    18     8     9   ar
    19     9    10   ar
    20     1    11    1
    21    11    12    1
    22    12    13    1
    23    13    14    1
    24    14    15    1
    25    15    18    1
    26    18    19    1
    27    19    20    1
    28    20    21    1
    29    15    16    1
    30    16    17    1
    31    31    32   ar
    32    32    33   ar
    33    33    28   ar
    34    26    22   ar
    35    10     2   ar
    36    17    11    1
    37     9     5   ar
    38    21    18    1
@<TRIPOS>MOLECULE
*****
 33 38 0 0 0
SMALL
GASTEIGER

@<TRIPOS>ATOM
      1 C           4.4551   -2.6619   21.7224 C.3     1  UNL1        0.1412
      2 C           3.9202   -1.3466   21.2386 C.ar    1  UNL1       -0.0003
      3 C           4.8254   -0.1535   21.1561 C.ar    1  UNL1        0.0006
      4 C           4.2905    1.1618   20.6723 C.ar    1  UNL1        0.0372
      5 C           2.8504    1.2838   20.2710 C.ar    1  UNL1        0.1454
      6 O           2.0456    2.4417   19.7596 O.2     1  UNL1       -0.4504
      7 C           0.6430    1.9641   19.5260 C.ar    1  UNL1        0.1796
      8 C           0.5809    0.5111   19.8931 C.ar    1  UNL1        0.0437
      9 C           1.9451    0.0906   20.3536 C.ar    1  UNL1        0.0374
     10 C           2.4800   -1.2246   20.8374 C.ar    1  UNL1        0.0006
     11 N           5.0413   -2.7727   23.0986 N.3     1  UNL1       -0.2630
     12 C           4.4972   -1.8151   24.1169 C.3     1  UNL1        0.0742
     13 C           4.8715   -1.6747   25.5626 C.3     1  UNL1        0.0347
     14 C           5.8824   -2.4573   26.3472 C.3     1  UNL1        0.0735
     15 N           6.7687   -3.5735   25.8798 N.3     1  UNL1       -0.2727
     16 C           6.8629   -4.1829   24.5124 C.3     1  UNL1        0.0896
     17 C           6.0942   -3.8265   23.2746 C.3     1  UNL1        0.0902
     18 C           7.6814   -4.1577   26.9170 C.3     1  UNL1        0.0575
     19 C           8.9404   -4.9722   26.8841 C.3     1  UNL1        0.0160
     20 C           8.9722   -4.9838   28.3837 C.3     1  UNL1        0.0028
     21 C           7.7131   -4.1691   28.4166 C.3     1  UNL1        0.0160
     22 N           5.2810   -4.1201   19.6399 N.ar    1  UNL1       -0.2108
     23 N           4.8855   -5.4391   19.0452 N.ar    1  UNL1       -0.0428
     24 N           3.7637   -6.0007   19.8676 N.ar    1  UNL1       -0.0229
     25 N           3.4659   -5.0287   20.9706 N.ar    1  UNL1       -0.1110
     26 C           4.4037   -3.8664   20.8299 C.ar    1  UNL1        0.1798
     27 C           6.3637   -3.2138   19.1336 C.3     1  UNL1        0.1570
     28 C           5.2955    0.4834   16.8015 C.ar    1  UNL1       -0.0000
     29 C           4.2674   -0.5858   17.0245 C.ar    1  UNL1       -0.0003
     30 C           4.6234   -1.8183   17.8019 C.ar    1  UNL1       -0.0023
     31 C           6.0076   -1.9815   18.3562 C.ar    1  UNL1        0.0022
     32 C           7.0358   -0.9123   18.1332 C.ar    1  UNL1       -0.0023
     33 C           6.6797    0.3202   17.3558 C.ar    1  UNL1       -0.0003
@<TRIPOS>BOND
     1    28    29   ar
     2    29    30   ar
     3    30    31   ar
     4    31    27    1
     5    27    22    1
     6    22    23   ar
     7    23    24   ar
     8    24    25   ar
     9    25    26   ar
    10    26     1    1
    11     1     2    1
    12     2     3   ar
    13     3     4   ar
    14     4     5   ar
    15     5     6   ar
    16     6     7   ar
    17     7     8   ar
    18     8     9   ar
    19     9    10   ar
    20     1    11    1
    21    11    12    1
    22    12    13    1
    23    13    14    1
    24    14    15    1
    25    15    18    1
    26    18    19    1
    27    19    20    1
    28    20    21    1
    29    15    16    1
    30    16    17    1
    31    31    32   ar
    32    32    33   ar
    33    33    28   ar
    34    26    22   ar
    35    10     2   ar
    36    17    11    1
    37     9     5   ar
    38    21    18    1
@<TRIPOS>MOLECULE
*****
 33 38 0 0 0
SMALL
GASTEIGER

@<TRIPOS>ATOM
      1 C           2.3087    0.3603   22.3174 C.3     1  UNL1        0.1412
      2 C           3.0218   -0.9110   21.9633 C.ar    1  UNL1       -0.0003
      3 C           3.8554   -1.6151   22.9925 C.ar    1  UNL1        0.0006
      4 C           4.5684   -2.8864   22.6384 C.ar    1  UNL1        0.0372
      5 C           4.4478   -3.4536   21.2551 C.ar    1  UNL1        0.1454
      6 O           5.0307   -4.6807   20.6191 O.2     1  UNL1       -0.4504
      7 C           4.5573   -4.7350   19.1968 C.ar    1  UNL1        0.1796
      8 C           3.6818   -3.5415   18.9537 C.ar    1  UNL1        0.0437
      9 C           3.6142   -2.7496   20.2258 C.ar    1  UNL1        0.0374
     10 C           2.9012   -1.4783   20.5800 C.ar    1  UNL1        0.0006
     11 N           2.4868    0.9662   23.6779 N.3     1  UNL1       -0.2630
     12 C           3.8005    1.6487   23.9196 C.3     1  UNL1        0.0742
     13 C           4.2795    2.3431   25.1599 C.3     1  UNL1        0.0347
     14 C           3.5631    2.5264   26.4649 C.3     1  UNL1        0.0735
     15 N           2.1907    2.0607   26.8519 N.3     1  UNL1       -0.2727
     16 C           1.1959    1.2966   26.0295 C.3     1  UNL1        0.0896
     17 C           1.3276    0.8095   24.6169 C.3     1  UNL1        0.0902
     18 C           1.7558    2.4046   28.2457 C.3     1  UNL1        0.0575
     19 C           2.2093    3.3844   29.2869 C.3     1  UNL1        0.0160
     20 C           1.1408    2.8910   30.2168 C.3     1  UNL1        0.0028
     21 C           0.6872    1.9110   29.1756 C.3     1  UNL1        0.0160
     22 N           1.8673    1.8887   20.1693 N.ar    1  UNL1       -0.2108
     23 N           0.6480    2.3413   19.4220 N.ar    1  UNL1       -0.0428
     24 N          -0.5553    1.7579   20.1016 N.ar    1  UNL1       -0.0229
     25 N          -0.0796    0.9448   21.2690 N.ar    1  UNL1       -0.1110
     26 C           1.4176    1.0257   21.3108 C.ar    1  UNL1        0.1798
     27 C           3.2870    2.2379   19.8340 C.3     1  UNL1        0.1570
     28 C           5.8943   -0.7458   17.7012 C.ar    1  UNL1       -0.0000
     29 C           4.5644   -0.3630   17.1224 C.ar    1  UNL1       -0.0003
     30 C           3.6953    0.6316   17.8333 C.ar    1  UNL1       -0.0023
     31 C           4.1560    1.2434   19.1230 C.ar    1  UNL1        0.0022
     32 C           5.4859    0.8605   19.7019 C.ar    1  UNL1       -0.0023
     33 C           6.3550   -0.1341   18.9910 C.ar    1  UNL1       -0.0003
@<TRIPOS>BOND
     1    28    29   ar
     2    29    30   ar
     3    30    31   ar
     4    31    27    1
     5    27    22    1
     6    22    23   ar
     7    23    24   ar
     8    24    25   ar
     9    25    26   ar
    10    26     1    1
    11     1     2    1
    12     2     3   ar
    13     3     4   ar
    14     4     5   ar
    15     5     6   ar
    16     6     7   ar
    17     7     8   ar
    18     8     9   ar
    19     9    10   ar
    20     1    11    1
    21    11    12    1
    22    12    13    1
    23    13    14    1
    24    14    15    1
    25    15    18    1
    26    18    19    1
    27    19    20    1
    28    20    21    1
    29    15    16    1
    30    16    17    1
    31    31    32   ar
    32    32    33   ar
    33    33    28   ar
    34    26    22   ar
    35    10     2   ar
    36    17    11    1
    37     9     5   ar
    38    21    18    1
@<TRIPOS>MOLECULE
*****
 33 38 0 0 0
SMALL
GASTEIGER

@<TRIPOS>ATOM
      1 C           5.7369   -1.6181   21.4575 C.3     1  UNL1        0.1412
      2 C           6.5404   -2.3973   22.4562 C.ar    1  UNL1       -0.0003
      3 C           6.5694   -3.8955   22.3904 C.ar    1  UNL1        0.0006
      4 C           7.3730   -4.6748   23.3891 C.ar    1  UNL1        0.0372
      5 C           8.1475   -3.9556   24.4534 C.ar    1  UNL1        0.1454
      6 O           9.0229   -4.4516   25.5659 O.2     1  UNL1       -0.4504
      7 C           9.5349   -3.2598   26.3192 C.ar    1  UNL1        0.1796
      8 C           8.9760   -2.0273   25.6723 C.ar    1  UNL1        0.0437
      9 C           8.1184   -2.4573   24.5192 C.ar    1  UNL1        0.0374
     10 C           7.3149   -1.6782   23.5205 C.ar    1  UNL1        0.0006
     11 N           4.7356   -0.6049   21.9272 N.3     1  UNL1       -0.2630
     12 C           4.8702    0.7664   21.3344 C.3     1  UNL1        0.0742
     13 C           4.0345    1.9844   21.5956 C.3     1  UNL1        0.0347
     14 C           2.8578    2.1318   22.5140 C.3     1  UNL1        0.0735
     15 N           2.2262    1.0977   23.3982 N.3     1  UNL1       -0.2727
     16 C           2.6152   -0.3391   23.5822 C.3     1  UNL1        0.0896
     17 C           3.7320   -1.0969   22.9276 C.3     1  UNL1        0.0902
     18 C           1.0499    1.5620   24.2050 C.3     1  UNL1        0.0575
     19 C          -0.0711    2.5336   23.9833 C.3     1  UNL1        0.0160
     20 C          -0.6136    2.2188   25.3458 C.3     1  UNL1        0.0028
     21 C           0.5075    1.2471   25.5676 C.3     1  UNL1        0.0160
     22 N           4.8546   -2.1395   18.9887 N.ar    1  UNL1       -0.2108
     23 N           5.4998   -2.3050   17.6447 N.ar    1  UNL1       -0.0428
     24 N           6.9786   -2.1200   17.8145 N.ar    1  UNL1       -0.0229
     25 N           7.2474   -1.8402   19.2634 N.ar    1  UNL1       -0.1110
     26 C           5.9348   -1.8522   19.9892 C.ar    1  UNL1        0.1798
     27 C           3.3870   -2.2432   19.2810 C.3     1  UNL1        0.1570
     28 C           0.8268    1.4574   19.2829 C.ar    1  UNL1       -0.0000
     29 C           0.4983    0.3177   20.2011 C.ar    1  UNL1       -0.0003
     30 C           1.3517   -0.9159   20.2005 C.ar    1  UNL1       -0.0023
     31 C           2.5336   -1.0097   19.2817 C.ar    1  UNL1        0.0022
     32 C           2.8621    0.1301   18.3635 C.ar    1  UNL1       -0.0023
     33 C           2.0087    1.3636   18.3641 C.ar    1  UNL1       -0.0003
@<TRIPOS>BOND
     1    28    29   ar
     2    29    30   ar
     3    30    31   ar
     4    31    27    1
     5    27    22    1
     6    22    23   ar
     7    23    24   ar
     8    24    25   ar
     9    25    26   ar
    10    26     1    1
    11     1     2    1
    12     2     3   ar
    13     3     4   ar
    14     4     5   ar
    15     5     6   ar
    16     6     7   ar
    17     7     8   ar
    18     8     9   ar
    19     9    10   ar
    20     1    11    1
    21    11    12    1
    22    12    13    1
    23    13    14    1
    24    14    15    1
    25    15    18    1
    26    18    19    1
    27    19    20    1
    28    20    21    1
    29    15    16    1
    30    16    17    1
    31    31    32   ar
    32    32    33   ar
    33    33    28   ar
    34    26    22   ar
    35    10     2   ar
    36    17    11    1
    37     9     5   ar
    38    21    18    1
@<TRIPOS>MOLECULE
*****
 33 38 0 0 0
SMALL
GASTEIGER

@<TRIPOS>ATOM
      1 C           1.3655    1.9720   24.0202 C.3     1  UNL1        0.1412
      2 C           1.1156    1.4478   25.4033 C.ar    1  UNL1       -0.0003
      3 C          -0.2848    1.3724   25.9351 C.ar    1  UNL1        0.0006
      4 C          -0.5347    0.8482   27.3182 C.ar    1  UNL1        0.0372
      5 C           0.6160    0.3996   28.1694 C.ar    1  UNL1        0.1454
      6 O           0.6778   -0.1579   29.5606 O.2     1  UNL1       -0.4504
      7 C           2.1166   -0.4270   29.8885 C.ar    1  UNL1        0.1796
      8 C           2.9439   -0.0358   28.7000 C.ar    1  UNL1        0.0437
      9 C           2.0165    0.4750   27.6375 C.ar    1  UNL1        0.0374
     10 C           2.2663    0.9991   26.2545 C.ar    1  UNL1        0.0006
     11 N           1.6168    1.0177   22.8905 N.3     1  UNL1       -0.2630
     12 C           0.5410    0.9457   21.8478 C.3     1  UNL1        0.0742
     13 C           0.4933    0.0998   20.6099 C.3     1  UNL1        0.0347
     14 C           1.5098   -0.8829   20.1092 C.3     1  UNL1        0.0735
     15 N           2.8250   -1.2626   20.7225 N.3     1  UNL1       -0.2727
     16 C           3.4485   -0.7532   21.9880 C.3     1  UNL1        0.0896
     17 C           2.9108    0.2616   22.9529 C.3     1  UNL1        0.0902
     18 C           3.6221   -2.2871   19.9707 C.3     1  UNL1        0.0575
     19 C           5.0554   -2.4143   19.5476 C.3     1  UNL1        0.0160
     20 C           4.7493   -3.7359   18.9076 C.3     1  UNL1        0.0028
     21 C           3.3158   -3.6087   19.3307 C.3     1  UNL1        0.0160
     22 N           0.1640    4.2870   23.4351 N.ar    1  UNL1       -0.2108
     23 N           0.6206    5.7054   23.2640 N.ar    1  UNL1       -0.0428
     24 N           2.1030    5.7456   23.4900 N.ar    1  UNL1       -0.0229
     25 N           2.5624    4.3519   23.8008 N.ar    1  UNL1       -0.1110
     26 C           1.3641    3.4504   23.7668 C.ar    1  UNL1        0.1798
     27 C          -1.2454    3.7919   23.2984 C.3     1  UNL1        0.1570
     28 C          -4.1543    4.3199   26.6909 C.ar    1  UNL1       -0.0000
     29 C          -4.6003    3.6699   25.4147 C.ar    1  UNL1       -0.0003
     30 C          -3.6307    3.4938   24.2839 C.ar    1  UNL1       -0.0023
     31 C          -2.2150    3.9678   24.4292 C.ar    1  UNL1        0.0022
     32 C          -1.7690    4.6179   25.7053 C.ar    1  UNL1       -0.0023
     33 C          -2.7386    4.7939   26.8362 C.ar    1  UNL1       -0.0003
@<TRIPOS>BOND
     1    28    29   ar
     2    29    30   ar
     3    30    31   ar
     4    31    27    1
     5    27    22    1
     6    22    23   ar
     7    23    24   ar
     8    24    25   ar
     9    25    26   ar
    10    26     1    1
    11     1     2    1
    12     2     3   ar
    13     3     4   ar
    14     4     5   ar
    15     5     6   ar
    16     6     7   ar
    17     7     8   ar
    18     8     9   ar
    19     9    10   ar
    20     1    11    1
    21    11    12    1
    22    12    13    1
    23    13    14    1
    24    14    15    1
    25    15    18    1
    26    18    19    1
    27    19    20    1
    28    20    21    1
    29    15    16    1
    30    16    17    1
    31    31    32   ar
    32    32    33   ar
    33    33    28   ar
    34    26    22   ar
    35    10     2   ar
    36    17    11    1
    37     9     5   ar
    38    21    18    1
@<TRIPOS>MOLECULE
*****
 33 38 0 0 0
SMALL
GASTEIGER

@<TRIPOS>ATOM
      1 C           4.6196   -0.3799   23.4626 C.3     1  UNL1        0.1412
      2 C           4.1729   -0.4554   22.0326 C.ar    1  UNL1       -0.0003
      3 C           2.7803   -0.9057   21.7047 C.ar    1  UNL1        0.0006
      4 C           2.3336   -0.9813   20.2747 C.ar    1  UNL1        0.0372
      5 C           3.2796   -0.6064   19.1727 C.ar    1  UNL1        0.1454
      6 O           3.1234   -0.5813   17.6811 O.2     1  UNL1       -0.4504
      7 C           4.4197   -0.1154   17.0871 C.ar    1  UNL1        0.1796
      8 C           5.3769    0.1474   18.2117 C.ar    1  UNL1        0.0437
      9 C           4.6723   -0.1561   19.5006 C.ar    1  UNL1        0.0374
     10 C           5.1190   -0.0806   20.9306 C.ar    1  UNL1        0.0006
     11 N           3.7875    0.3561   24.4704 N.3     1  UNL1       -0.2630
     12 C           3.2841    1.7021   24.0405 C.3     1  UNL1        0.0742
     13 C           2.4377    2.6733   24.8089 C.3     1  UNL1        0.0347
     14 C           1.8856    2.5383   26.1970 C.3     1  UNL1        0.0735
     15 N           2.0436    1.3987   27.1596 N.3     1  UNL1       -0.2727
     16 C           2.7927    0.1129   26.9718 C.3     1  UNL1        0.0896
     17 C           3.5688   -0.3512   25.7750 C.3     1  UNL1        0.0902
     18 C           1.3623    1.5675   28.4853 C.3     1  UNL1        0.0575
     19 C           0.4566    0.7193   29.3279 C.3     1  UNL1        0.0160
     20 C           0.3989    1.8061   30.3601 C.3     1  UNL1        0.0028
     21 C           1.3048    2.6544   29.5175 C.3     1  UNL1        0.0160
     22 N           6.2230   -2.4989   23.7523 N.ar    1  UNL1       -0.2108
     23 N           7.6025   -2.7184   24.2990 N.ar    1  UNL1       -0.0428
     24 N           8.1306   -1.3955   24.7692 N.ar    1  UNL1       -0.0229
     25 N           7.0775   -0.3584   24.5131 N.ar    1  UNL1       -0.1110
     26 C           5.8985   -1.0404   23.8846 C.ar    1  UNL1        0.1798
     27 C           5.3255   -3.5530   23.1747 C.3     1  UNL1        0.1570
     28 C           4.9500   -3.9895   18.7118 C.ar    1  UNL1       -0.0000
     29 C           6.2077   -3.4296   19.3074 C.ar    1  UNL1       -0.0003
     30 C           6.3329   -3.2841   20.7951 C.ar    1  UNL1       -0.0023
     31 C           5.2004   -3.6985   21.6871 C.ar    1  UNL1        0.0022
     32 C           3.9427   -4.2584   21.0915 C.ar    1  UNL1       -0.0023
     33 C           3.8175   -4.4039   19.6038 C.ar    1  UNL1       -0.0003
@<TRIPOS>BOND
     1    28    29   ar
     2    29    30   ar
     3    30    31   ar
     4    31    27    1
     5    27    22    1
     6    22    23   ar
     7    23    24   ar
     8    24    25   ar
     9    25    26   ar
    10    26     1    1
    11     1     2    1
    12     2     3   ar
    13     3     4   ar
    14     4     5   ar
    15     5     6   ar
    16     6     7   ar
    17     7     8   ar
    18     8     9   ar
    19     9    10   ar
    20     1    11    1
    21    11    12    1
    22    12    13    1
    23    13    14    1
    24    14    15    1
    25    15    18    1
    26    18    19    1
    27    19    20    1
    28    20    21    1
    29    15    16    1
    30    16    17    1
    31    31    32   ar
    32    32    33   ar
    33    33    28   ar
    34    26    22   ar
    35    10     2   ar
    36    17    11    1
    37     9     5   ar
    38    21    18    1
@<TRIPOS>MOLECULE
*****
 33 38 0 0 0
SMALL
GASTEIGER

@<TRIPOS>ATOM
      1 C           5.9992   -1.3802   24.2677 C.3     1  UNL1        0.1412
      2 C           5.6432   -2.0475   22.9722 C.ar    1  UNL1       -0.0003
      3 C           4.7352   -3.2413   22.9682 C.ar    1  UNL1        0.0006
      4 C           4.3793   -3.9086   21.6727 C.ar    1  UNL1        0.0372
      5 C           4.9314   -3.3819   20.3813 C.ar    1  UNL1        0.1454
      6 O           4.7586   -3.8280   18.9597 O.2     1  UNL1       -0.4504
      7 C           5.5598   -2.9098   18.0851 C.ar    1  UNL1        0.1796
      8 C           6.2279   -1.8962   18.9662 C.ar    1  UNL1        0.0437
      9 C           5.8395   -2.1880   20.3854 C.ar    1  UNL1        0.0374
     10 C           6.1954   -1.5208   21.6808 C.ar    1  UNL1        0.0006
     11 N           6.4839   -2.2010   25.4257 N.3     1  UNL1       -0.2630
     12 C           7.7155   -3.0192   25.1733 C.3     1  UNL1        0.0742
     13 C           8.4403   -3.9336   26.1160 C.3     1  UNL1        0.0347
     14 C           8.1125   -4.2556   27.5438 C.3     1  UNL1        0.0735
     15 N           6.9790   -3.7428   28.3817 N.3     1  UNL1       -0.2727
     16 C           5.8933   -2.7813   27.9987 C.3     1  UNL1        0.0896
     17 C           5.6729   -2.0952   26.6832 C.3     1  UNL1        0.0902
     18 C           6.9239   -4.2599   29.7888 C.3     1  UNL1        0.0575
     19 C           6.9395   -5.6204   30.4200 C.3     1  UNL1        0.0160
     20 C           6.8461   -4.9913   31.7785 C.3     1  UNL1        0.0028
     21 C           6.8305   -3.6306   31.1472 C.3     1  UNL1        0.0160
     22 N           4.6721    0.9277   24.0277 N.ar    1  UNL1       -0.2108
     23 N           4.9784    2.3640   24.3331 N.ar    1  UNL1       -0.0428
     24 N           6.3658    2.4319   24.8990 N.ar    1  UNL1       -0.0229
     25 N           6.9171    1.0376   24.9434 N.ar    1  UNL1       -0.1110
     26 C           5.8704    0.1079   24.4049 C.ar    1  UNL1        0.1798
     27 C           3.3924    0.4032   23.4470 C.3     1  UNL1        0.1570
     28 C           2.9561   -0.0320   18.9895 C.ar    1  UNL1       -0.0000
     29 C           3.8475    1.0334   19.5554 C.ar    1  UNL1       -0.0003
     30 C           3.9930    1.1785   21.0412 C.ar    1  UNL1       -0.0023
     31 C           3.2470    0.2582   21.9612 C.ar    1  UNL1        0.0022
     32 C           2.3555   -0.8072   21.3954 C.ar    1  UNL1       -0.0023
     33 C           2.2100   -0.9523   19.9095 C.ar    1  UNL1       -0.0003
@<TRIPOS>BOND
     1    28    29   ar
     2    29    30   ar
     3    30    31   ar
     4    31    27    1
     5    27    22    1
     6    22    23   ar
     7    23    24   ar
     8    24    25   ar
     9    25    26   ar
    10    26     1    1
    11     1     2    1
    12     2     3   ar
    13     3     4   ar
    14     4     5   ar
    15     5     6   ar
    16     6     7   ar
    17     7     8   ar
    18     8     9   ar
    19     9    10   ar
    20     1    11    1
    21    11    12    1
    22    12    13    1
    23    13    14    1
    24    14    15    1
    25    15    18    1
    26    18    19    1
    27    19    20    1
    28    20    21    1
    29    15    16    1
    30    16    17    1
    31    31    32   ar
    32    32    33   ar
    33    33    28   ar
    34    26    22   ar
    35    10     2   ar
    36    17    11    1
    37     9     5   ar
    38    21    18    1
