@<TRIPOS>MOLECULE
*****
 13 14 0 0 0
SMALL
GASTEIGER

@<TRIPOS>ATOM
      1 C          -9.1475  -16.4435   23.3988 C.ar    1  UNL1        0.0250
      2 C          -9.0603  -15.7498   24.7258 C.ar    1  UNL1        0.0060
      3 C          -7.7215  -15.3797   25.2920 C.ar    1  UNL1        0.0497
      4 C          -6.4699  -15.7033   24.5311 C.ar    1  UNL1        0.2223
      5 F          -5.1311  -15.3332   25.0974 F       1  UNL1       -0.1832
      6 N          -6.5572  -16.3971   23.2041 N.ar    1  UNL1       -0.2164
      7 C          -7.8960  -16.7671   22.6379 C.ar    1  UNL1        0.1017
      8 C         -11.1327  -18.7721   24.5329 C.3     1  UNL1        0.0316
      9 C         -11.3988  -17.8840   23.3538 C.ar    1  UNL1       -0.0153
     10 C         -12.6241  -17.9102   22.4890 C.ar    1  UNL1        0.0032
     11 C         -12.4690  -16.8561   21.4331 C.ar    1  UNL1        0.0351
     12 S         -11.1478  -16.1784   21.6455 S.2     1  UNL1       -0.0867
     13 C         -10.4864  -16.8136   22.8325 C.ar    1  UNL1        0.0270
@<TRIPOS>BOND
     1     8     9    1
     2     9    10   ar
     3    10    11   ar
     4    11    12   ar
     5    12    13   ar
     6    13     1    1
     7     1     2   ar
     8     2     3   ar
     9     3     4   ar
    10     4     5    1
    11     4     6   ar
    12     6     7   ar
    13    13     9   ar
    14     7     1   ar
@<TRIPOS>MOLECULE
*****
 13 14 0 0 0
SMALL
GASTEIGER

@<TRIPOS>ATOM
      1 C          -9.1281  -16.7673   24.3280 C.ar    1  UNL1        0.0250
      2 C          -9.9754  -16.0911   23.2914 C.ar    1  UNL1        0.0060
      3 C         -11.3133  -16.6629   22.9267 C.ar    1  UNL1        0.0497
      4 C         -11.8039  -17.9110   23.5987 C.ar    1  UNL1        0.2223
      5 F         -13.1419  -18.4829   23.2340 F       1  UNL1       -0.1832
      6 N         -10.9566  -18.5873   24.6354 N.ar    1  UNL1       -0.2164
      7 C          -9.6187  -18.0154   25.0000 C.ar    1  UNL1        0.1017
      8 C          -8.2800  -15.5820   27.2479 C.3     1  UNL1        0.0316
      9 C          -7.4004  -15.6507   26.0348 C.ar    1  UNL1       -0.0153
     10 C          -5.9765  -15.1866   25.9509 C.ar    1  UNL1        0.0032
     11 C          -5.4862  -15.4445   24.5569 C.ar    1  UNL1        0.0351
     12 S          -6.6072  -16.0681   23.7794 S.2     1  UNL1       -0.0867
     13 C          -7.7902  -16.1955   24.6928 C.ar    1  UNL1        0.0270
@<TRIPOS>BOND
     1     8     9    1
     2     9    10   ar
     3    10    11   ar
     4    11    12   ar
     5    12    13   ar
     6    13     1    1
     7     1     2   ar
     8     2     3   ar
     9     3     4   ar
    10     4     5    1
    11     4     6   ar
    12     6     7   ar
    13    13     9   ar
    14     7     1   ar
@<TRIPOS>MOLECULE
*****
 13 14 0 0 0
SMALL
GASTEIGER

@<TRIPOS>ATOM
      1 C          -8.9016  -18.2118   22.1930 C.ar    1  UNL1        0.0250
      2 C          -8.4003  -19.6076   21.9686 C.ar    1  UNL1        0.0060
      3 C          -6.9302  -19.8969   22.0393 C.ar    1  UNL1        0.0497
      4 C          -5.9614  -18.7904   22.3343 C.ar    1  UNL1        0.2223
      5 F          -4.4912  -19.0798   22.4050 F       1  UNL1       -0.1832
      6 N          -6.4627  -17.3946   22.5587 N.ar    1  UNL1       -0.2164
      7 C          -7.9328  -17.1053   22.4880 C.ar    1  UNL1        0.1017
      8 C         -11.1052  -18.8996   24.4997 C.3     1  UNL1        0.0316
      9 C         -11.3846  -18.2386   23.1826 C.ar    1  UNL1       -0.0153
     10 C         -12.7259  -17.7776   22.6945 C.ar    1  UNL1        0.0032
     11 C         -12.5422  -17.1765   21.3325 C.ar    1  UNL1        0.0351
     12 S         -11.0872  -17.2660   20.9789 S.2     1  UNL1       -0.0867
     13 C         -10.3718  -17.9224   22.1223 C.ar    1  UNL1        0.0270
@<TRIPOS>BOND
     1     8     9    1
     2     9    10   ar
     3    10    11   ar
     4    11    12   ar
     5    12    13   ar
     6    13     1    1
     7     1     2   ar
     8     2     3   ar
     9     3     4   ar
    10     4     5    1
    11     4     6   ar
    12     6     7   ar
    13    13     9   ar
    14     7     1   ar
@<TRIPOS>MOLECULE
*****
 13 14 0 0 0
SMALL
GASTEIGER

@<TRIPOS>ATOM
      1 C         -10.3107  -18.5233   22.2663 C.ar    1  UNL1        0.0250
      2 C         -11.3912  -17.7783   21.5400 C.ar    1  UNL1        0.0060
      3 C         -12.7086  -17.5250   22.2110 C.ar    1  UNL1        0.0497
      4 C         -12.9455  -18.0166   23.6082 C.ar    1  UNL1        0.2223
      5 F         -14.2630  -17.7632   24.2791 F       1  UNL1       -0.1832
      6 N         -11.8650  -18.7615   24.3344 N.ar    1  UNL1       -0.2164
      7 C         -10.5476  -19.0149   23.6635 C.ar    1  UNL1        0.1017
      8 C          -9.8863  -19.7975   19.2920 C.3     1  UNL1        0.0316
      9 C          -8.7981  -19.3623   20.2283 C.ar    1  UNL1       -0.0153
     10 C          -7.3239  -19.4365   19.9618 C.ar    1  UNL1        0.0032
     11 C          -6.6077  -18.8966   21.1642 C.ar    1  UNL1        0.0351
     12 S          -7.6394  -18.4888   22.1738 S.2     1  UNL1       -0.0867
     13 C          -8.9932  -18.7767   21.5953 C.ar    1  UNL1        0.0270
@<TRIPOS>BOND
     1     8     9    1
     2     9    10   ar
     3    10    11   ar
     4    11    12   ar
     5    12    13   ar
     6    13     1    1
     7     1     2   ar
     8     2     3   ar
     9     3     4   ar
    10     4     5    1
    11     4     6   ar
    12     6     7   ar
    13    13     9   ar
    14     7     1   ar
@<TRIPOS>MOLECULE
*****
 13 14 0 0 0
SMALL
GASTEIGER

@<TRIPOS>ATOM
      1 C          -9.3126  -17.2574   24.4988 C.ar    1  UNL1        0.0250
      2 C          -9.4240  -17.6378   25.9454 C.ar    1  UNL1        0.0060
      3 C          -8.6150  -16.9088   26.9770 C.ar    1  UNL1        0.0497
      4 C          -7.6946  -15.7995   26.5618 C.ar    1  UNL1        0.2223
      5 F          -6.8855  -15.0706   27.5934 F       1  UNL1       -0.1832
      6 N          -7.5831  -15.4192   25.1152 N.ar    1  UNL1       -0.2164
      7 C          -8.3921  -16.1481   24.0836 C.ar    1  UNL1        0.1017
      8 C          -9.2191  -20.4645   23.9023 C.3     1  UNL1        0.0316
      9 C         -10.0786  -19.4605   23.1930 C.ar    1  UNL1       -0.0153
     10 C         -11.0460  -19.7543   22.0850 C.ar    1  UNL1        0.0032
     11 C         -11.6870  -18.4618   21.6743 C.ar    1  UNL1        0.0351
     12 S         -11.1156  -17.3692   22.5285 S.2     1  UNL1       -0.0867
     13 C         -10.1216  -17.9864   23.4671 C.ar    1  UNL1        0.0270
@<TRIPOS>BOND
     1     8     9    1
     2     9    10   ar
     3    10    11   ar
     4    11    12   ar
     5    12    13   ar
     6    13     1    1
     7     1     2   ar
     8     2     3   ar
     9     3     4   ar
    10     4     5    1
    11     4     6   ar
    12     6     7   ar
    13    13     9   ar
    14     7     1   ar
@<TRIPOS>MOLECULE
*****
 13 14 0 0 0
SMALL
GASTEIGER

@<TRIPOS>ATOM
      1 C          -9.3308  -18.4684   21.4738 C.ar    1  UNL1        0.0250
      2 C          -9.2230  -19.3386   20.2569 C.ar    1  UNL1        0.0060
      3 C          -7.8799  -19.6139   19.6484 C.ar    1  UNL1        0.0497
      4 C          -6.6447  -19.0190   20.2568 C.ar    1  UNL1        0.2223
      5 F          -5.3015  -19.2943   19.6482 F       1  UNL1       -0.1832
      6 N          -6.7525  -18.1487   21.4737 N.ar    1  UNL1       -0.2164
      7 C          -8.0955  -17.8734   22.0822 C.ar    1  UNL1        0.1017
      8 C         -11.6439  -16.5360   20.2228 C.3     1  UNL1        0.0316
      9 C         -11.7371  -17.3048   21.5074 C.ar    1  UNL1       -0.0153
     10 C         -12.9098  -17.3204   22.4424 C.ar    1  UNL1        0.0032
     11 C         -12.5715  -18.2183   23.5955 C.ar    1  UNL1        0.0351
     12 S         -11.1896  -18.7576   23.3729 S.2     1  UNL1       -0.0867
     13 C         -10.6739  -18.1930   22.0824 C.ar    1  UNL1        0.0270
@<TRIPOS>BOND
     1     8     9    1
     2     9    10   ar
     3    10    11   ar
     4    11    12   ar
     5    12    13   ar
     6    13     1    1
     7     1     2   ar
     8     2     3   ar
     9     3     4   ar
    10     4     5    1
    11     4     6   ar
    12     6     7   ar
    13    13     9   ar
    14     7     1   ar
@<TRIPOS>MOLECULE
*****
 13 14 0 0 0
SMALL
GASTEIGER

@<TRIPOS>ATOM
      1 C          -7.3307  -19.3686   21.3663 C.ar    1  UNL1        0.0250
      2 C          -6.5863  -20.3317   20.4899 C.ar    1  UNL1        0.0060
      3 C          -5.0864  -20.3277   20.4760 C.ar    1  UNL1        0.0497
      4 C          -4.3309  -19.3605   21.3384 C.ar    1  UNL1        0.2223
      5 F          -2.8310  -19.3565   21.3244 F       1  UNL1       -0.1832
      6 N          -5.0754  -18.3973   22.2148 N.ar    1  UNL1       -0.2164
      7 C          -6.5753  -18.4014   22.2288 C.ar    1  UNL1        0.1017
      8 C          -9.2235  -20.3916   23.8200 C.3     1  UNL1        0.0316
      9 C          -9.7007  -19.8428   22.5081 C.ar    1  UNL1       -0.0153
     10 C         -11.1317  -19.6679   22.0937 C.ar    1  UNL1        0.0032
     11 C         -11.1461  -19.0895   20.7097 C.ar    1  UNL1        0.0351
     12 S          -9.7240  -18.9070   20.2688 S.2     1  UNL1       -0.0867
     13 C          -8.8307  -19.3726   21.3803 C.ar    1  UNL1        0.0270
@<TRIPOS>BOND
     1     8     9    1
     2     9    10   ar
     3    10    11   ar
     4    11    12   ar
     5    12    13   ar
     6    13     1    1
     7     1     2   ar
     8     2     3   ar
     9     3     4   ar
    10     4     5    1
    11     4     6   ar
    12     6     7   ar
    13    13     9   ar
    14     7     1   ar
@<TRIPOS>MOLECULE
*****
 13 14 0 0 0
SMALL
GASTEIGER

@<TRIPOS>ATOM
      1 C          -8.3919  -16.3295   23.8659 C.ar    1  UNL1        0.0250
      2 C          -9.3718  -17.4561   24.0084 C.ar    1  UNL1        0.0060
      3 C         -10.1916  -17.8906   22.8298 C.ar    1  UNL1        0.0497
      4 C         -10.0314  -17.1984   21.5087 C.ar    1  UNL1        0.2223
      5 F         -10.8513  -17.6330   20.3301 F       1  UNL1       -0.1832
      6 N          -9.0515  -16.0718   21.3662 N.ar    1  UNL1       -0.2164
      7 C          -8.2317  -15.6373   22.5448 C.ar    1  UNL1        0.1017
      8 C          -5.1866  -15.7165   23.8517 C.3     1  UNL1        0.0316
      9 C          -6.0988  -15.6132   25.0380 C.ar    1  UNL1       -0.0153
     10 C          -5.6978  -15.2100   26.4260 C.ar    1  UNL1        0.0032
     11 C          -6.9232  -15.2426   27.2905 C.ar    1  UNL1        0.0351
     12 S          -8.0816  -15.6659   26.4366 S.2     1  UNL1       -0.0867
     13 C          -7.5720  -15.8949   25.0445 C.ar    1  UNL1        0.0270
@<TRIPOS>BOND
     1     8     9    1
     2     9    10   ar
     3    10    11   ar
     4    11    12   ar
     5    12    13   ar
     6    13     1    1
     7     1     2   ar
     8     2     3   ar
     9     3     4   ar
    10     4     5    1
    11     4     6   ar
    12     6     7   ar
    13    13     9   ar
    14     7     1   ar
@<TRIPOS>MOLECULE
*****
 13 14 0 0 0
SMALL
GASTEIGER

@<TRIPOS>ATOM
      1 C          -9.0617  -17.5650   22.5633 C.ar    1  UNL1        0.0250
      2 C          -9.6077  -18.0632   23.8686 C.ar    1  UNL1        0.0060
      3 C          -9.3844  -17.2746   25.1248 C.ar    1  UNL1        0.0497
      4 C          -8.6151  -15.9878   25.0758 C.ar    1  UNL1        0.2223
      5 F          -8.3918  -15.1992   26.3322 F       1  UNL1       -0.1832
      6 N          -8.0691  -15.4896   23.7706 N.ar    1  UNL1       -0.2164
      7 C          -8.2924  -16.2782   22.5144 C.ar    1  UNL1        0.1017
      8 C         -11.8499  -17.7368   20.8763 C.3     1  UNL1        0.0316
      9 C         -10.5666  -18.4326   20.5316 C.ar    1  UNL1       -0.0153
     10 C         -10.3395  -19.3294   19.3509 C.ar    1  UNL1        0.0032
     11 C          -8.9175  -19.8048   19.3966 C.ar    1  UNL1        0.0351
     12 S          -8.2658  -19.2017   20.6055 S.2     1  UNL1       -0.0867
     13 C          -9.2850  -18.3536   21.3070 C.ar    1  UNL1        0.0270
@<TRIPOS>BOND
     1     8     9    1
     2     9    10   ar
     3    10    11   ar
     4    11    12   ar
     5    12    13   ar
     6    13     1    1
     7     1     2   ar
     8     2     3   ar
     9     3     4   ar
    10     4     5    1
    11     4     6   ar
    12     6     7   ar
    13    13     9   ar
    14     7     1   ar
