@<TRIPOS>MOLECULE
*****
 27 30 0 0 0
SMALL
GASTEIGER

@<TRIPOS>ATOM
      1 C           6.7490   -4.1987   23.1948 C.ar    1  UNL1        0.2228
      2 N           7.6424   -4.9882   22.2846 N.ar    1  UNL1       -0.1240
      3 N           7.2861   -4.6407   20.8696 N.ar    1  UNL1       -0.1315
      4 C           6.1725   -3.6364   20.9053 C.ar    1  UNL1        0.1616
      5 N           5.8405   -3.3633   22.3424 N.ar    1  UNL1       -0.2918
      6 C           4.7539   -2.3891   22.6890 C.3     1  UNL1        0.1303
      7 C           3.9992   -1.6880   21.5986 C.3     1  UNL1        0.1186
      8 N           4.3311   -1.9612   20.1615 N.am    1  UNL1       -0.2688
      9 C           3.5765   -1.2602   19.0711 C.2     1  UNL1        0.2494
     10 O           3.9084   -1.5334   17.6340 O.2     1  UNL1       -0.2699
     11 C           5.4178   -2.9354   19.8149 C.3     1  UNL1        0.1343
     12 C           5.7498   -3.2086   18.3778 C.3     1  UNL1        0.0298
     13 C           2.4899   -0.2860   19.4178 C.ar    1  UNL1        0.0537
     14 C           1.2476   -0.7632   20.1101 C.ar    1  UNL1        0.0068
     15 C           0.1610    0.2111   20.4567 C.ar    1  UNL1        0.0298
     16 C           0.3166    1.6624   20.1111 C.ar    1  UNL1        0.1401
     17 F          -0.7700    2.6367   20.4578 F       1  UNL1       -0.2042
     18 C           1.5588    2.1395   19.4188 C.ar    1  UNL1        0.0298
     19 C           2.6454    1.1654   19.0722 C.ar    1  UNL1        0.0068
     20 C           7.0267   -5.0064   26.9811 C.ar    1  UNL1        0.1805
     21 N           6.5362   -3.5895   27.0223 N.ar    1  UNL1       -0.0601
     22 O           6.3724   -3.1144   25.6089 O.2     1  UNL1       -0.3295
     23 C           6.7618   -4.2378   24.6943 C.ar    1  UNL1        0.2958
     24 N           7.1661   -5.4071   25.5423 N.ar    1  UNL1       -0.1885
     25 C           6.9109   -5.4284   29.5421 C.3     1  UNL1        0.0081
     26 C           7.3254   -5.8709   28.1700 C.3     1  UNL1        0.0621
     27 C           8.0385   -7.1778   27.9869 C.3     1  UNL1        0.0081
@<TRIPOS>BOND
     1    25    26    1
     2    26    27    1
     3    26    20    1
     4    20    21   ar
     5    21    22   ar
     6    22    23   ar
     7    23     1    1
     8     1     2   ar
     9     2     3   ar
    10     3     4   ar
    11     4     5   ar
    12     5     6    1
    13     6     7    1
    14     7     8    1
    15     8     9   am
    16     9    10    2
    17     9    13    1
    18    13    14   ar
    19    14    15   ar
    20    15    16   ar
    21    16    17    1
    22    16    18   ar
    23    18    19   ar
    24     8    11    1
    25    11    12    1
    26    23    24   ar
    27    24    20   ar
    28     5     1   ar
    29    19    13   ar
    30    11     4    1
@<TRIPOS>MOLECULE
*****
 27 30 0 0 0
SMALL
GASTEIGER

@<TRIPOS>ATOM
      1 C           7.8163   -6.1633   28.9331 C.ar    1  UNL1        0.2228
      2 N           8.6629   -7.3963   28.8193 N.ar    1  UNL1       -0.1240
      3 N           8.9330   -7.6403   27.3641 N.ar    1  UNL1       -0.1315
      4 C           8.2533   -6.5581   26.5786 C.ar    1  UNL1        0.1616
      5 N           7.5632   -5.6453   27.5483 N.ar    1  UNL1       -0.2918
      6 C           6.7934   -4.4603   27.0451 C.3     1  UNL1        0.1303
      7 C           6.7138   -4.1881   25.5721 C.3     1  UNL1        0.1186
      8 N           7.4039   -5.1010   24.6024 N.am    1  UNL1       -0.2688
      9 C           7.3243   -4.8289   23.1295 C.2     1  UNL1        0.2494
     10 O           8.0145   -5.7418   22.1597 O.2     1  UNL1       -0.2699
     11 C           8.1737   -6.2860   25.1057 C.3     1  UNL1        0.1343
     12 C           8.8639   -7.1989   24.1360 C.3     1  UNL1        0.0298
     13 C           6.5546   -3.6440   22.6262 C.ar    1  UNL1        0.0537
     14 C           7.2614   -2.3475   22.3623 C.ar    1  UNL1        0.0068
     15 C           6.4916   -1.1625   21.8590 C.ar    1  UNL1        0.0298
     16 C           5.0150   -1.2740   21.6198 C.ar    1  UNL1        0.1401
     17 F           4.2452   -0.0889   21.1165 F       1  UNL1       -0.2042
     18 C           4.3082   -2.5704   21.8838 C.ar    1  UNL1        0.0298
     19 C           5.0779   -3.7554   22.3870 C.ar    1  UNL1        0.0068
     20 C           6.5455   -3.9405   31.8502 C.ar    1  UNL1        0.1805
     21 N           6.5237   -5.2974   32.4891 N.ar    1  UNL1       -0.0601
     22 O           6.9972   -6.2953   31.4741 O.2     1  UNL1       -0.3295
     23 C           7.3115   -5.5550   30.2079 C.ar    1  UNL1        0.2958
     24 N           7.0323   -4.0996   30.4404 N.ar    1  UNL1       -0.1885
     25 C           4.7207   -2.4153   32.8962 C.3     1  UNL1        0.0081
     26 C           6.1499   -2.6508   32.5060 C.3     1  UNL1        0.0621
     27 C           7.1833   -1.5965   32.7717 C.3     1  UNL1        0.0081
@<TRIPOS>BOND
     1    25    26    1
     2    26    27    1
     3    26    20    1
     4    20    21   ar
     5    21    22   ar
     6    22    23   ar
     7    23     1    1
     8     1     2   ar
     9     2     3   ar
    10     3     4   ar
    11     4     5   ar
    12     5     6    1
    13     6     7    1
    14     7     8    1
    15     8     9   am
    16     9    10    2
    17     9    13    1
    18    13    14   ar
    19    14    15   ar
    20    15    16   ar
    21    16    17    1
    22    16    18   ar
    23    18    19   ar
    24     8    11    1
    25    11    12    1
    26    23    24   ar
    27    24    20   ar
    28     5     1   ar
    29    19    13   ar
    30    11     4    1
@<TRIPOS>MOLECULE
*****
 27 30 0 0 0
SMALL
GASTEIGER

@<TRIPOS>ATOM
      1 C         -18.4037   -4.2266   19.9756 C.ar    1  UNL1        0.2228
      2 N         -19.3388   -5.3963   20.0623 N.ar    1  UNL1       -0.1240
      3 N         -18.5972   -6.6174   19.6052 N.ar    1  UNL1       -0.1315
      4 C         -17.2038   -6.2024   19.2360 C.ar    1  UNL1        0.1616
      5 N         -17.0842   -4.7248   19.4649 N.ar    1  UNL1       -0.2918
      6 C         -15.7894   -4.0239   19.1788 C.3     1  UNL1        0.1303
      7 C         -14.6140   -4.8005   18.6636 C.3     1  UNL1        0.1186
      8 N         -14.7335   -6.2781   18.4347 N.am    1  UNL1       -0.2688
      9 C         -13.5582   -7.0548   17.9196 C.2     1  UNL1        0.2494
     10 O         -13.6778   -8.5324   17.6906 O.2     1  UNL1       -0.2699
     11 C         -16.0285   -6.9791   18.7208 C.3     1  UNL1        0.1343
     12 C         -16.1480   -8.4566   18.4919 C.3     1  UNL1        0.0298
     13 C         -12.2633   -6.3538   17.6334 C.ar    1  UNL1        0.0537
     14 C         -12.0058   -5.7805   16.2714 C.ar    1  UNL1        0.0068
     15 C         -10.7109   -5.0795   15.9853 C.ar    1  UNL1        0.0298
     16 C          -9.6735   -4.9519   17.0612 C.ar    1  UNL1        0.1401
     17 F          -8.3785   -4.2510   16.7750 F       1  UNL1       -0.2042
     18 C          -9.9309   -5.5253   18.4231 C.ar    1  UNL1        0.0298
     19 C         -11.2258   -6.2262   18.7093 C.ar    1  UNL1        0.0068
     20 C         -18.6925   -0.3830   20.4319 C.ar    1  UNL1        0.1805
     21 N         -19.7752   -0.8661   21.3509 N.ar    1  UNL1       -0.0601
     22 O         -19.7988   -2.3648   21.2918 O.2     1  UNL1       -0.3295
     23 C         -18.7307   -2.8079   20.3363 C.ar    1  UNL1        0.2958
     24 N         -18.0470   -1.5831   19.8049 N.ar    1  UNL1       -0.1885
     25 C         -17.2235    1.6881   20.9821 C.3     1  UNL1        0.0081
     26 C         -18.3207    1.0488   20.1836 C.3     1  UNL1        0.0621
     27 C         -19.0460    1.8414   19.1368 C.3     1  UNL1        0.0081
@<TRIPOS>BOND
     1    25    26    1
     2    26    27    1
     3    26    20    1
     4    20    21   ar
     5    21    22   ar
     6    22    23   ar
     7    23     1    1
     8     1     2   ar
     9     2     3   ar
    10     3     4   ar
    11     4     5   ar
    12     5     6    1
    13     6     7    1
    14     7     8    1
    15     8     9   am
    16     9    10    2
    17     9    13    1
    18    13    14   ar
    19    14    15   ar
    20    15    16   ar
    21    16    17    1
    22    16    18   ar
    23    18    19   ar
    24     8    11    1
    25    11    12    1
    26    23    24   ar
    27    24    20   ar
    28     5     1   ar
    29    19    13   ar
    30    11     4    1
@<TRIPOS>MOLECULE
*****
 27 30 0 0 0
SMALL
GASTEIGER

@<TRIPOS>ATOM
      1 C         -13.2283   -5.9573   18.8805 C.ar    1  UNL1        0.2228
      2 N         -11.7350   -5.9754   19.0203 N.ar    1  UNL1       -0.1240
      3 N         -11.2502   -4.5560   18.9985 N.ar    1  UNL1       -0.1315
      4 C         -12.4440   -3.6607   18.8453 C.ar    1  UNL1        0.1616
      5 N         -13.6665   -4.5268   18.7723 N.ar    1  UNL1       -0.2918
      6 C         -15.0208   -3.9009   18.6169 C.3     1  UNL1        0.1303
      7 C         -15.1525   -2.4089   18.5343 C.3     1  UNL1        0.1186
      8 N         -13.9300   -1.5429   18.6073 N.am    1  UNL1       -0.2688
      9 C         -14.0616   -0.0510   18.5248 C.2     1  UNL1        0.2494
     10 O         -12.8391    0.8150   18.5977 O.2     1  UNL1       -0.2699
     11 C         -12.5756   -2.1689   18.7628 C.3     1  UNL1        0.1343
     12 C         -11.3531   -1.3028   18.8357 C.3     1  UNL1        0.0298
     13 C         -15.4159    0.5749   18.3693 C.ar    1  UNL1        0.0537
     14 C         -15.9680    0.8376   16.9995 C.ar    1  UNL1        0.0068
     15 C         -17.3223    1.4635   16.8441 C.ar    1  UNL1        0.0298
     16 C         -18.1245    1.8266   18.0584 C.ar    1  UNL1        0.1401
     17 F         -19.4789    2.4525   17.9030 F       1  UNL1       -0.2042
     18 C         -17.5725    1.5639   19.4282 C.ar    1  UNL1        0.0298
     19 C         -16.2182    0.9380   19.5836 C.ar    1  UNL1        0.0068
     20 C         -16.0737   -8.5902   19.0721 C.ar    1  UNL1        0.1805
     21 N         -14.9410   -9.4250   18.5523 N.ar    1  UNL1       -0.0601
     22 O         -13.7372   -8.5402   18.4172 O.2     1  UNL1       -0.3295
     23 C         -14.1260   -7.1587   18.8536 C.ar    1  UNL1        0.2958
     24 N         -15.5700   -7.1896   19.2583 N.ar    1  UNL1       -0.1885
     25 C         -18.3472   -8.3051   20.2970 C.3     1  UNL1        0.0081
     26 C         -17.4657   -9.0716   19.3559 C.3     1  UNL1        0.0621
     27 C         -17.9764  -10.3195   18.6985 C.3     1  UNL1        0.0081
@<TRIPOS>BOND
     1    25    26    1
     2    26    27    1
     3    26    20    1
     4    20    21   ar
     5    21    22   ar
     6    22    23   ar
     7    23     1    1
     8     1     2   ar
     9     2     3   ar
    10     3     4   ar
    11     4     5   ar
    12     5     6    1
    13     6     7    1
    14     7     8    1
    15     8     9   am
    16     9    10    2
    17     9    13    1
    18    13    14   ar
    19    14    15   ar
    20    15    16   ar
    21    16    17    1
    22    16    18   ar
    23    18    19   ar
    24     8    11    1
    25    11    12    1
    26    23    24   ar
    27    24    20   ar
    28     5     1   ar
    29    19    13   ar
    30    11     4    1
@<TRIPOS>MOLECULE
*****
 27 30 0 0 0
SMALL
GASTEIGER

@<TRIPOS>ATOM
      1 C          -0.1973    2.3377   23.6012 C.ar    1  UNL1        0.2228
      2 N          -1.0103    3.2622   22.7444 N.ar    1  UNL1       -0.1240
      3 N          -0.6256    3.0268   21.3138 N.ar    1  UNL1       -0.1315
      4 C           0.4253    1.9568   21.2865 C.ar    1  UNL1        0.1616
      5 N           0.6900    1.5308   22.7002 N.ar    1  UNL1       -0.2918
      6 C           1.7047    0.4634   22.9844 C.3     1  UNL1        0.1303
      7 C           2.4548   -0.1783   21.8548 C.3     1  UNL1        0.1186
      8 N           2.1901    0.2477   20.4411 N.am    1  UNL1       -0.2688
      9 C           2.9401   -0.3939   19.3116 C.2     1  UNL1        0.2494
     10 O           2.6754    0.0320   17.8979 O.2     1  UNL1       -0.2699
     11 C           1.1753    1.3152   20.1570 C.3     1  UNL1        0.1343
     12 C           0.9106    1.7411   18.7433 C.3     1  UNL1        0.0298
     13 C           3.9548   -1.4614   19.5958 C.ar    1  UNL1        0.0537
     14 C           5.3846   -1.0877   19.8530 C.ar    1  UNL1        0.0068
     15 C           6.3993   -2.1553   20.1372 C.ar    1  UNL1        0.0298
     16 C           5.9842   -3.5964   20.1642 C.ar    1  UNL1        0.1401
     17 F           6.9990   -4.6640   20.4484 F       1  UNL1       -0.2042
     18 C           4.5545   -3.9701   19.9070 C.ar    1  UNL1        0.0298
     19 C           3.5397   -2.9026   19.6229 C.ar    1  UNL1        0.0068
     20 C          -0.3291    1.3354   27.3486 C.ar    1  UNL1        0.1805
     21 N          -0.3858    2.8312   27.4466 N.ar    1  UNL1       -0.0601
     22 O          -0.3433    3.3887   26.0546 O.2     1  UNL1       -0.3295
     23 C          -0.2604    2.2375   25.0965 C.ar    1  UNL1        0.2958
     24 N          -0.2516    0.9685   25.8963 N.ar    1  UNL1       -0.1885
     25 C           0.9417   -0.1640   29.0478 C.3     1  UNL1        0.0081
     26 C          -0.3468    0.3752   28.5009 C.3     1  UNL1        0.0621
     27 C          -1.6531   -0.0459   29.1063 C.3     1  UNL1        0.0081
@<TRIPOS>BOND
     1    25    26    1
     2    26    27    1
     3    26    20    1
     4    20    21   ar
     5    21    22   ar
     6    22    23   ar
     7    23     1    1
     8     1     2   ar
     9     2     3   ar
    10     3     4   ar
    11     4     5   ar
    12     5     6    1
    13     6     7    1
    14     7     8    1
    15     8     9   am
    16     9    10    2
    17     9    13    1
    18    13    14   ar
    19    14    15   ar
    20    15    16   ar
    21    16    17    1
    22    16    18   ar
    23    18    19   ar
    24     8    11    1
    25    11    12    1
    26    23    24   ar
    27    24    20   ar
    28     5     1   ar
    29    19    13   ar
    30    11     4    1
@<TRIPOS>MOLECULE
*****
 27 30 0 0 0
SMALL
GASTEIGER

@<TRIPOS>ATOM
      1 C           4.0674    1.3599   18.2465 C.ar    1  UNL1        0.2228
      2 N           5.1455    2.3990   18.1569 N.ar    1  UNL1       -0.1240
      3 N           4.4891    3.7476   18.1404 N.ar    1  UNL1       -0.1315
      4 C           3.0054    3.5421   18.2198 C.ar    1  UNL1        0.1616
      5 N           2.7447    2.0663   18.2854 N.ar    1  UNL1       -0.2918
      6 C           1.3367    1.5565   18.3721 C.3     1  UNL1        0.1303
      7 C           0.1893    2.5224   18.3932 C.3     1  UNL1        0.1186
      8 N           0.4499    3.9982   18.3276 N.am    1  UNL1       -0.2688
      9 C          -0.6975    4.9641   18.3487 C.2     1  UNL1        0.2494
     10 O          -0.4369    6.4398   18.2830 O.2     1  UNL1       -0.2699
     11 C           1.8580    4.5080   18.2409 C.3     1  UNL1        0.1343
     12 C           2.1186    5.9837   18.1753 C.3     1  UNL1        0.0298
     13 C          -2.1055    4.4542   18.4353 C.ar    1  UNL1        0.0537
     14 C          -2.7129    4.1525   19.7733 C.ar    1  UNL1        0.0068
     15 C          -4.1210    3.6427   19.8599 C.ar    1  UNL1        0.0298
     16 C          -4.9216    3.4345   18.6087 C.ar    1  UNL1        0.1401
     17 F          -6.3297    2.9247   18.6953 F       1  UNL1       -0.2042
     18 C          -4.3142    3.7362   17.2707 C.ar    1  UNL1        0.0298
     19 C          -2.9062    4.2460   17.1841 C.ar    1  UNL1        0.0068
     20 C           4.2955   -2.4320   19.0432 C.ar    1  UNL1        0.1805
     21 N           4.8956   -2.3880   17.6692 N.ar    1  UNL1       -0.0601
     22 O           4.8832   -0.9621   17.2035 O.2     1  UNL1       -0.3295
     23 C           4.2755   -0.1250   18.2897 C.ar    1  UNL1        0.2958
     24 N           3.9122   -1.0334   19.4268 N.ar    1  UNL1       -0.1885
     25 C           3.4746   -4.8838   19.2981 C.3     1  UNL1        0.0081
     26 C           4.1111   -3.6592   19.8858 C.3     1  UNL1        0.0621
     27 C           4.5632   -3.6619   21.3161 C.3     1  UNL1        0.0081
@<TRIPOS>BOND
     1    25    26    1
     2    26    27    1
     3    26    20    1
     4    20    21   ar
     5    21    22   ar
     6    22    23   ar
     7    23     1    1
     8     1     2   ar
     9     2     3   ar
    10     3     4   ar
    11     4     5   ar
    12     5     6    1
    13     6     7    1
    14     7     8    1
    15     8     9   am
    16     9    10    2
    17     9    13    1
    18    13    14   ar
    19    14    15   ar
    20    15    16   ar
    21    16    17    1
    22    16    18   ar
    23    18    19   ar
    24     8    11    1
    25    11    12    1
    26    23    24   ar
    27    24    20   ar
    28     5     1   ar
    29    19    13   ar
    30    11     4    1
@<TRIPOS>MOLECULE
*****
 27 30 0 0 0
SMALL
GASTEIGER

@<TRIPOS>ATOM
      1 C           5.8034   -1.1212   33.2830 C.ar    1  UNL1        0.2228
      2 N           5.8124   -0.5834   34.6832 N.ar    1  UNL1       -0.1240
      3 N           4.6946    0.4093   34.8056 N.ar    1  UNL1       -0.1315
      4 C           3.9947    0.4851   33.4810 C.ar    1  UNL1        0.1616
      5 N           4.6800   -0.4609   32.5400 N.ar    1  UNL1       -0.2918
      6 C           4.1926   -0.5987   31.1281 C.3     1  UNL1        0.1303
      7 C           3.0198    0.2094   30.6572 C.3     1  UNL1        0.1186
      8 N           2.3345    1.1553   31.5983 N.am    1  UNL1       -0.2688
      9 C           1.1618    1.9634   31.1275 C.2     1  UNL1        0.2494
     10 O           0.4765    2.9093   32.0685 O.2     1  UNL1       -0.2699
     11 C           2.8220    1.2931   33.0102 C.3     1  UNL1        0.1343
     12 C           2.1367    2.2391   33.9513 C.3     1  UNL1        0.0298
     13 C           0.6744    1.8255   29.7156 C.ar    1  UNL1        0.0537
     14 C           1.3064    2.6341   28.6217 C.ar    1  UNL1        0.0068
     15 C           0.8189    2.4962   27.2098 C.ar    1  UNL1        0.0298
     16 C          -0.3005    1.5497   26.8919 C.ar    1  UNL1        0.1401
     17 F          -0.7880    1.4118   25.4800 F       1  UNL1       -0.2042
     18 C          -0.9324    0.7411   27.9858 C.ar    1  UNL1        0.0298
     19 C          -0.4450    0.8790   29.3977 C.ar    1  UNL1        0.0068
     20 C           7.6293   -4.1082   31.6071 C.ar    1  UNL1        0.1805
     21 N           8.7908   -3.3094   32.1198 N.ar    1  UNL1       -0.0601
     22 O           8.2481   -2.0931   32.8100 O.2     1  UNL1       -0.3295
     23 C           6.7514   -2.1404   32.7239 C.ar    1  UNL1        0.2958
     24 N           6.3689   -3.3858   31.9804 N.ar    1  UNL1       -0.1885
     25 C           8.6482   -6.4805   31.3164 C.3     1  UNL1        0.0081
     26 C           7.7136   -5.4024   30.8534 C.3     1  UNL1        0.0621
     27 C           6.8633   -5.6185   29.6367 C.3     1  UNL1        0.0081
@<TRIPOS>BOND
     1    25    26    1
     2    26    27    1
     3    26    20    1
     4    20    21   ar
     5    21    22   ar
     6    22    23   ar
     7    23     1    1
     8     1     2   ar
     9     2     3   ar
    10     3     4   ar
    11     4     5   ar
    12     5     6    1
    13     6     7    1
    14     7     8    1
    15     8     9   am
    16     9    10    2
    17     9    13    1
    18    13    14   ar
    19    14    15   ar
    20    15    16   ar
    21    16    17    1
    22    16    18   ar
    23    18    19   ar
    24     8    11    1
    25    11    12    1
    26    23    24   ar
    27    24    20   ar
    28     5     1   ar
    29    19    13   ar
    30    11     4    1
@<TRIPOS>MOLECULE
*****
 27 30 0 0 0
SMALL
GASTEIGER

@<TRIPOS>ATOM
      1 C         -17.3450   -0.9184   20.2082 C.ar    1  UNL1        0.2228
      2 N         -18.5734   -1.7258   20.5072 N.ar    1  UNL1       -0.1240
      3 N         -18.2734   -3.1608   20.1900 N.ar    1  UNL1       -0.1315
      4 C         -16.8596   -3.2404   19.6950 C.ar    1  UNL1        0.1616
      5 N         -16.2858   -1.8545   19.7063 N.ar    1  UNL1       -0.2918
      6 C         -14.8731   -1.6240   19.2581 C.3     1  UNL1        0.1303
      7 C         -14.0340   -2.7794   18.7986 C.3     1  UNL1        0.1186
      8 N         -14.6078   -4.1653   18.7873 N.am    1  UNL1       -0.2688
      9 C         -13.7688   -5.3206   18.3278 C.2     1  UNL1        0.2494
     10 O         -14.3425   -6.7065   18.3165 O.2     1  UNL1       -0.2699
     11 C         -16.0206   -4.3958   19.2355 C.3     1  UNL1        0.1343
     12 C         -16.5943   -5.7816   19.2242 C.3     1  UNL1        0.0298
     13 C         -12.3560   -5.0901   17.8796 C.ar    1  UNL1        0.0537
     14 C         -12.0601   -4.8411   16.4303 C.ar    1  UNL1        0.0068
     15 C         -10.6473   -4.6105   15.9821 C.ar    1  UNL1        0.0298
     16 C          -9.5304   -4.6290   16.9832 C.ar    1  UNL1        0.1401
     17 F          -8.1176   -4.3985   16.5350 F       1  UNL1       -0.2042
     18 C          -9.8263   -4.8780   18.4325 C.ar    1  UNL1        0.0298
     19 C         -11.2390   -5.1085   18.8807 C.ar    1  UNL1        0.0068
     20 C         -17.1879    2.7834   21.3644 C.ar    1  UNL1        0.1805
     21 N         -16.7712    2.9102   19.9290 N.ar    1  UNL1       -0.0601
     22 O         -16.7794    1.5388   19.3212 O.2     1  UNL1       -0.3295
     23 C         -17.2011    0.5646   20.3809 C.ar    1  UNL1        0.2958
     24 N         -17.4536    1.3338   21.6437 N.ar    1  UNL1       -0.1885
     25 C         -18.4312    4.9028   22.2087 C.3     1  UNL1        0.0081
     26 C         -17.3164    3.9088   22.3478 C.3     1  UNL1        0.0621
     27 C         -16.3301    4.0402   23.4703 C.3     1  UNL1        0.0081
@<TRIPOS>BOND
     1    25    26    1
     2    26    27    1
     3    26    20    1
     4    20    21   ar
     5    21    22   ar
     6    22    23   ar
     7    23     1    1
     8     1     2   ar
     9     2     3   ar
    10     3     4   ar
    11     4     5   ar
    12     5     6    1
    13     6     7    1
    14     7     8    1
    15     8     9   am
    16     9    10    2
    17     9    13    1
    18    13    14   ar
    19    14    15   ar
    20    15    16   ar
    21    16    17    1
    22    16    18   ar
    23    18    19   ar
    24     8    11    1
    25    11    12    1
    26    23    24   ar
    27    24    20   ar
    28     5     1   ar
    29    19    13   ar
    30    11     4    1
@<TRIPOS>MOLECULE
*****
 27 30 0 0 0
SMALL
GASTEIGER

@<TRIPOS>ATOM
      1 C           5.2003   -1.9889   27.8697 C.ar    1  UNL1        0.2228
      2 N           6.1515   -2.8718   28.6220 N.ar    1  UNL1       -0.1240
      3 N           6.8750   -3.7286   27.6258 N.ar    1  UNL1       -0.1315
      4 C           6.3710   -3.3753   26.2579 C.ar    1  UNL1        0.1616
      5 N           5.3360   -2.3001   26.4086 N.ar    1  UNL1       -0.2918
      6 C           4.6509   -1.7434   25.1960 C.3     1  UNL1        0.1303
      7 C           5.0007   -2.2618   23.8325 C.3     1  UNL1        0.1186
      8 N           6.0357   -3.3370   23.6818 N.am    1  UNL1       -0.2688
      9 C           6.3855   -3.8554   22.3184 C.2     1  UNL1        0.2494
     10 O           7.4205   -4.9306   22.1677 O.2     1  UNL1       -0.2699
     11 C           6.7209   -3.8938   24.8945 C.3     1  UNL1        0.1343
     12 C           7.7559   -4.9690   24.7438 C.3     1  UNL1        0.0298
     13 C           5.7004   -3.2987   21.1058 C.ar    1  UNL1        0.0537
     14 C           6.2850   -2.1171   20.3902 C.ar    1  UNL1        0.0068
     15 C           5.5998   -1.5604   19.1775 C.ar    1  UNL1        0.0298
     16 C           4.3300   -2.1852   18.6805 C.ar    1  UNL1        0.1401
     17 F           3.6447   -1.6284   17.4678 F       1  UNL1       -0.2042
     18 C           3.7453   -3.3668   19.3961 C.ar    1  UNL1        0.0298
     19 C           4.4305   -3.9235   20.6087 C.ar    1  UNL1        0.0068
     20 C           2.2648    0.2279   29.1081 C.ar    1  UNL1        0.1805
     21 N           3.4413    0.9519   29.6927 N.ar    1  UNL1       -0.0601
     22 O           4.6842    0.2095   29.2999 O.2     1  UNL1       -0.3295
     23 C           4.2758   -0.9732   28.4726 C.ar    1  UNL1        0.2958
     24 N           2.7805   -0.9618   28.3541 N.ar    1  UNL1       -0.1885
     25 C          -0.2589   -0.3182   28.8201 C.3     1  UNL1        0.0081
     26 C           0.8253    0.6241   29.2523 C.3     1  UNL1        0.0621
     27 C           0.4699    1.9626   29.8286 C.3     1  UNL1        0.0081
@<TRIPOS>BOND
     1    25    26    1
     2    26    27    1
     3    26    20    1
     4    20    21   ar
     5    21    22   ar
     6    22    23   ar
     7    23     1    1
     8     1     2   ar
     9     2     3   ar
    10     3     4   ar
    11     4     5   ar
    12     5     6    1
    13     6     7    1
    14     7     8    1
    15     8     9   am
    16     9    10    2
    17     9    13    1
    18    13    14   ar
    19    14    15   ar
    20    15    16   ar
    21    16    17    1
    22    16    18   ar
    23    18    19   ar
    24     8    11    1
    25    11    12    1
    26    23    24   ar
    27    24    20   ar
    28     5     1   ar
    29    19    13   ar
    30    11     4    1
