@<TRIPOS>MOLECULE
*****
 28 30 0 0 0
SMALL
GASTEIGER

@<TRIPOS>ATOM
      1 C          -7.2475  -16.3563   24.0921 C.2     1  UNL1        0.0708
      2 C          -5.7635  -16.1480   24.1567 C.2     1  UNL1        0.0283
      3 C          -5.1917  -15.1045   25.0699 C.3     1  UNL1        0.0470
      4 N          -4.8512  -16.9832   23.3080 N.pl3   1  UNL1       -0.3192
      5 C          -5.4230  -18.0267   22.3947 C.2     1  UNL1        0.0283
      6 C          -4.5108  -18.8619   21.5460 C.3     1  UNL1        0.0470
      7 C          -6.9071  -18.2351   22.3301 C.2     1  UNL1        0.0707
      8 C          -7.8194  -17.3999   23.1788 C.3     1  UNL1        0.0828
      9 H          -3.8772  -16.8464   23.3503 H       1  UNL1        0.1516
     10 C          -9.3034  -17.6083   23.1142 C.ar    1  UNL1        0.0087
     11 C          -9.9707  -18.5513   24.0710 C.ar    1  UNL1       -0.0019
     12 C         -11.4547  -18.7596   24.0065 C.ar    1  UNL1        0.0015
     13 C         -12.2715  -18.0250   22.9851 C.ar    1  UNL1        0.0241
     14 C         -11.6043  -17.0820   22.0283 C.ar    1  UNL1        0.1429
     15 N         -12.1450  -16.2252   20.9222 N.ar    1  UNL1       -0.0483
     16 O         -10.9951  -15.4873   20.3031 O.2     1  UNL1       -0.2415
     17 N          -9.7437  -15.8881   21.0266 N.ar    1  UNL1       -0.0486
     18 C         -10.1202  -16.8736   22.0929 C.ar    1  UNL1        0.1398
     19 C          -8.1599  -15.5212   24.9407 C.2     1  UNL1        0.3388
     20 O          -8.5527  -14.7349   24.8323 O.2     1  UNL1       -0.2452
     21 C          -8.2583  -15.1974   27.5167 C.3     1  UNL1        0.2559
     22 O          -8.5781  -16.0088   26.2963 O.3     1  UNL1       -0.4415
     23 C          -7.4790  -19.2786   21.4168 C.2     1  UNL1        0.3386
     24 O          -7.4488  -20.7238   21.8174 O.2     1  UNL1       -0.2452
     25 O          -8.0810  -18.8769   20.1029 O.3     1  UNL1       -0.4494
     26 C          -9.1584  -19.7168   19.4836 C.3     1  UNL1        0.1694
     27 C         -10.5398  -19.7153   20.0682 C.3     1  UNL1        0.0473
     28 C          -8.8544  -20.5584   18.2796 C.3     1  UNL1        0.0473
@<TRIPOS>BOND
     1    21    22    1
     2    22    19    1
     3    19    20    2
     4    19     1    1
     5     1     2    2
     6     2     3    1
     7     2     4    1
     8     4     5    1
     9     5     6    1
    10     5     7    2
    11     7    23    1
    12    23    24    2
    13    23    25    1
    14    25    26    1
    15    26    27    1
    16    26    28    1
    17     7     8    1
    18     8    10    1
    19    10    11   ar
    20    11    12   ar
    21    12    13   ar
    22    13    14   ar
    23    14    15   ar
    24    15    16   ar
    25    16    17   ar
    26    17    18   ar
    27     8     1    1
    28    18    10   ar
    29    18    14   ar
    30     4     9    1
@<TRIPOS>MOLECULE
*****
 28 30 0 0 0
SMALL
GASTEIGER

@<TRIPOS>ATOM
      1 C          -6.7704  -16.2590   24.3792 C.2     1  UNL1        0.0708
      2 C          -5.4114  -15.9180   24.9146 C.2     1  UNL1        0.0283
      3 C          -5.2675  -14.8851   25.9928 C.3     1  UNL1        0.0470
      4 N          -4.1961  -16.6098   24.3718 N.pl3   1  UNL1       -0.3192
      5 C          -4.3400  -17.6426   23.2936 C.2     1  UNL1        0.0283
      6 C          -3.1248  -18.3344   22.7508 C.3     1  UNL1        0.0470
      7 C          -5.6991  -17.9837   22.7582 C.2     1  UNL1        0.0707
      8 C          -6.9143  -17.2919   23.3010 C.3     1  UNL1        0.0828
      9 H          -3.3041  -16.3860   24.7232 H       1  UNL1        0.1516
     10 C          -8.2733  -17.6328   22.7656 C.ar    1  UNL1        0.0087
     11 C          -8.9327  -18.9215   23.1587 C.ar    1  UNL1       -0.0019
     12 C         -10.2916  -19.2625   22.6233 C.ar    1  UNL1        0.0015
     13 C         -10.9915  -18.3148   21.6948 C.ar    1  UNL1        0.0241
     14 C         -10.3322  -17.0261   21.3016 C.ar    1  UNL1        0.1429
     15 N         -10.7744  -15.9035   20.4105 N.ar    1  UNL1       -0.0483
     16 O          -9.6887  -14.8687   20.3951 O.2     1  UNL1       -0.2415
     17 N          -8.5754  -15.3518   21.2768 N.ar    1  UNL1       -0.0486
     18 C          -8.9731  -16.6851   21.8370 C.ar    1  UNL1        0.1398
     19 C          -7.9857  -15.5672   24.9220 C.2     1  UNL1        0.3388
     20 O          -8.3793  -14.7920   24.7531 O.2     1  UNL1       -0.2452
     21 C          -8.2687  -16.3377   27.3870 C.3     1  UNL1        0.2559
     22 O          -8.8072  -16.2237   25.9917 O.3     1  UNL1       -0.4415
     23 C          -5.8430  -19.0165   21.6799 C.2     1  UNL1        0.3386
     24 O          -6.3192  -20.3969   22.0225 O.2     1  UNL1       -0.2452
     25 O          -5.5106  -18.6687   20.2591 O.3     1  UNL1       -0.4494
     26 C          -4.2024  -19.1026   19.6672 C.3     1  UNL1        0.1694
     27 C          -3.7972  -20.5459   19.7201 C.3     1  UNL1        0.0473
     28 C          -3.2994  -18.0933   19.0224 C.3     1  UNL1        0.0473
@<TRIPOS>BOND
     1    21    22    1
     2    22    19    1
     3    19    20    2
     4    19     1    1
     5     1     2    2
     6     2     3    1
     7     2     4    1
     8     4     5    1
     9     5     6    1
    10     5     7    2
    11     7    23    1
    12    23    24    2
    13    23    25    1
    14    25    26    1
    15    26    27    1
    16    26    28    1
    17     7     8    1
    18     8    10    1
    19    10    11   ar
    20    11    12   ar
    21    12    13   ar
    22    13    14   ar
    23    14    15   ar
    24    15    16   ar
    25    16    17   ar
    26    17    18   ar
    27     8     1    1
    28    18    10   ar
    29    18    14   ar
    30     4     9    1
@<TRIPOS>MOLECULE
*****
 28 30 0 0 0
SMALL
GASTEIGER

@<TRIPOS>ATOM
      1 C          -7.0216  -16.1740   23.7087 C.2     1  UNL1        0.0708
      2 C          -5.5356  -16.2739   23.8868 C.2     1  UNL1        0.0283
      3 C          -4.8121  -15.2672   24.7312 C.3     1  UNL1        0.0470
      4 N          -4.7730  -17.3805   23.2205 N.pl3   1  UNL1       -0.3192
      5 C          -5.4965  -18.3872   22.3760 C.2     1  UNL1        0.0283
      6 C          -4.7340  -19.4937   21.7097 C.3     1  UNL1        0.0470
      7 C          -6.9826  -18.2873   22.1979 C.2     1  UNL1        0.0707
      8 C          -7.7451  -17.1807   22.8642 C.3     1  UNL1        0.0828
      9 H          -3.7977  -17.4460   23.3374 H       1  UNL1        0.1516
     10 C          -9.2312  -17.0808   22.6861 C.ar    1  UNL1        0.0087
     11 C          -9.8015  -16.1716   21.6383 C.ar    1  UNL1       -0.0019
     12 C         -11.2874  -16.0717   21.4601 C.ar    1  UNL1        0.0015
     13 C         -12.2032  -16.8810   22.3299 C.ar    1  UNL1        0.0241
     14 C         -11.6329  -17.7903   23.3777 C.ar    1  UNL1        0.1429
     15 N         -12.2818  -18.7030   24.3756 N.ar    1  UNL1       -0.0483
     16 O         -11.1968  -19.3671   25.1704 O.2     1  UNL1       -0.2415
     17 N          -9.8773  -18.8647   24.6638 N.ar    1  UNL1       -0.0486
     18 C         -10.1469  -17.8902   23.5558 C.ar    1  UNL1        0.1398
     19 C          -7.7842  -15.0674   24.3750 C.2     1  UNL1        0.3388
     20 O          -7.8766  -14.2011   24.2158 O.2     1  UNL1       -0.2452
     21 C          -7.9843  -15.9795   26.7995 C.3     1  UNL1        0.2559
     22 O          -8.6152  -15.3553   25.5902 O.3     1  UNL1       -0.4415
     23 C          -7.7061  -19.2940   21.3534 C.2     1  UNL1        0.3386
     24 O          -8.1934  -20.5741   21.9648 O.2     1  UNL1       -0.2452
     25 O          -7.9423  -19.0205   19.8975 O.3     1  UNL1       -0.4494
     26 C          -9.1295  -19.6208   19.2047 C.3     1  UNL1        0.1694
     27 C         -10.5118  -19.1390   19.5320 C.3     1  UNL1        0.0473
     28 C          -8.9345  -20.7030   18.1845 C.3     1  UNL1        0.0473
@<TRIPOS>BOND
     1    21    22    1
     2    22    19    1
     3    19    20    2
     4    19     1    1
     5     1     2    2
     6     2     3    1
     7     2     4    1
     8     4     5    1
     9     5     6    1
    10     5     7    2
    11     7    23    1
    12    23    24    2
    13    23    25    1
    14    25    26    1
    15    26    27    1
    16    26    28    1
    17     7     8    1
    18     8    10    1
    19    10    11   ar
    20    11    12   ar
    21    12    13   ar
    22    13    14   ar
    23    14    15   ar
    24    15    16   ar
    25    16    17   ar
    26    17    18   ar
    27     8     1    1
    28    18    10   ar
    29    18    14   ar
    30     4     9    1
@<TRIPOS>MOLECULE
*****
 28 30 0 0 0
SMALL
GASTEIGER

@<TRIPOS>ATOM
      1 C          -7.1304  -18.5357   21.9153 C.2     1  UNL1        0.0708
      2 C          -5.6360  -18.4222   21.8552 C.2     1  UNL1        0.0283
      3 C          -4.8511  -19.3243   20.9495 C.3     1  UNL1        0.0470
      4 N          -4.9263  -17.4067   22.7008 N.pl3   1  UNL1       -0.3192
      5 C          -5.7112  -16.5046   23.6065 C.2     1  UNL1        0.0283
      6 C          -5.0016  -15.4891   24.4521 C.3     1  UNL1        0.0470
      7 C          -7.2058  -16.6181   23.6666 C.2     1  UNL1        0.0707
      8 C          -7.9154  -17.6336   22.8210 C.3     1  UNL1        0.0828
      9 H          -3.9454  -17.3322   22.6614 H       1  UNL1        0.1516
     10 C          -9.4099  -17.7472   22.8810 C.ar    1  UNL1        0.0087
     11 C         -10.0542  -18.6329   23.9059 C.ar    1  UNL1       -0.0019
     12 C         -11.5486  -18.7465   23.9659 C.ar    1  UNL1        0.0015
     13 C         -12.3989  -17.9742   23.0011 C.ar    1  UNL1        0.0241
     14 C         -11.7546  -17.0885   21.9763 C.ar    1  UNL1        0.1429
     15 N         -12.3295  -16.2132   20.9023 N.ar    1  UNL1       -0.0483
     16 O         -11.1903  -15.5587   20.1786 O.2     1  UNL1       -0.2415
     17 N          -9.9113  -16.0295   20.8052 N.ar    1  UNL1       -0.0486
     18 C         -10.2601  -16.9750   21.9162 C.ar    1  UNL1        0.1398
     19 C          -7.8402  -19.5513   21.0697 C.2     1  UNL1        0.3388
     20 O          -8.0168  -20.4141   21.1627 O.2     1  UNL1       -0.2452
     21 C          -9.8194  -19.5771   19.3867 C.3     1  UNL1        0.2559
     22 O          -8.4285  -19.1488   19.7498 O.3     1  UNL1       -0.4415
     23 C          -7.9907  -15.7160   24.5723 C.2     1  UNL1        0.3386
     24 O          -8.2732  -14.3016   24.1608 O.2     1  UNL1       -0.2452
     25 O          -8.4931  -16.2286   25.8895 O.3     1  UNL1       -0.4494
     26 C          -7.9262  -15.6897   27.1694 C.3     1  UNL1        0.1694
     27 C          -6.5870  -16.1609   27.6536 C.3     1  UNL1        0.0473
     28 C          -8.6986  -14.6796   27.9651 C.3     1  UNL1        0.0473
@<TRIPOS>BOND
     1    21    22    1
     2    22    19    1
     3    19    20    2
     4    19     1    1
     5     1     2    2
     6     2     3    1
     7     2     4    1
     8     4     5    1
     9     5     6    1
    10     5     7    2
    11     7    23    1
    12    23    24    2
    13    23    25    1
    14    25    26    1
    15    26    27    1
    16    26    28    1
    17     7     8    1
    18     8    10    1
    19    10    11   ar
    20    11    12   ar
    21    12    13   ar
    22    13    14   ar
    23    14    15   ar
    24    15    16   ar
    25    16    17   ar
    26    17    18   ar
    27     8     1    1
    28    18    10   ar
    29    18    14   ar
    30     4     9    1
@<TRIPOS>MOLECULE
*****
 28 30 0 0 0
SMALL
GASTEIGER

@<TRIPOS>ATOM
      1 C          -6.2052  -19.4546   21.2370 C.2     1  UNL1        0.0708
      2 C          -5.7467  -20.3510   20.1253 C.2     1  UNL1        0.0283
      3 C          -4.3208  -20.8141   20.0749 C.3     1  UNL1        0.0470
      4 N          -6.7139  -20.7845   19.0638 N.pl3   1  UNL1       -0.3192
      5 C          -8.1398  -20.3215   19.1142 C.2     1  UNL1        0.0283
      6 C          -9.1070  -20.7549   18.0529 C.3     1  UNL1        0.0470
      7 C          -8.5984  -19.4250   20.2260 C.2     1  UNL1        0.0707
      8 C          -7.6312  -18.9915   21.2873 C.3     1  UNL1        0.0828
      9 H          -6.4129  -21.3729   18.3342 H       1  UNL1        0.1516
     10 C          -8.0898  -18.0950   22.3991 C.ar    1  UNL1        0.0087
     11 C          -7.8425  -16.6176   22.3216 C.ar    1  UNL1       -0.0019
     12 C          -8.3010  -15.7211   23.4333 C.ar    1  UNL1        0.0015
     13 C          -9.0069  -16.3020   24.6226 C.ar    1  UNL1        0.0241
     14 C          -9.2542  -17.7795   24.7001 C.ar    1  UNL1        0.1429
     15 N          -9.9193  -18.6326   25.7392 N.ar    1  UNL1       -0.0483
     16 O          -9.8717  -20.0564   25.2696 O.2     1  UNL1       -0.2415
     17 N          -9.1773  -20.0832   23.9403 N.ar    1  UNL1       -0.0486
     18 C          -8.7956  -18.6760   23.5883 C.ar    1  UNL1        0.1398
     19 C          -5.2381  -19.0211   22.2984 C.2     1  UNL1        0.3388
     20 O          -4.9568  -19.3793   23.0580 O.2     1  UNL1       -0.2452
     21 C          -3.0198  -17.6727   22.1919 C.3     1  UNL1        0.2559
     22 O          -4.5191  -17.7110   22.1679 O.3     1  UNL1       -0.4415
     23 C         -10.0243  -18.9619   20.2764 C.2     1  UNL1        0.3386
     24 O         -11.0601  -19.7972   20.9686 O.2     1  UNL1       -0.2452
     25 O         -10.4142  -17.6634   19.6344 O.3     1  UNL1       -0.4494
     26 C         -11.3910  -16.7528   20.3175 C.3     1  UNL1        0.1694
     27 C         -11.5360  -16.7924   21.8099 C.3     1  UNL1        0.0473
     28 C         -12.2228  -15.8025   19.5081 C.3     1  UNL1        0.0473
@<TRIPOS>BOND
     1    21    22    1
     2    22    19    1
     3    19    20    2
     4    19     1    1
     5     1     2    2
     6     2     3    1
     7     2     4    1
     8     4     5    1
     9     5     6    1
    10     5     7    2
    11     7    23    1
    12    23    24    2
    13    23    25    1
    14    25    26    1
    15    26    27    1
    16    26    28    1
    17     7     8    1
    18     8    10    1
    19    10    11   ar
    20    11    12   ar
    21    12    13   ar
    22    13    14   ar
    23    14    15   ar
    24    15    16   ar
    25    16    17   ar
    26    17    18   ar
    27     8     1    1
    28    18    10   ar
    29    18    14   ar
    30     4     9    1
@<TRIPOS>MOLECULE
*****
 28 30 0 0 0
SMALL
GASTEIGER

@<TRIPOS>ATOM
      1 C          -7.3887  -18.5158   21.7587 C.2     1  UNL1        0.0708
      2 C          -5.9124  -18.7662   21.8456 C.2     1  UNL1        0.0283
      3 C          -5.2948  -19.8886   21.0653 C.3     1  UNL1        0.0470
      4 N          -5.0534  -17.8943   22.7128 N.pl3   1  UNL1       -0.3192
      5 C          -5.6710  -16.7719   23.4931 C.2     1  UNL1        0.0283
      6 C          -4.8121  -15.9000   24.3604 C.3     1  UNL1        0.0470
      7 C          -7.1474  -16.5214   23.4063 C.2     1  UNL1        0.0707
      8 C          -8.0062  -17.3933   22.5390 C.3     1  UNL1        0.0828
      9 H          -4.0844  -18.0587   22.7699 H       1  UNL1        0.1516
     10 C          -9.4826  -17.1429   22.4521 C.ar    1  UNL1        0.0087
     11 C         -10.0202  -16.1692   21.4457 C.ar    1  UNL1       -0.0019
     12 C         -11.4965  -15.9187   21.3588 C.ar    1  UNL1        0.0015
     13 C         -12.4354  -16.6421   22.2783 C.ar    1  UNL1        0.0241
     14 C         -11.8979  -17.6158   23.2846 C.ar    1  UNL1        0.1429
     15 N         -12.5745  -18.4702   24.3152 N.ar    1  UNL1       -0.0483
     16 O         -11.5162  -19.2488   25.0391 O.2     1  UNL1       -0.2415
     17 N         -10.1856  -18.8755   24.4559 N.ar    1  UNL1       -0.0486
     18 C         -10.4215  -17.8662   23.3716 C.ar    1  UNL1        0.1398
     19 C          -8.2476  -19.3877   20.8915 C.2     1  UNL1        0.3388
     20 O          -8.7819  -20.0763   21.0487 O.2     1  UNL1       -0.2452
     21 C          -8.9013  -20.1865   18.5072 C.3     1  UNL1        0.2559
     22 O          -8.3060  -19.1486   19.4117 O.3     1  UNL1       -0.4415
     23 C          -7.7650  -15.3990   24.1866 C.2     1  UNL1        0.3386
     24 O          -7.4985  -13.9764   23.7930 O.2     1  UNL1       -0.2452
     25 O          -8.6491  -15.6994   25.3606 O.3     1  UNL1       -0.4494
     26 C          -8.0432  -15.9712   26.7056 C.3     1  UNL1        0.1694
     27 C          -6.8256  -15.2142   27.1464 C.3     1  UNL1        0.0473
     28 C          -8.6549  -16.9999   27.6098 C.3     1  UNL1        0.0473
@<TRIPOS>BOND
     1    21    22    1
     2    22    19    1
     3    19    20    2
     4    19     1    1
     5     1     2    2
     6     2     3    1
     7     2     4    1
     8     4     5    1
     9     5     6    1
    10     5     7    2
    11     7    23    1
    12    23    24    2
    13    23    25    1
    14    25    26    1
    15    26    27    1
    16    26    28    1
    17     7     8    1
    18     8    10    1
    19    10    11   ar
    20    11    12   ar
    21    12    13   ar
    22    13    14   ar
    23    14    15   ar
    24    15    16   ar
    25    16    17   ar
    26    17    18   ar
    27     8     1    1
    28    18    10   ar
    29    18    14   ar
    30     4     9    1
@<TRIPOS>MOLECULE
*****
 28 30 0 0 0
SMALL
GASTEIGER

@<TRIPOS>ATOM
      1 C          -5.8706  -18.9241   22.2061 C.2     1  UNL1        0.0708
      2 C          -4.5949  -18.3155   22.7081 C.2     1  UNL1        0.0283
      3 C          -3.2981  -19.0517   22.5461 C.3     1  UNL1        0.0470
      4 N          -4.6160  -16.9707   23.3723 N.pl3   1  UNL1       -0.3192
      5 C          -5.9128  -16.2345   23.5344 C.2     1  UNL1        0.0283
      6 C          -5.9339  -14.8897   24.1985 C.3     1  UNL1        0.0470
      7 C          -7.1886  -16.8431   23.0323 C.2     1  UNL1        0.0707
      8 C          -7.1675  -18.1879   22.3682 C.3     1  UNL1        0.0828
      9 H          -3.7786  -16.5712   23.7018 H       1  UNL1        0.1516
     10 C          -8.4433  -18.7965   21.8662 C.ar    1  UNL1        0.0087
     11 C          -8.7012  -18.8878   20.3913 C.ar    1  UNL1       -0.0019
     12 C          -9.9768  -19.4964   19.8893 C.ar    1  UNL1        0.0015
     13 C         -10.9948  -20.0138   20.8621 C.ar    1  UNL1        0.0241
     14 C         -10.7368  -19.9226   22.3369 C.ar    1  UNL1        0.1429
     15 N         -11.5484  -20.3447   23.5257 N.ar    1  UNL1       -0.0483
     16 O         -10.7742  -19.9969   24.7625 O.2     1  UNL1       -0.2415
     17 N          -9.4842  -19.3598   24.3381 N.ar    1  UNL1       -0.0486
     18 C          -9.4611  -19.3139   22.8390 C.ar    1  UNL1        0.1398
     19 C          -5.8497  -20.2689   21.5420 C.2     1  UNL1        0.3388
     20 O          -6.0375  -21.0913   21.8116 O.2     1  UNL1       -0.2452
     21 C          -4.0153  -20.7095   19.7556 C.3     1  UNL1        0.2559
     22 O          -5.4385  -20.3890   20.1044 O.3     1  UNL1       -0.4415
     23 C          -8.4854  -16.1069   23.1944 C.2     1  UNL1        0.3386
     24 O          -9.0934  -15.9496   24.5565 O.2     1  UNL1       -0.2452
     25 O          -9.1743  -15.5281   21.9942 O.3     1  UNL1       -0.4494
     26 C         -10.5749  -15.9473   21.6585 C.3     1  UNL1        0.1694
     27 C         -11.5238  -16.3366   22.7530 C.3     1  UNL1        0.0473
     28 C         -11.0264  -15.9774   20.2284 C.3     1  UNL1        0.0473
@<TRIPOS>BOND
     1    21    22    1
     2    22    19    1
     3    19    20    2
     4    19     1    1
     5     1     2    2
     6     2     3    1
     7     2     4    1
     8     4     5    1
     9     5     6    1
    10     5     7    2
    11     7    23    1
    12    23    24    2
    13    23    25    1
    14    25    26    1
    15    26    27    1
    16    26    28    1
    17     7     8    1
    18     8    10    1
    19    10    11   ar
    20    11    12   ar
    21    12    13   ar
    22    13    14   ar
    23    14    15   ar
    24    15    16   ar
    25    16    17   ar
    26    17    18   ar
    27     8     1    1
    28    18    10   ar
    29    18    14   ar
    30     4     9    1
@<TRIPOS>MOLECULE
*****
 28 30 0 0 0
SMALL
GASTEIGER

@<TRIPOS>ATOM
      1 C          -6.0221  -18.9736   22.3565 C.2     1  UNL1        0.0708
      2 C          -4.7561  -18.2868   22.7751 C.2     1  UNL1        0.0283
      3 C          -3.4350  -18.9739   22.5943 C.3     1  UNL1        0.0470
      4 N          -4.8110  -16.9129   23.3747 N.pl3   1  UNL1       -0.3192
      5 C          -6.1321  -16.2258   23.5555 C.2     1  UNL1        0.0283
      6 C          -6.1870  -14.8520   24.1550 C.3     1  UNL1        0.0470
      7 C          -7.3983  -16.9126   23.1368 C.2     1  UNL1        0.0707
      8 C          -7.3433  -18.2865   22.5373 C.3     1  UNL1        0.0828
      9 H          -3.9800  -16.4621   23.6495 H       1  UNL1        0.1516
     10 C          -8.6094  -18.9733   22.1186 C.ar    1  UNL1        0.0087
     11 C          -9.6012  -19.4140   23.1539 C.ar    1  UNL1       -0.0019
     12 C         -10.8673  -20.1008   22.7353 C.ar    1  UNL1        0.0015
     13 C         -11.1416  -20.3469   21.2812 C.ar    1  UNL1        0.0241
     14 C         -10.1497  -19.9062   20.2459 C.ar    1  UNL1        0.1429
     15 N         -10.1469  -20.0115   18.7496 N.ar    1  UNL1       -0.0483
     16 O          -8.8791  -19.3898   18.2435 O.2     1  UNL1       -0.2415
     17 N          -8.0983  -18.9002   19.4270 N.ar    1  UNL1       -0.0486
     18 C          -8.8836  -19.2194   20.6646 C.ar    1  UNL1        0.1398
     19 C          -5.9673  -20.3475   21.7569 C.2     1  UNL1        0.3388
     20 O          -6.1114  -21.1625   22.0720 O.2     1  UNL1       -0.2452
     21 C          -4.1704  -20.7577   19.9258 C.3     1  UNL1        0.2559
     22 O          -5.6002  -20.5214   20.3129 O.3     1  UNL1       -0.4415
     23 C          -8.7193  -16.2255   23.3176 C.2     1  UNL1        0.3386
     24 O          -9.3448  -16.1490   24.6787 O.2     1  UNL1       -0.2452
     25 O          -9.4149  -15.6149   22.1371 O.3     1  UNL1       -0.4494
     26 C         -10.7572  -16.1295   21.7090 C.3     1  UNL1        0.1694
     27 C         -11.0555  -16.3254   20.2521 C.3     1  UNL1        0.0473
     28 C         -11.8013  -16.4480   22.7378 C.3     1  UNL1        0.0473
@<TRIPOS>BOND
     1    21    22    1
     2    22    19    1
     3    19    20    2
     4    19     1    1
     5     1     2    2
     6     2     3    1
     7     2     4    1
     8     4     5    1
     9     5     6    1
    10     5     7    2
    11     7    23    1
    12    23    24    2
    13    23    25    1
    14    25    26    1
    15    26    27    1
    16    26    28    1
    17     7     8    1
    18     8    10    1
    19    10    11   ar
    20    11    12   ar
    21    12    13   ar
    22    13    14   ar
    23    14    15   ar
    24    15    16   ar
    25    16    17   ar
    26    17    18   ar
    27     8     1    1
    28    18    10   ar
    29    18    14   ar
    30     4     9    1
@<TRIPOS>MOLECULE
*****
 28 30 0 0 0
SMALL
GASTEIGER

@<TRIPOS>ATOM
      1 C          -6.8400  -16.1275   24.3027 C.2     1  UNL1        0.0708
      2 C          -5.4511  -15.8761   24.8103 C.2     1  UNL1        0.0283
      3 C          -5.2124  -14.8235   25.8520 C.3     1  UNL1        0.0470
      4 N          -4.3008  -16.6771   24.2762 N.pl3   1  UNL1       -0.3192
      5 C          -4.5395  -17.7297   23.2345 C.2     1  UNL1        0.0283
      6 C          -3.3893  -18.5308   22.7004 C.3     1  UNL1        0.0470
      7 C          -5.9285  -17.9812   22.7269 C.2     1  UNL1        0.0707
      8 C          -7.0787  -17.1801   23.2610 C.3     1  UNL1        0.0828
      9 H          -3.3892  -16.5121   24.6094 H       1  UNL1        0.1516
     10 C          -8.4676  -17.4316   22.7534 C.ar    1  UNL1        0.0087
     11 C          -8.9613  -16.7137   21.5323 C.ar    1  UNL1       -0.0019
     12 C         -10.3502  -16.9652   21.0248 C.ar    1  UNL1        0.0015
     13 C         -11.2455  -17.9345   21.7382 C.ar    1  UNL1        0.0241
     14 C         -10.7518  -18.6524   22.9592 C.ar    1  UNL1        0.1429
     15 N         -11.4015  -19.6565   23.8645 N.ar    1  UNL1       -0.0483
     16 O         -10.4140  -20.0257   24.9316 O.2     1  UNL1       -0.2415
     17 N          -9.1541  -19.2497   24.6858 N.ar    1  UNL1       -0.0486
     18 C          -9.3628  -18.4009   23.4668 C.ar    1  UNL1        0.1398
     19 C          -7.9903  -15.3265   24.8367 C.2     1  UNL1        0.3388
     20 O          -8.3311  -14.5330   24.6405 O.2     1  UNL1       -0.2452
     21 C          -8.2161  -16.1544   27.2890 C.3     1  UNL1        0.2559
     22 O          -8.8326  -15.8743   25.9506 O.3     1  UNL1       -0.4415
     23 C          -6.1672  -19.0338   21.6852 C.2     1  UNL1        0.3386
     24 O          -6.7673  -20.3520   22.0748 O.2     1  UNL1       -0.2452
     25 O          -5.8057  -18.7679   20.2538 O.3     1  UNL1       -0.4494
     26 C          -4.4812  -19.2242   19.7176 C.3     1  UNL1        0.1694
     27 C          -3.5432  -18.2338   19.0938 C.3     1  UNL1        0.0473
     28 C          -4.0947  -20.6709   19.8053 C.3     1  UNL1        0.0473
@<TRIPOS>BOND
     1    21    22    1
     2    22    19    1
     3    19    20    2
     4    19     1    1
     5     1     2    2
     6     2     3    1
     7     2     4    1
     8     4     5    1
     9     5     6    1
    10     5     7    2
    11     7    23    1
    12    23    24    2
    13    23    25    1
    14    25    26    1
    15    26    27    1
    16    26    28    1
    17     7     8    1
    18     8    10    1
    19    10    11   ar
    20    11    12   ar
    21    12    13   ar
    22    13    14   ar
    23    14    15   ar
    24    15    16   ar
    25    16    17   ar
    26    17    18   ar
    27     8     1    1
    28    18    10   ar
    29    18    14   ar
    30     4     9    1
