@<TRIPOS>MOLECULE
*****
 26 28 0 0 0
SMALL
GASTEIGER

@<TRIPOS>ATOM
      1 N          -8.2919  -17.0191   22.7747 N.pl3   1  UNL1       -0.3037
      2 C          -9.7092  -17.3572   23.1310 C.ar    1  UNL1        0.0490
      3 C          -9.9952  -18.4715   24.0935 C.ar    1  UNL1        0.0153
      4 C         -11.4125  -18.8095   24.4498 C.ar    1  UNL1        0.0124
      5 C         -12.5438  -18.0333   23.8436 C.ar    1  UNL1        0.0791
      6 C         -12.2578  -16.9190   22.8809 C.ar    1  UNL1        0.0685
      7 CL        -13.3891  -16.1428   22.2747 Cl      1  UNL1       -0.0815
      8 C         -10.8405  -16.5809   22.5246 C.ar    1  UNL1        0.0266
      9 C         -13.9611  -18.3714   24.1998 C.1     1  UNL1        0.1013
     10 N         -15.3784  -18.7095   24.5561 N.1     1  UNL1       -0.1908
     11 N          -5.6022  -19.1726   20.9875 N.3     1  UNL1       -0.1576
     12 C          -6.8582  -19.6920   20.3527 C.3     1  UNL1        0.0972
     13 C          -8.0186  -18.9485   20.9450 C.3     1  UNL1        0.0403
     14 C          -7.4798  -17.9697   21.9457 C.3     1  UNL1        0.0922
     15 C          -5.9864  -18.1081   21.9720 C.3     1  UNL1        0.1151
     16 C          -2.8119  -20.0999   20.3924 C.3     1  UNL1        0.1960
     17 S          -4.2071  -19.6362   20.6899 S.O2    1  UNL1        0.0457
     18 O          -3.6611  -18.3644   21.2682 O.2     1  UNL1       -0.1572
     19 O          -4.7530  -20.9081   20.1117 O.2     1  UNL1       -0.1572
     20 C          -7.6866  -15.7306   23.2473 C.3     1  UNL1        0.1177
     21 C          -7.3735  -15.5380   24.7016 C.ar    1  UNL1       -0.0024
     22 C          -5.9502  -15.3792   25.1477 C.ar    1  UNL1       -0.0026
     23 C          -5.6371  -15.1866   26.6019 C.ar    1  UNL1       -0.0003
     24 C          -6.7473  -15.1529   27.6101 C.ar    1  UNL1       -0.0000
     25 C          -8.1705  -15.3117   27.1640 C.ar    1  UNL1       -0.0003
     26 C          -8.4836  -15.5043   25.7098 C.ar    1  UNL1       -0.0026
@<TRIPOS>BOND
     1    16    17    1
     2    17    18    2
     3    17    19    2
     4    17    11    1
     5    11    12    1
     6    12    13    1
     7    13    14    1
     8    14     1    1
     9     1    20    1
    10    20    21    1
    11    21    22   ar
    12    22    23   ar
    13    23    24   ar
    14    24    25   ar
    15    25    26   ar
    16     1     2    1
    17     2     3   ar
    18     3     4   ar
    19     4     5   ar
    20     5     9    1
    21     9    10    3
    22     5     6   ar
    23     6     7    1
    24     6     8   ar
    25    14    15    1
    26    15    11    1
    27    26    21   ar
    28     8     2   ar
@<TRIPOS>MOLECULE
*****
 26 28 0 0 0
SMALL
GASTEIGER

@<TRIPOS>ATOM
      1 N          -8.0906  -18.9357   21.4951 N.pl3   1  UNL1       -0.3037
      2 C          -8.1963  -18.1154   22.7465 C.ar    1  UNL1        0.0490
      3 C          -9.1757  -18.5007   23.8153 C.ar    1  UNL1        0.0153
      4 C          -9.2814  -17.6804   25.0666 C.ar    1  UNL1        0.0124
      5 C          -8.4078  -16.4749   25.2492 C.ar    1  UNL1        0.0791
      6 C          -7.4284  -16.0895   24.1804 C.ar    1  UNL1        0.0685
      7 CL         -6.5547  -14.8840   24.3630 Cl      1  UNL1       -0.0815
      8 C          -7.3226  -16.9098   22.9290 C.ar    1  UNL1        0.0266
      9 C          -8.5135  -15.6546   26.5006 C.1     1  UNL1        0.1013
     10 N          -8.6193  -14.8343   27.7520 N.1     1  UNL1       -0.1908
     11 N          -4.3861  -19.4984   20.4823 N.3     1  UNL1       -0.1576
     12 C          -4.9888  -20.8248   20.1253 C.3     1  UNL1        0.0972
     13 C          -6.4500  -20.7754   20.4612 C.3     1  UNL1        0.0403
     14 C          -6.7501  -19.4186   21.0258 C.3     1  UNL1        0.0922
     15 C          -5.4746  -18.6294   21.0389 C.3     1  UNL1        0.1151
     16 C          -1.5087  -18.7205   20.1428 C.3     1  UNL1        0.1960
     17 S          -2.9474  -19.1095   20.3126 S.O2    1  UNL1        0.0457
     18 O          -3.3640  -17.9306   19.4839 O.2     1  UNL1       -0.1572
     19 O          -2.5308  -20.2883   21.1413 O.2     1  UNL1       -0.1572
     20 C          -9.3252  -19.2732   20.7129 C.3     1  UNL1        0.1177
     21 C         -10.5015  -18.3425   20.7299 C.ar    1  UNL1       -0.0024
     22 C         -11.7064  -18.6716   21.5605 C.ar    1  UNL1       -0.0026
     23 C         -12.8826  -17.7410   21.5773 C.ar    1  UNL1       -0.0003
     24 C         -12.8540  -16.4812   20.7636 C.ar    1  UNL1       -0.0000
     25 C         -11.6491  -16.1520   19.9330 C.ar    1  UNL1       -0.0003
     26 C         -10.4729  -17.0827   19.9162 C.ar    1  UNL1       -0.0026
@<TRIPOS>BOND
     1    16    17    1
     2    17    18    2
     3    17    19    2
     4    17    11    1
     5    11    12    1
     6    12    13    1
     7    13    14    1
     8    14     1    1
     9     1    20    1
    10    20    21    1
    11    21    22   ar
    12    22    23   ar
    13    23    24   ar
    14    24    25   ar
    15    25    26   ar
    16     1     2    1
    17     2     3   ar
    18     3     4   ar
    19     4     5   ar
    20     5     9    1
    21     9    10    3
    22     5     6   ar
    23     6     7    1
    24     6     8   ar
    25    14    15    1
    26    15    11    1
    27    26    21   ar
    28     8     2   ar
@<TRIPOS>MOLECULE
*****
 26 28 0 0 0
SMALL
GASTEIGER

@<TRIPOS>ATOM
      1 N          -7.8236  -17.1454   22.8571 N.pl3   1  UNL1       -0.3037
      2 C          -6.5871  -17.8519   22.3860 C.ar    1  UNL1        0.0490
      3 C          -6.6640  -18.8129   21.2370 C.ar    1  UNL1        0.0153
      4 C          -5.4275  -19.5194   20.7659 C.ar    1  UNL1        0.0124
      5 C          -4.1140  -19.2648   21.4440 C.ar    1  UNL1        0.0791
      6 C          -4.0369  -18.3037   22.5931 C.ar    1  UNL1        0.0685
      7 CL         -2.7234  -18.0492   23.2711 Cl      1  UNL1       -0.0815
      8 C          -5.2735  -17.5973   23.0641 C.ar    1  UNL1        0.0266
      9 C          -2.8774  -19.9713   20.9729 C.1     1  UNL1        0.1013
     10 N          -1.6409  -20.6778   20.5019 N.1     1  UNL1       -0.1908
     11 N         -11.4949  -18.3689   23.1580 N.3     1  UNL1       -0.1576
     12 C         -10.8796  -19.4889   22.3725 C.3     1  UNL1        0.0972
     13 C          -9.4293  -19.1669   22.1642 C.3     1  UNL1        0.0403
     14 C          -9.1485  -17.8479   22.8209 C.3     1  UNL1        0.0922
     15 C         -10.4250  -17.3547   23.4351 C.3     1  UNL1        0.1151
     16 C         -14.3618  -18.1888   24.0228 C.3     1  UNL1        0.1960
     17 S         -12.9283  -18.2788   23.5904 S.O2    1  UNL1        0.0457
     18 O         -13.3128  -17.8104   22.2182 O.2     1  UNL1       -0.1572
     19 O         -12.5439  -18.7472   24.9625 O.2     1  UNL1       -0.1572
     20 C          -7.7353  -15.7366   23.3643 C.3     1  UNL1        0.1177
     21 C          -7.4430  -15.4778   24.8126 C.ar    1  UNL1       -0.0024
     22 C          -6.0460  -15.1492   25.2488 C.ar    1  UNL1       -0.0026
     23 C          -5.7538  -14.8904   26.6971 C.ar    1  UNL1       -0.0003
     24 C          -6.8587  -14.9602   27.7092 C.ar    1  UNL1       -0.0000
     25 C          -8.2557  -15.2887   27.2731 C.ar    1  UNL1       -0.0003
     26 C          -8.5479  -15.5475   25.8248 C.ar    1  UNL1       -0.0026
@<TRIPOS>BOND
     1    16    17    1
     2    17    18    2
     3    17    19    2
     4    17    11    1
     5    11    12    1
     6    12    13    1
     7    13    14    1
     8    14     1    1
     9     1    20    1
    10    20    21    1
    11    21    22   ar
    12    22    23   ar
    13    23    24   ar
    14    24    25   ar
    15    25    26   ar
    16     1     2    1
    17     2     3   ar
    18     3     4   ar
    19     4     5   ar
    20     5     9    1
    21     9    10    3
    22     5     6   ar
    23     6     7    1
    24     6     8   ar
    25    14    15    1
    26    15    11    1
    27    26    21   ar
    28     8     2   ar
@<TRIPOS>MOLECULE
*****
 26 28 0 0 0
SMALL
GASTEIGER

@<TRIPOS>ATOM
      1 N         -13.9100   -6.7036   18.8749 N.pl3   1  UNL1       -0.3037
      2 C         -14.2606   -5.2528   19.0237 C.ar    1  UNL1        0.0490
      3 C         -13.9969   -4.5466   20.3205 C.ar    1  UNL1        0.0153
      4 C         -14.3474   -3.0958   20.4692 C.ar    1  UNL1        0.0124
      5 C         -14.9617   -2.3511   19.3212 C.ar    1  UNL1        0.0791
      6 C         -15.2254   -3.0572   18.0243 C.ar    1  UNL1        0.0685
      7 CL        -15.8397   -2.3125   16.8763 Cl      1  UNL1       -0.0815
      8 C         -14.8749   -4.5081   17.8755 C.ar    1  UNL1        0.0266
      9 C         -15.3122   -0.9002   19.4700 C.1     1  UNL1        0.1013
     10 N         -15.6627    0.5506   19.6187 N.1     1  UNL1       -0.1908
     11 N         -17.1390   -8.8464   19.0939 N.3     1  UNL1       -0.1576
     12 C         -16.1975   -9.8079   18.4311 C.3     1  UNL1        0.0972
     13 C         -14.8733   -9.1222   18.2684 C.3     1  UNL1        0.0403
     14 C         -14.9965   -7.7370   18.8306 C.3     1  UNL1        0.0922
     15 C         -16.3967   -7.5666   19.3408 C.3     1  UNL1        0.1151
     16 C         -20.0036   -9.3882   19.8014 C.3     1  UNL1        0.1960
     17 S         -18.5712   -9.1173   19.4476 S.O2    1  UNL1        0.0457
     18 O         -18.6108  -10.2262   18.4382 O.2     1  UNL1       -0.1572
     19 O         -18.5318   -8.0084   20.4570 O.2     1  UNL1       -0.1572
     20 C         -12.4732   -7.1212   18.7704 C.3     1  UNL1        0.1177
     21 C         -11.4617   -6.1862   18.1762 C.ar    1  UNL1       -0.0024
     22 C         -11.4001   -5.9941   16.6899 C.ar    1  UNL1       -0.0026
     23 C         -10.3887   -5.0592   16.0958 C.ar    1  UNL1       -0.0003
     24 C          -9.4390   -4.3164   16.9881 C.ar    1  UNL1       -0.0000
     25 C          -9.5006   -4.5084   18.4744 C.ar    1  UNL1       -0.0003
     26 C         -10.5120   -5.4434   19.0685 C.ar    1  UNL1       -0.0026
@<TRIPOS>BOND
     1    16    17    1
     2    17    18    2
     3    17    19    2
     4    17    11    1
     5    11    12    1
     6    12    13    1
     7    13    14    1
     8    14     1    1
     9     1    20    1
    10    20    21    1
    11    21    22   ar
    12    22    23   ar
    13    23    24   ar
    14    24    25   ar
    15    25    26   ar
    16     1     2    1
    17     2     3   ar
    18     3     4   ar
    19     4     5   ar
    20     5     9    1
    21     9    10    3
    22     5     6   ar
    23     6     7    1
    24     6     8   ar
    25    14    15    1
    26    15    11    1
    27    26    21   ar
    28     8     2   ar
@<TRIPOS>MOLECULE
*****
 26 28 0 0 0
SMALL
GASTEIGER

@<TRIPOS>ATOM
      1 N          -8.3271  -17.2933   22.7441 N.pl3   1  UNL1       -0.3037
      2 C          -9.7431  -17.5592   23.1613 C.ar    1  UNL1        0.0490
      3 C         -10.0431  -18.6534   24.1424 C.ar    1  UNL1        0.0153
      4 C         -11.4591  -18.9193   24.5596 C.ar    1  UNL1        0.0124
      5 C         -12.5753  -18.0909   23.9958 C.ar    1  UNL1        0.0791
      6 C         -12.2754  -16.9966   23.0146 C.ar    1  UNL1        0.0685
      7 CL        -13.3915  -16.1682   22.4508 Cl      1  UNL1       -0.0815
      8 C         -10.8593  -16.7307   22.5974 C.ar    1  UNL1        0.0266
      9 C         -13.9913  -18.3567   24.4130 C.1     1  UNL1        0.1013
     10 N         -15.4074  -18.6226   24.8303 N.1     1  UNL1       -0.1908
     11 N          -7.0722  -20.0712   20.3411 N.3     1  UNL1       -0.1576
     12 C          -5.7945  -19.6775   21.0213 C.3     1  UNL1        0.0972
     13 C          -6.1091  -18.5889   22.0043 C.3     1  UNL1        0.0403
     14 C          -7.5812  -18.3100   21.9315 C.3     1  UNL1        0.0922
     15 C          -8.1764  -19.2261   20.9036 C.3     1  UNL1        0.1151
     16 C          -7.3672  -22.1790   18.2269 C.3     1  UNL1        0.1960
     17 S          -7.2197  -21.1251   19.2840 S.O2    1  UNL1        0.0457
     18 O          -8.4366  -20.4249   18.7558 O.2     1  UNL1       -0.1572
     19 O          -6.0028  -21.8253   19.8121 O.2     1  UNL1       -0.1572
     20 C          -7.6569  -16.0109   23.1393 C.3     1  UNL1        0.1177
     21 C          -7.3399  -15.7436   24.5809 C.ar    1  UNL1       -0.0024
     22 C          -8.4470  -15.6628   25.5897 C.ar    1  UNL1       -0.0026
     23 C          -8.1300  -15.3955   27.0313 C.ar    1  UNL1       -0.0003
     24 C          -6.7060  -15.2090   27.4639 C.ar    1  UNL1       -0.0000
     25 C          -5.5989  -15.2898   26.4551 C.ar    1  UNL1       -0.0003
     26 C          -5.9159  -15.5571   25.0136 C.ar    1  UNL1       -0.0026
@<TRIPOS>BOND
     1    16    17    1
     2    17    18    2
     3    17    19    2
     4    17    11    1
     5    11    12    1
     6    12    13    1
     7    13    14    1
     8    14     1    1
     9     1    20    1
    10    20    21    1
    11    21    22   ar
    12    22    23   ar
    13    23    24   ar
    14    24    25   ar
    15    25    26   ar
    16     1     2    1
    17     2     3   ar
    18     3     4   ar
    19     4     5   ar
    20     5     9    1
    21     9    10    3
    22     5     6   ar
    23     6     7    1
    24     6     8   ar
    25    14    15    1
    26    15    11    1
    27    26    21   ar
    28     8     2   ar
@<TRIPOS>MOLECULE
*****
 26 28 0 0 0
SMALL
GASTEIGER

@<TRIPOS>ATOM
      1 N          -5.8934  -16.9278   23.2141 N.pl3   1  UNL1       -0.3037
      2 C          -7.3261  -17.1212   22.8140 C.ar    1  UNL1        0.0490
      3 C          -8.0756  -16.0062   22.1470 C.ar    1  UNL1        0.0153
      4 C          -9.5082  -16.1996   21.7470 C.ar    1  UNL1        0.0124
      5 C         -10.1914  -17.5080   22.0139 C.ar    1  UNL1        0.0791
      6 C          -9.4419  -18.6231   22.6810 C.ar    1  UNL1        0.0685
      7 CL        -10.1251  -19.9315   22.9479 Cl      1  UNL1       -0.0815
      8 C          -8.0092  -18.4297   23.0810 C.ar    1  UNL1        0.0266
      9 C         -11.6241  -17.7014   21.6139 C.1     1  UNL1        0.1013
     10 N         -13.0568  -17.8947   21.2139 N.1     1  UNL1       -0.1908
     11 N          -2.7649  -18.3128   21.3811 N.3     1  UNL1       -0.1576
     12 C          -3.5367  -19.5745   21.6307 C.3     1  UNL1        0.0972
     13 C          -4.8027  -19.2093   22.3478 C.3     1  UNL1        0.0403
     14 C          -4.8131  -17.7218   22.5412 C.3     1  UNL1        0.0922
     15 C          -3.5537  -17.1678   21.9438 C.3     1  UNL1        0.1151
     16 C          -0.1097  -18.1143   19.9990 C.3     1  UNL1        0.1960
     17 S          -1.4373  -18.2135   20.6901 S.O2    1  UNL1        0.0457
     18 O          -1.3212  -19.7090   20.6983 O.2     1  UNL1       -0.1572
     19 O          -1.5533  -16.7180   20.6817 O.2     1  UNL1       -0.1572
     20 C          -5.5410  -15.9405   24.2869 C.3     1  UNL1        0.1177
     21 C          -6.4991  -15.6811   25.4116 C.ar    1  UNL1       -0.0024
     22 C          -7.9368  -15.3723   25.1158 C.ar    1  UNL1       -0.0026
     23 C          -8.8948  -15.1129   26.2405 C.ar    1  UNL1       -0.0003
     24 C          -8.4151  -15.1623   27.6608 C.ar    1  UNL1       -0.0000
     25 C          -6.9774  -15.4712   27.9566 C.ar    1  UNL1       -0.0003
     26 C          -6.0194  -15.7306   26.8319 C.ar    1  UNL1       -0.0026
@<TRIPOS>BOND
     1    16    17    1
     2    17    18    2
     3    17    19    2
     4    17    11    1
     5    11    12    1
     6    12    13    1
     7    13    14    1
     8    14     1    1
     9     1    20    1
    10    20    21    1
    11    21    22   ar
    12    22    23   ar
    13    23    24   ar
    14    24    25   ar
    15    25    26   ar
    16     1     2    1
    17     2     3   ar
    18     3     4   ar
    19     4     5   ar
    20     5     9    1
    21     9    10    3
    22     5     6   ar
    23     6     7    1
    24     6     8   ar
    25    14    15    1
    26    15    11    1
    27    26    21   ar
    28     8     2   ar
@<TRIPOS>MOLECULE
*****
 26 28 0 0 0
SMALL
GASTEIGER

@<TRIPOS>ATOM
      1 N         -13.9326   -6.4907   18.9650 N.pl3   1  UNL1       -0.3037
      2 C         -15.1699   -7.3230   18.8032 C.ar    1  UNL1        0.0490
      3 C         -15.1055   -8.6269   18.0645 C.ar    1  UNL1        0.0153
      4 C         -16.3429   -9.4592   17.9028 C.ar    1  UNL1        0.0124
      5 C         -17.6447   -8.9876   18.4797 C.ar    1  UNL1        0.0791
      6 C         -17.7092   -7.6836   19.2184 C.ar    1  UNL1        0.0685
      7 CL        -19.0110   -7.2120   19.7953 Cl      1  UNL1       -0.0815
      8 C         -16.4718   -6.8513   19.3802 C.ar    1  UNL1        0.0266
      9 C         -18.8821   -9.8199   18.3179 C.1     1  UNL1        0.1013
     10 N         -20.1195  -10.6521   18.1561 N.1     1  UNL1       -0.1908
     11 N         -14.3722   -2.6625   19.4312 N.3     1  UNL1       -0.1576
     12 C         -14.0443   -3.0893   20.8314 C.3     1  UNL1        0.0972
     13 C         -13.8397   -4.5753   20.8271 C.3     1  UNL1        0.0403
     14 C         -14.0411   -5.0669   19.4244 C.3     1  UNL1        0.0922
     15 C         -14.3702   -3.8848   18.5616 C.3     1  UNL1        0.1151
     16 C         -14.9333    0.1428   18.5285 C.3     1  UNL1        0.1960
     17 S         -14.6527   -1.2599   18.9799 S.O2    1  UNL1        0.0457
     18 O         -15.6530   -1.1038   20.0867 O.2     1  UNL1       -0.1572
     19 O         -13.6524   -1.4159   17.8730 O.2     1  UNL1       -0.1572
     20 C         -12.5866   -7.0822   18.6674 C.3     1  UNL1        0.1177
     21 C         -11.5042   -6.2257   18.0801 C.ar    1  UNL1       -0.0024
     22 C         -11.4915   -5.9376   16.6081 C.ar    1  UNL1       -0.0026
     23 C         -10.4091   -5.0812   16.0209 C.ar    1  UNL1       -0.0003
     24 C          -9.3394   -4.5128   16.9056 C.ar    1  UNL1       -0.0000
     25 C          -9.3522   -4.8009   18.3776 C.ar    1  UNL1       -0.0003
     26 C         -10.4345   -5.6574   18.9649 C.ar    1  UNL1       -0.0026
@<TRIPOS>BOND
     1    16    17    1
     2    17    18    2
     3    17    19    2
     4    17    11    1
     5    11    12    1
     6    12    13    1
     7    13    14    1
     8    14     1    1
     9     1    20    1
    10    20    21    1
    11    21    22   ar
    12    22    23   ar
    13    23    24   ar
    14    24    25   ar
    15    25    26   ar
    16     1     2    1
    17     2     3   ar
    18     3     4   ar
    19     4     5   ar
    20     5     9    1
    21     9    10    3
    22     5     6   ar
    23     6     7    1
    24     6     8   ar
    25    14    15    1
    26    15    11    1
    27    26    21   ar
    28     8     2   ar
@<TRIPOS>MOLECULE
*****
 26 28 0 0 0
SMALL
GASTEIGER

@<TRIPOS>ATOM
      1 N          -5.6939  -16.5335   23.1771 N.pl3   1  UNL1       -0.3037
      2 C          -4.4617  -17.0123   22.4684 C.ar    1  UNL1        0.0490
      3 C          -3.2770  -16.1033   22.3267 C.ar    1  UNL1        0.0153
      4 C          -2.0447  -16.5821   21.6180 C.ar    1  UNL1        0.0124
      5 C          -1.9972  -17.9700   21.0509 C.ar    1  UNL1        0.0791
      6 C          -3.1819  -18.8790   21.1926 C.ar    1  UNL1        0.0685
      7 CL         -3.1344  -20.2669   20.6255 Cl      1  UNL1       -0.0815
      8 C          -4.4142  -18.4002   21.9013 C.ar    1  UNL1        0.0266
      9 C          -0.7649  -18.4488   20.3422 C.1     1  UNL1        0.1013
     10 N           0.4673  -18.9276   19.6335 N.1     1  UNL1       -0.1908
     11 N          -9.3046  -17.2483   21.9451 N.3     1  UNL1       -0.1576
     12 C          -8.9082  -18.5936   22.4772 C.3     1  UNL1        0.0972
     13 C          -7.5074  -18.4896   23.0034 C.3     1  UNL1        0.0403
     14 C          -7.0381  -17.0800   22.7966 C.3     1  UNL1        0.0922
     15 C          -8.1488  -16.3128   22.1425 C.3     1  UNL1        0.1151
     16 C         -11.9453  -16.5511   20.7040 C.3     1  UNL1        0.1960
     17 S         -10.6249  -16.8997   21.3246 S.O2    1  UNL1        0.0457
     18 O         -10.0416  -15.6203   20.8022 O.2     1  UNL1       -0.1572
     19 O         -11.2083  -18.1791   21.8469 O.2     1  UNL1       -0.1572
     20 C          -5.5821  -15.5082   24.2662 C.3     1  UNL1        0.1177
     21 C          -6.5349  -15.5374   25.4244 C.ar    1  UNL1       -0.0024
     22 C          -7.9816  -15.2017   25.2142 C.ar    1  UNL1       -0.0026
     23 C          -8.9343  -15.2309   26.3724 C.ar    1  UNL1       -0.0003
     24 C          -8.4402  -15.5957   27.7409 C.ar    1  UNL1       -0.0000
     25 C          -6.9935  -15.9314   27.9512 C.ar    1  UNL1       -0.0003
     26 C          -6.0408  -15.9022   26.7930 C.ar    1  UNL1       -0.0026
@<TRIPOS>BOND
     1    16    17    1
     2    17    18    2
     3    17    19    2
     4    17    11    1
     5    11    12    1
     6    12    13    1
     7    13    14    1
     8    14     1    1
     9     1    20    1
    10    20    21    1
    11    21    22   ar
    12    22    23   ar
    13    23    24   ar
    14    24    25   ar
    15    25    26   ar
    16     1     2    1
    17     2     3   ar
    18     3     4   ar
    19     4     5   ar
    20     5     9    1
    21     9    10    3
    22     5     6   ar
    23     6     7    1
    24     6     8   ar
    25    14    15    1
    26    15    11    1
    27    26    21   ar
    28     8     2   ar
@<TRIPOS>MOLECULE
*****
 26 28 0 0 0
SMALL
GASTEIGER

@<TRIPOS>ATOM
      1 N         -13.8477   -4.4616   19.2559 N.pl3   1  UNL1       -0.3037
      2 C         -14.4435   -5.8327   19.1331 C.ar    1  UNL1        0.0490
      3 C         -13.6426   -6.9470   18.5272 C.ar    1  UNL1        0.0153
      4 C         -14.2384   -8.3181   18.4045 C.ar    1  UNL1        0.0124
      5 C         -15.6350   -8.5750   18.8876 C.ar    1  UNL1        0.0791
      6 C         -16.4359   -7.4607   19.4935 C.ar    1  UNL1        0.0685
      7 CL        -17.8325   -7.7176   19.9766 Cl      1  UNL1       -0.0815
      8 C         -15.8401   -6.0896   19.6163 C.ar    1  UNL1        0.0266
      9 C         -16.2308   -9.9461   18.7648 C.1     1  UNL1        0.1013
     10 N         -16.8266  -11.3172   18.6420 N.1     1  UNL1       -0.1908
     11 N         -15.9022   -1.1689   19.3047 N.3     1  UNL1       -0.1576
     12 C         -16.0861   -1.6042   17.8810 C.3     1  UNL1        0.0972
     13 C         -15.3388   -2.8907   17.6895 C.3     1  UNL1        0.0403
     14 C         -14.6931   -3.2504   18.9948 C.3     1  UNL1        0.0922
     15 C         -15.0413   -2.1863   19.9930 C.3     1  UNL1        0.1151
     16 C         -17.0539    1.3026   20.5557 C.3     1  UNL1        0.1960
     17 S         -16.4780    0.0668   19.9302 S.O2    1  UNL1        0.0457
     18 O         -15.3371    0.8742   19.3856 O.2     1  UNL1       -0.1572
     19 O         -17.6190   -0.7404   20.4748 O.2     1  UNL1       -0.1572
     20 C         -12.4065   -4.3017   19.6398 C.3     1  UNL1        0.1177
     21 C         -11.3645   -4.1083   18.5782 C.ar    1  UNL1       -0.0024
     22 C         -11.3152   -2.8267   17.8004 C.ar    1  UNL1       -0.0026
     23 C         -10.2733   -2.6333   16.7389 C.ar    1  UNL1       -0.0003
     24 C          -9.2807   -3.7215   16.4551 C.ar    1  UNL1       -0.0000
     25 C          -9.3300   -5.0031   17.2329 C.ar    1  UNL1       -0.0003
     26 C         -10.3719   -5.1965   18.2944 C.ar    1  UNL1       -0.0026
@<TRIPOS>BOND
     1    16    17    1
     2    17    18    2
     3    17    19    2
     4    17    11    1
     5    11    12    1
     6    12    13    1
     7    13    14    1
     8    14     1    1
     9     1    20    1
    10    20    21    1
    11    21    22   ar
    12    22    23   ar
    13    23    24   ar
    14    24    25   ar
    15    25    26   ar
    16     1     2    1
    17     2     3   ar
    18     3     4   ar
    19     4     5   ar
    20     5     9    1
    21     9    10    3
    22     5     6   ar
    23     6     7    1
    24     6     8   ar
    25    14    15    1
    26    15    11    1
    27    26    21   ar
    28     8     2   ar
