@<TRIPOS>MOLECULE
*****
 17 18 0 0 0
SMALL
GASTEIGER

@<TRIPOS>ATOM
      1 O          -7.8649  -14.8083   21.0061 O.2     1  UNL1       -0.2956
      2 C          -8.1753  -15.4473   22.3272 C.2     1  UNL1        0.1576
      3 C          -7.4997  -15.1468   23.6324 C.3     1  UNL1        0.0718
      4 C          -8.1226  -16.0128   24.6870 C.3     1  UNL1        0.0589
      5 C          -7.0355  -15.1149   25.1987 C.3     1  UNL1        0.0074
      6 C          -6.6633  -15.1407   26.6515 C.3     1  UNL1        0.0004
      7 C          -7.3782  -16.0643   27.5926 C.3     1  UNL1        0.0000
      8 C          -8.4653  -16.9622   27.0810 C.3     1  UNL1        0.0004
      9 C          -8.8376  -16.9365   25.6281 C.3     1  UNL1        0.0074
     10 C          -9.1832  -16.8485   24.0336 C.2     1  UNL1        0.1568
     11 O         -10.0576  -17.8566   24.7183 O.2     1  UNL1       -0.2956
     12 C          -9.2157  -16.4990   22.5752 C.3     1  UNL1        0.1162
     13 C         -10.1284  -17.0963   21.5456 C.3     1  UNL1        0.0323
     14 C         -11.3594  -16.3556   21.1145 C.3     1  UNL1        0.0970
     15 CL        -11.4427  -15.7800   19.7319 Cl      1  UNL1       -0.1136
     16 C         -12.5072  -16.1904   22.0660 C.3     1  UNL1        0.1110
     17 CL        -12.8471  -17.2890   23.0290 Cl      1  UNL1       -0.1124
@<TRIPOS>BOND
     1     1     2    2
     2     2     3    1
     3     3     4    1
     4     4     5    1
     5     5     6    1
     6     6     7    1
     7     7     8    1
     8     8     9    1
     9     4    10    1
    10    10    11    2
    11    10    12    1
    12    12    13    1
    13    13    14    1
    14    14    15    1
    15    14    16    1
    16    16    17    1
    17    12     2    1
    18     9     4    1
@<TRIPOS>MOLECULE
*****
 17 18 0 0 0
SMALL
GASTEIGER

@<TRIPOS>ATOM
      1 O          -9.1551  -17.7503   26.6813 O.2     1  UNL1       -0.2956
      2 C          -9.2950  -17.6774   25.1896 C.2     1  UNL1        0.1576
      3 C          -9.9536  -18.7026   24.3146 C.3     1  UNL1        0.0718
      4 C          -9.8665  -18.2253   22.8953 C.3     1  UNL1        0.0589
      5 C         -10.5603  -19.5457   23.0535 C.3     1  UNL1        0.0074
      6 C         -11.0922  -20.2626   21.8480 C.3     1  UNL1        0.0004
      7 C         -10.9303  -19.6590   20.4844 C.3     1  UNL1        0.0000
      8 C         -10.2365  -18.3386   20.3262 C.3     1  UNL1        0.0004
      9 C          -9.7046  -17.6217   21.5316 C.3     1  UNL1        0.0074
     10 C          -9.1541  -16.9052   22.8930 C.2     1  UNL1        0.1568
     11 O          -8.8486  -16.0703   21.6849 O.2     1  UNL1       -0.2956
     12 C          -8.8009  -16.5666   24.3110 C.3     1  UNL1        0.1162
     13 C          -8.0802  -15.3337   24.7697 C.3     1  UNL1        0.0323
     14 C          -6.5923  -15.3609   24.9575 C.3     1  UNL1        0.0970
     15 CL         -5.6841  -15.2312   23.7709 Cl      1  UNL1       -0.1136
     16 C          -6.0126  -15.5179   26.3321 C.3     1  UNL1        0.1110
     17 CL         -6.8624  -15.2523   27.5393 Cl      1  UNL1       -0.1124
@<TRIPOS>BOND
     1     1     2    2
     2     2     3    1
     3     3     4    1
     4     4     5    1
     5     5     6    1
     6     6     7    1
     7     7     8    1
     8     8     9    1
     9     4    10    1
    10    10    11    2
    11    10    12    1
    12    12    13    1
    13    13    14    1
    14    14    15    1
    15    14    16    1
    16    16    17    1
    17    12     2    1
    18     9     4    1
@<TRIPOS>MOLECULE
*****
 17 18 0 0 0
SMALL
GASTEIGER

@<TRIPOS>ATOM
      1 O          -8.1342  -19.2862   18.9708 O.2     1  UNL1       -0.2956
      2 C          -8.8474  -19.1738   20.2856 C.2     1  UNL1        0.1576
      3 C         -10.2387  -18.6524   20.4922 C.3     1  UNL1        0.0718
      4 C         -10.5458  -18.7194   21.9589 C.3     1  UNL1        0.0589
      5 C         -11.6661  -18.1715   21.1254 C.3     1  UNL1        0.0074
      6 C         -12.9493  -17.7498   21.7777 C.3     1  UNL1        0.0004
      7 C         -13.1122  -17.8760   23.2635 C.3     1  UNL1        0.0000
      8 C         -11.9919  -18.4239   24.0970 C.3     1  UNL1        0.0004
      9 C         -10.7087  -18.8456   23.4447 C.3     1  UNL1        0.0074
     10 C          -9.3443  -19.2822   22.6588 C.2     1  UNL1        0.1568
     11 O          -9.2152  -19.5219   24.1338 O.2     1  UNL1       -0.2956
     12 C          -8.2947  -19.5630   21.6247 C.3     1  UNL1        0.1162
     13 C          -6.9317  -20.1329   21.8840 C.3     1  UNL1        0.0323
     14 C          -5.7087  -19.3159   21.5894 C.3     1  UNL1        0.0970
     15 CL         -5.1821  -18.3572   22.6157 Cl      1  UNL1       -0.1136
     16 C          -5.0122  -19.4578   20.2685 C.3     1  UNL1        0.1110
     17 CL         -4.0546  -20.5901   20.0433 Cl      1  UNL1       -0.1124
@<TRIPOS>BOND
     1     1     2    2
     2     2     3    1
     3     3     4    1
     4     4     5    1
     5     5     6    1
     6     6     7    1
     7     7     8    1
     8     8     9    1
     9     4    10    1
    10    10    11    2
    11    10    12    1
    12    12    13    1
    13    13    14    1
    14    14    15    1
    15    14    16    1
    16    16    17    1
    17    12     2    1
    18     9     4    1
@<TRIPOS>MOLECULE
*****
 17 18 0 0 0
SMALL
GASTEIGER

@<TRIPOS>ATOM
      1 O         -11.5265  -18.7865   24.4697 O.2     1  UNL1       -0.2956
      2 C         -10.2818  -17.9548   24.3752 C.2     1  UNL1        0.1576
      3 C          -9.5017  -17.4007   25.5306 C.3     1  UNL1        0.0718
      4 C          -8.3364  -16.6346   24.9782 C.3     1  UNL1        0.0589
      5 C          -8.4071  -16.6414   26.4765 C.3     1  UNL1        0.0074
      6 C          -7.3649  -15.9212   27.2797 C.3     1  UNL1        0.0004
      7 C          -6.2522  -15.1942   26.5846 C.3     1  UNL1        0.0000
      8 C          -6.1815  -15.1874   25.0863 C.3     1  UNL1        0.0004
      9 C          -7.2236  -15.9076   24.2831 C.3     1  UNL1        0.0074
     10 C          -8.3962  -16.7152   23.4815 C.2     1  UNL1        0.1568
     11 O          -7.4244  -16.0897   22.5254 O.2     1  UNL1       -0.2956
     12 C          -9.5985  -17.5311   23.1089 C.3     1  UNL1        0.1162
     13 C         -10.0400  -17.8647   21.7147 C.3     1  UNL1        0.0323
     14 C         -11.2531  -17.2013   21.1332 C.3     1  UNL1        0.0970
     15 CL        -12.6003  -17.8454   21.2744 Cl      1  UNL1       -0.1136
     16 C         -11.1189  -15.8937   20.4105 C.3     1  UNL1        0.1110
     17 CL        -11.9271  -15.6340   19.1738 Cl      1  UNL1       -0.1124
@<TRIPOS>BOND
     1     1     2    2
     2     2     3    1
     3     3     4    1
     4     4     5    1
     5     5     6    1
     6     6     7    1
     7     7     8    1
     8     8     9    1
     9     4    10    1
    10    10    11    2
    11    10    12    1
    12    12    13    1
    13    13    14    1
    14    14    15    1
    15    14    16    1
    16    16    17    1
    17    12     2    1
    18     9     4    1
@<TRIPOS>MOLECULE
*****
 17 18 0 0 0
SMALL
GASTEIGER

@<TRIPOS>ATOM
      1 O          -8.7884  -15.5435   26.0315 O.2     1  UNL1       -0.2956
      2 C          -8.7812  -16.3048   24.7390 C.2     1  UNL1        0.1576
      3 C          -9.8137  -17.2984   24.2952 C.3     1  UNL1        0.0718
      4 C          -9.4109  -17.8138   22.9454 C.3     1  UNL1        0.0589
      5 C         -10.6859  -18.4056   23.4688 C.3     1  UNL1        0.0074
      6 C         -11.4333  -19.4182   22.6527 C.3     1  UNL1        0.0004
      7 C         -10.9055  -19.8391   21.3132 C.3     1  UNL1        0.0000
      8 C          -9.6305  -19.2473   20.7897 C.3     1  UNL1        0.0004
      9 C          -8.8832  -18.2347   21.6058 C.3     1  UNL1        0.0074
     10 C          -8.1295  -17.1387   22.5549 C.2     1  UNL1        0.1568
     11 O          -7.3706  -17.3579   21.2798 O.2     1  UNL1       -0.2956
     12 C          -7.7404  -16.2061   23.6634 C.3     1  UNL1        0.1162
     13 C          -6.5240  -15.3289   23.6914 C.3     1  UNL1        0.0323
     14 C          -5.2541  -15.8273   24.3151 C.3     1  UNL1        0.0970
     15 CL         -5.0319  -15.6723   25.7903 Cl      1  UNL1       -0.1136
     16 C          -4.2064  -16.4807   23.4634 C.3     1  UNL1        0.1110
     17 CL         -3.7589  -17.8799   23.7665 Cl      1  UNL1       -0.1124
@<TRIPOS>BOND
     1     1     2    2
     2     2     3    1
     3     3     4    1
     4     4     5    1
     5     5     6    1
     6     6     7    1
     7     7     8    1
     8     8     9    1
     9     4    10    1
    10    10    11    2
    11    10    12    1
    12    12    13    1
    13    13    14    1
    14    14    15    1
    15    14    16    1
    16    16    17    1
    17    12     2    1
    18     9     4    1
@<TRIPOS>MOLECULE
*****
 17 18 0 0 0
SMALL
GASTEIGER

@<TRIPOS>ATOM
      1 O          -4.3543  -20.9079   20.0851 O.2     1  UNL1       -0.2956
      2 C          -5.4987  -20.0837   20.5961 C.2     1  UNL1        0.1576
      3 C          -6.8675  -20.0026   19.9879 C.3     1  UNL1        0.0718
      4 C          -7.6900  -19.0647   20.8208 C.3     1  UNL1        0.0589
      5 C          -8.4261  -19.6467   19.6506 C.3     1  UNL1        0.0074
      6 C          -9.8577  -19.2729   19.4039 C.3     1  UNL1        0.0004
      7 C         -10.5532  -18.3173   20.3275 C.3     1  UNL1        0.0000
      8 C          -9.8171  -17.7353   21.4977 C.3     1  UNL1        0.0004
      9 C          -8.3856  -18.1090   21.7444 C.3     1  UNL1        0.0074
     10 C          -6.8296  -18.5662   21.9439 C.2     1  UNL1        0.1568
     11 O          -7.2497  -17.6064   23.0173 O.2     1  UNL1       -0.2956
     12 C          -5.4753  -19.1959   21.8050 C.3     1  UNL1        0.1162
     13 C          -4.3034  -18.9765   22.7151 C.3     1  UNL1        0.0323
     14 C          -3.0672  -18.3031   22.1970 C.3     1  UNL1        0.0970
     15 CL         -2.0329  -19.0995   21.4583 Cl      1  UNL1       -0.1136
     16 C          -2.8653  -16.8332   22.4177 C.3     1  UNL1        0.1110
     17 CL         -1.8595  -16.0826   21.5963 Cl      1  UNL1       -0.1124
@<TRIPOS>BOND
     1     1     2    2
     2     2     3    1
     3     3     4    1
     4     4     5    1
     5     5     6    1
     6     6     7    1
     7     7     8    1
     8     8     9    1
     9     4    10    1
    10    10    11    2
    11    10    12    1
    12    12    13    1
    13    13    14    1
    14    14    15    1
    15    14    16    1
    16    16    17    1
    17    12     2    1
    18     9     4    1
@<TRIPOS>MOLECULE
*****
 17 18 0 0 0
SMALL
GASTEIGER

@<TRIPOS>ATOM
      1 O         -11.4492  -18.4627   24.1561 O.2     1  UNL1       -0.2956
      2 C         -10.1644  -17.6886   24.1504 C.2     1  UNL1        0.1576
      3 C          -9.4241  -17.1999   25.3602 C.3     1  UNL1        0.0718
      4 C          -8.1965  -16.4766   24.8915 C.3     1  UNL1        0.0589
      5 C          -8.3492  -16.5161   26.3832 C.3     1  UNL1        0.0074
      6 C          -7.3206  -15.8654   27.2598 C.3     1  UNL1        0.0004
      7 C          -6.1394  -15.1751   26.6449 C.3     1  UNL1        0.0000
      8 C          -5.9867  -15.1356   25.1532 C.3     1  UNL1        0.0004
      9 C          -7.0152  -15.7863   24.2766 C.3     1  UNL1        0.0074
     10 C          -8.1780  -16.5182   23.3921 C.2     1  UNL1        0.1568
     11 O          -7.1277  -15.9164   22.5064 O.2     1  UNL1       -0.2956
     12 C          -9.3942  -17.2673   22.9342 C.3     1  UNL1        0.1162
     13 C          -9.7736  -17.5460   21.5100 C.3     1  UNL1        0.0323
     14 C          -9.3222  -18.8141   20.8481 C.3     1  UNL1        0.0970
     15 CL        -10.3110  -19.6694   20.1128 Cl      1  UNL1       -0.1136
     16 C          -7.8820  -19.2270   20.9215 C.3     1  UNL1        0.1110
     17 CL         -7.3561  -19.8978   22.1557 Cl      1  UNL1       -0.1124
@<TRIPOS>BOND
     1     1     2    2
     2     2     3    1
     3     3     4    1
     4     4     5    1
     5     5     6    1
     6     6     7    1
     7     7     8    1
     8     8     9    1
     9     4    10    1
    10    10    11    2
    11    10    12    1
    12    12    13    1
    13    13    14    1
    14    14    15    1
    15    14    16    1
    16    16    17    1
    17    12     2    1
    18     9     4    1
@<TRIPOS>MOLECULE
*****
 17 18 0 0 0
SMALL
GASTEIGER

@<TRIPOS>ATOM
      1 O          -9.4478  -19.9298   19.2062 O.2     1  UNL1       -0.2956
      2 C          -8.3191  -19.5177   20.1041 C.2     1  UNL1        0.1576
      3 C          -6.8929  -19.9687   19.9914 C.3     1  UNL1        0.0718
      4 C          -6.1108  -19.3119   21.0900 C.3     1  UNL1        0.0589
      5 C          -5.2912  -20.2072   20.2088 C.3     1  UNL1        0.0074
      6 C          -3.8240  -20.3775   20.4699 C.3     1  UNL1        0.0004
      7 C          -3.1764  -19.6524   21.6122 C.3     1  UNL1        0.0000
      8 C          -3.9960  -18.7571   22.4935 C.3     1  UNL1        0.0004
      9 C          -5.4632  -18.5869   22.2324 C.3     1  UNL1        0.0074
     10 C          -7.0537  -18.4550   21.8818 C.2     1  UNL1        0.1568
     11 O          -6.6947  -17.6179   23.0735 O.2     1  UNL1       -0.2956
     12 C          -8.4184  -18.5821   21.2725 C.3     1  UNL1        0.1162
     13 C          -9.6638  -17.8945   21.7479 C.3     1  UNL1        0.0323
     14 C         -10.6377  -18.6271   22.6225 C.3     1  UNL1        0.0970
     15 CL        -10.6245  -20.1263   22.6677 Cl      1  UNL1       -0.1136
     16 C         -11.6249  -17.8604   23.4518 C.3     1  UNL1        0.1110
     17 CL        -13.0416  -17.7099   22.9827 Cl      1  UNL1       -0.1124
@<TRIPOS>BOND
     1     1     2    2
     2     2     3    1
     3     3     4    1
     4     4     5    1
     5     5     6    1
     6     6     7    1
     7     7     8    1
     8     8     9    1
     9     4    10    1
    10    10    11    2
    11    10    12    1
    12    12    13    1
    13    13    14    1
    14    14    15    1
    15    14    16    1
    16    16    17    1
    17    12     2    1
    18     9     4    1
@<TRIPOS>MOLECULE
*****
 17 18 0 0 0
SMALL
GASTEIGER

@<TRIPOS>ATOM
      1 O          -8.3257  -16.6567   23.6942 O.2     1  UNL1       -0.2956
      2 C          -7.6604  -17.5875   22.7242 C.2     1  UNL1        0.1576
      3 C          -6.2108  -17.9734   22.7251 C.3     1  UNL1        0.0718
      4 C          -5.9825  -18.9203   21.5844 C.3     1  UNL1        0.0589
      5 C          -4.7508  -18.6248   22.3878 C.3     1  UNL1        0.0074
      6 C          -3.4436  -19.2606   22.0180 C.3     1  UNL1        0.0004
      7 C          -3.3681  -20.1921   20.8447 C.3     1  UNL1        0.0000
      8 C          -4.5997  -20.4876   20.0412 C.3     1  UNL1        0.0004
      9 C          -5.9069  -19.8517   20.4110 C.3     1  UNL1        0.0074
     10 C          -7.2909  -19.1196   20.8784 C.2     1  UNL1        0.1568
     11 O          -7.5218  -19.9899   19.6787 O.2     1  UNL1       -0.2956
     12 C          -8.3279  -18.2960   21.5828 C.3     1  UNL1        0.1162
     13 C          -9.7778  -18.1979   21.2112 C.3     1  UNL1        0.0323
     14 C         -10.8167  -18.8679   22.0606 C.3     1  UNL1        0.0970
     15 CL        -11.1132  -20.3262   21.8722 Cl      1  UNL1       -0.1136
     16 C         -11.5592  -18.0797   23.0986 C.3     1  UNL1        0.1110
     17 CL        -12.9913  -17.6978   22.8680 Cl      1  UNL1       -0.1124
@<TRIPOS>BOND
     1     1     2    2
     2     2     3    1
     3     3     4    1
     4     4     5    1
     5     5     6    1
     6     6     7    1
     7     7     8    1
     8     8     9    1
     9     4    10    1
    10    10    11    2
    11    10    12    1
    12    12    13    1
    13    13    14    1
    14    14    15    1
    15    14    16    1
    16    16    17    1
    17    12     2    1
    18     9     4    1
