@<TRIPOS>MOLECULE
*****
 22 24 0 0 0
SMALL
GASTEIGER

@<TRIPOS>ATOM
      1 C          -7.6051  -18.4226   22.1617 C.3     1  UNL1        0.1753
      2 O          -8.2621  -19.6815   21.6784 O.3     1  UNL1       -0.3460
      3 C          -9.7496  -19.7270   21.4912 C.3     1  UNL1        0.1685
      4 C         -10.5803  -18.5136   21.7873 C.ar    1  UNL1        0.0067
      5 C         -12.0679  -18.5591   21.6002 C.ar    1  UNL1       -0.0021
      6 C         -12.8985  -17.3457   21.8963 C.ar    1  UNL1       -0.0003
      7 C         -12.2415  -16.0868   22.3795 C.ar    1  UNL1       -0.0002
      8 C         -10.7539  -16.0413   22.5667 C.ar    1  UNL1       -0.0010
      9 C          -9.9234  -17.2547   22.2706 C.ar    1  UNL1        0.0181
     10 C          -8.4357  -17.2092   22.4578 C.3     1  UNL1        0.2162
     11 C          -6.1175  -18.3772   22.3488 C.3     1  UNL1        0.1027
     12 C          -4.8727  -19.9493   20.6970 C.3     1  UNL1        0.0859
     13 N          -5.2074  -18.5663   21.1716 N.3     1  UNL1       -0.2942
     14 H          -5.6389  -18.0813   20.3849 H       1  UNL1        0.1234
     15 O          -7.7788  -15.9503   22.9410 O.3     1  UNL1       -0.4713
     16 C          -7.4583  -15.7827   24.3968 C.ar    1  UNL1        0.1494
     17 C          -8.5402  -15.9325   25.4250 C.ar    1  UNL1        0.0378
     18 C          -8.2198  -15.7649   26.8807 C.ar    1  UNL1        0.0032
     19 C          -6.8174  -15.4476   27.3083 C.ar    1  UNL1        0.0011
     20 C          -5.7356  -15.2978   26.2802 C.ar    1  UNL1        0.0145
     21 C          -6.0560  -15.4654   24.8244 C.ar    1  UNL1        0.0915
     22 CL         -4.9741  -15.3157   23.7962 Cl      1  UNL1       -0.0791
@<TRIPOS>BOND
     1    12    13    1
     2    13    11    1
     3     1    11    1
     4     1     2    1
     5     2     3    1
     6     3     4    1
     7     4     5   ar
     8     5     6   ar
     9     6     7   ar
    10     7     8   ar
    11     8     9   ar
    12     9    10    1
    13    10    15    1
    14    15    16    1
    15    16    17   ar
    16    17    18   ar
    17    18    19   ar
    18    19    20   ar
    19    20    21   ar
    20    21    22    1
    21    10     1    1
    22    21    16   ar
    23     9     4   ar
    24    13    14    1
@<TRIPOS>MOLECULE
*****
 22 24 0 0 0
SMALL
GASTEIGER

@<TRIPOS>ATOM
      1 C          -6.5909  -16.0960   23.6868 C.3     1  UNL1        0.1753
      2 O          -5.1739  -16.5050   23.9608 O.3     1  UNL1       -0.3460
      3 C          -4.5904  -17.6995   23.2661 C.3     1  UNL1        0.1685
      4 C          -5.4238  -18.4851   22.2974 C.ar    1  UNL1        0.0067
      5 C          -4.8403  -19.6797   21.6028 C.ar    1  UNL1       -0.0021
      6 C          -5.6737  -20.4652   20.6341 C.ar    1  UNL1       -0.0003
      7 C          -7.0906  -20.0562   20.3601 C.ar    1  UNL1       -0.0002
      8 C          -7.6741  -18.8617   21.0547 C.ar    1  UNL1       -0.0010
      9 C          -6.8407  -18.0762   22.0234 C.ar    1  UNL1        0.0181
     10 C          -7.4242  -16.8816   22.7181 C.3     1  UNL1        0.2162
     11 C          -7.1744  -14.9015   24.3815 C.3     1  UNL1        0.1027
     12 C          -7.9600  -15.8051   26.6871 C.3     1  UNL1        0.0859
     13 N          -8.2550  -15.0832   25.4058 N.3     1  UNL1       -0.2942
     14 H          -8.5785  -14.1502   25.6612 H       1  UNL1        0.1234
     15 O          -8.8411  -16.4726   22.4441 O.3     1  UNL1       -0.4713
     16 C          -9.9742  -17.2175   23.0853 C.ar    1  UNL1        0.1494
     17 C          -9.6981  -18.2059   24.1795 C.ar    1  UNL1        0.0378
     18 C         -10.8311  -18.9508   24.8207 C.ar    1  UNL1        0.0032
     19 C         -12.2403  -18.7075   24.3678 C.ar    1  UNL1        0.0011
     20 C         -12.5164  -17.7193   23.2738 C.ar    1  UNL1        0.0145
     21 C         -11.3833  -16.9742   22.6325 C.ar    1  UNL1        0.0915
     22 CL        -11.6595  -15.9860   21.5384 Cl      1  UNL1       -0.0791
@<TRIPOS>BOND
     1    12    13    1
     2    13    11    1
     3     1    11    1
     4     1     2    1
     5     2     3    1
     6     3     4    1
     7     4     5   ar
     8     5     6   ar
     9     6     7   ar
    10     7     8   ar
    11     8     9   ar
    12     9    10    1
    13    10    15    1
    14    15    16    1
    15    16    17   ar
    16    17    18   ar
    17    18    19   ar
    18    19    20   ar
    19    20    21   ar
    20    21    22    1
    21    10     1    1
    22    21    16   ar
    23     9     4   ar
    24    13    14    1
@<TRIPOS>MOLECULE
*****
 22 24 0 0 0
SMALL
GASTEIGER

@<TRIPOS>ATOM
      1 C          -7.1428  -17.5869   22.7317 C.3     1  UNL1        0.1753
      2 O          -5.8397  -16.8443   22.7496 O.3     1  UNL1       -0.3460
      3 C          -5.4745  -15.9989   23.9336 C.3     1  UNL1        0.1685
      4 C          -6.4124  -15.8961   25.0997 C.ar    1  UNL1        0.0067
      5 C          -6.0472  -15.0506   26.2837 C.ar    1  UNL1       -0.0021
      6 C          -6.9851  -14.9479   27.4497 C.ar    1  UNL1       -0.0003
      7 C          -8.2882  -15.6905   27.4318 C.ar    1  UNL1       -0.0002
      8 C          -8.6534  -16.5360   26.2478 C.ar    1  UNL1       -0.0010
      9 C          -7.7155  -16.6387   25.0818 C.ar    1  UNL1        0.0181
     10 C          -8.0807  -17.4842   23.8977 C.3     1  UNL1        0.2162
     11 C          -7.5080  -18.4324   21.5476 C.3     1  UNL1        0.1027
     12 C          -5.4753  -19.3020   20.1832 C.3     1  UNL1        0.0859
     13 N          -6.6625  -18.3939   20.3092 N.3     1  UNL1       -0.2942
     14 H          -7.2794  -18.6052   19.5248 H       1  UNL1        0.1234
     15 O          -9.3838  -18.2268   23.8798 O.3     1  UNL1       -0.4713
     16 C         -10.5207  -17.7266   23.0388 C.ar    1  UNL1        0.1494
     17 C         -10.9583  -16.2957   23.1437 C.ar    1  UNL1        0.0378
     18 C         -12.0951  -15.7955   22.3027 C.ar    1  UNL1        0.0032
     19 C         -12.7944  -16.7261   21.3567 C.ar    1  UNL1        0.0011
     20 C         -12.3568  -18.1570   21.2517 C.ar    1  UNL1        0.0145
     21 C         -11.2199  -18.6573   22.0927 C.ar    1  UNL1        0.0915
     22 CL        -10.7823  -20.0881   21.9877 Cl      1  UNL1       -0.0791
@<TRIPOS>BOND
     1    12    13    1
     2    13    11    1
     3     1    11    1
     4     1     2    1
     5     2     3    1
     6     3     4    1
     7     4     5   ar
     8     5     6   ar
     9     6     7   ar
    10     7     8   ar
    11     8     9   ar
    12     9    10    1
    13    10    15    1
    14    15    16    1
    15    16    17   ar
    16    17    18   ar
    17    18    19   ar
    18    19    20   ar
    19    20    21   ar
    20    21    22    1
    21    10     1    1
    22    21    16   ar
    23     9     4   ar
    24    13    14    1
@<TRIPOS>MOLECULE
*****
 22 24 0 0 0
SMALL
GASTEIGER

@<TRIPOS>ATOM
      1 C          -6.8671  -18.8717   21.2883 C.3     1  UNL1        0.1753
      2 O          -5.4538  -19.1364   21.7156 O.3     1  UNL1       -0.3460
      3 C          -4.8114  -18.2717   22.7594 C.3     1  UNL1        0.1685
      4 C          -5.5823  -17.1422   23.3760 C.ar    1  UNL1        0.0067
      5 C          -4.9399  -16.2775   24.4198 C.ar    1  UNL1       -0.0021
      6 C          -5.7107  -15.1481   25.0363 C.ar    1  UNL1       -0.0003
      7 C          -7.1240  -14.8834   24.6090 C.ar    1  UNL1       -0.0002
      8 C          -7.7664  -15.7481   23.5652 C.ar    1  UNL1       -0.0010
      9 C          -6.9956  -16.8775   22.9487 C.ar    1  UNL1        0.0181
     10 C          -7.6380  -17.7423   21.9048 C.3     1  UNL1        0.2162
     11 C          -7.5095  -19.7365   20.2445 C.3     1  UNL1        0.1027
     12 C          -9.8641  -19.7788   19.1473 C.3     1  UNL1        0.0859
     13 N          -8.5113  -19.1480   19.2957 N.3     1  UNL1       -0.2942
     14 H          -8.6666  -18.1844   19.5919 H       1  UNL1        0.1234
     15 O          -9.0513  -17.4776   21.4776 O.3     1  UNL1       -0.4713
     16 C         -10.1890  -17.8310   22.3889 C.ar    1  UNL1        0.1494
     17 C          -9.9730  -18.7919   23.5204 C.ar    1  UNL1        0.0378
     18 C         -11.1107  -19.1453   24.4317 C.ar    1  UNL1        0.0032
     19 C         -12.4645  -18.5380   24.2116 C.ar    1  UNL1        0.0011
     20 C         -12.6806  -17.5772   23.0802 C.ar    1  UNL1        0.0145
     21 C         -11.5428  -17.2237   22.1688 C.ar    1  UNL1        0.0915
     22 CL        -11.7588  -16.2630   21.0373 Cl      1  UNL1       -0.0791
@<TRIPOS>BOND
     1    12    13    1
     2    13    11    1
     3     1    11    1
     4     1     2    1
     5     2     3    1
     6     3     4    1
     7     4     5   ar
     8     5     6   ar
     9     6     7   ar
    10     7     8   ar
    11     8     9   ar
    12     9    10    1
    13    10    15    1
    14    15    16    1
    15    16    17   ar
    16    17    18   ar
    17    18    19   ar
    18    19    20   ar
    19    20    21   ar
    20    21    22    1
    21    10     1    1
    22    21    16   ar
    23     9     4   ar
    24    13    14    1
@<TRIPOS>MOLECULE
*****
 22 24 0 0 0
SMALL
GASTEIGER

@<TRIPOS>ATOM
      1 C          -9.2422  -17.3648   21.5915 C.3     1  UNL1        0.1753
      2 O          -9.6092  -18.6246   20.8648 O.3     1  UNL1       -0.3460
      3 C          -8.5853  -19.7032   20.6694 C.3     1  UNL1        0.1685
      4 C          -7.1943  -19.5219   21.2007 C.ar    1  UNL1        0.0067
      5 C          -6.1703  -20.6005   21.0053 C.ar    1  UNL1       -0.0021
      6 C          -4.7794  -20.4192   21.5366 C.ar    1  UNL1       -0.0003
      7 C          -4.4123  -19.1594   22.2633 C.ar    1  UNL1       -0.0002
      8 C          -5.4363  -18.0808   22.4587 C.ar    1  UNL1       -0.0010
      9 C          -6.8272  -18.2621   21.9274 C.ar    1  UNL1        0.0181
     10 C          -7.8512  -17.1835   22.1228 C.3     1  UNL1        0.2162
     11 C         -10.2662  -16.2862   21.7869 C.3     1  UNL1        0.1027
     12 C         -11.5142  -15.7545   19.5712 C.3     1  UNL1        0.0859
     13 N         -10.5795  -15.3378   20.6678 N.3     1  UNL1       -0.2942
     14 H         -10.9793  -14.5016   21.0936 H       1  UNL1        0.1234
     15 O          -7.4842  -15.9237   22.8495 O.3     1  UNL1       -0.4713
     16 C          -7.4021  -15.9185   24.3472 C.ar    1  UNL1        0.1494
     17 C          -8.5998  -16.3012   25.1653 C.ar    1  UNL1        0.0378
     18 C          -8.5177  -16.2960   26.6630 C.ar    1  UNL1        0.0032
     19 C          -7.2380  -15.9083   27.3427 C.ar    1  UNL1        0.0011
     20 C          -6.0403  -15.5257   26.5247 C.ar    1  UNL1        0.0145
     21 C          -6.1224  -15.5308   25.0269 C.ar    1  UNL1        0.0915
     22 CL         -4.9247  -15.1482   24.2088 Cl      1  UNL1       -0.0791
@<TRIPOS>BOND
     1    12    13    1
     2    13    11    1
     3     1    11    1
     4     1     2    1
     5     2     3    1
     6     3     4    1
     7     4     5   ar
     8     5     6   ar
     9     6     7   ar
    10     7     8   ar
    11     8     9   ar
    12     9    10    1
    13    10    15    1
    14    15    16    1
    15    16    17   ar
    16    17    18   ar
    17    18    19   ar
    18    19    20   ar
    19    20    21   ar
    20    21    22    1
    21    10     1    1
    22    21    16   ar
    23     9     4   ar
    24    13    14    1
@<TRIPOS>MOLECULE
*****
 22 24 0 0 0
SMALL
GASTEIGER

@<TRIPOS>ATOM
      1 C          -6.5411  -16.6940   23.6091 C.3     1  UNL1        0.1753
      2 O          -5.0621  -16.4726   23.4922 O.3     1  UNL1       -0.3460
      3 C          -4.2286  -17.3998   22.6584 C.3     1  UNL1        0.1685
      4 C          -4.8740  -18.5485   21.9413 C.ar    1  UNL1        0.0067
      5 C          -4.0404  -19.4757   21.1074 C.ar    1  UNL1       -0.0021
      6 C          -4.6858  -20.6243   20.3904 C.ar    1  UNL1       -0.0003
      7 C          -6.1648  -20.8457   20.5073 C.ar    1  UNL1       -0.0002
      8 C          -6.9983  -19.9185   21.3412 C.ar    1  UNL1       -0.0010
      9 C          -6.3529  -18.7699   22.0582 C.ar    1  UNL1        0.0181
     10 C          -7.1865  -17.8426   22.8922 C.3     1  UNL1        0.2162
     11 C          -7.3747  -15.7667   24.4431 C.3     1  UNL1        0.1027
     12 C          -8.2317  -15.8847   26.8928 C.3     1  UNL1        0.0859
     13 N          -8.3248  -16.3235   25.4615 N.3     1  UNL1       -0.2942
     14 H          -9.2660  -16.0925   25.1434 H       1  UNL1        0.1234
     15 O          -8.6655  -18.0640   23.0091 O.3     1  UNL1       -0.4713
     16 C          -9.5903  -17.5211   21.9603 C.ar    1  UNL1        0.1494
     17 C          -9.5737  -16.0579   21.6304 C.ar    1  UNL1        0.0378
     18 C         -10.4986  -15.5150   20.5817 C.ar    1  UNL1        0.0032
     19 C         -11.4400  -16.4353   19.8627 C.ar    1  UNL1        0.0011
     20 C         -11.4565  -17.8985   20.1926 C.ar    1  UNL1        0.0145
     21 C         -10.5317  -18.4414   21.2414 C.ar    1  UNL1        0.0915
     22 CL        -10.5482  -19.9046   21.5712 Cl      1  UNL1       -0.0791
@<TRIPOS>BOND
     1    12    13    1
     2    13    11    1
     3     1    11    1
     4     1     2    1
     5     2     3    1
     6     3     4    1
     7     4     5   ar
     8     5     6   ar
     9     6     7   ar
    10     7     8   ar
    11     8     9   ar
    12     9    10    1
    13    10    15    1
    14    15    16    1
    15    16    17   ar
    16    17    18   ar
    17    18    19   ar
    18    19    20   ar
    19    20    21   ar
    20    21    22    1
    21    10     1    1
    22    21    16   ar
    23     9     4   ar
    24    13    14    1
@<TRIPOS>MOLECULE
*****
 22 24 0 0 0
SMALL
GASTEIGER

@<TRIPOS>ATOM
      1 C         -11.2980  -17.9690   21.8319 C.3     1  UNL1        0.1753
      2 O         -11.5250  -18.2295   20.3722 O.3     1  UNL1       -0.3460
      3 C         -10.4555  -18.8888   19.5528 C.3     1  UNL1        0.1685
      4 C          -9.1589  -19.2877   20.1931 C.ar    1  UNL1        0.0067
      5 C          -8.0894  -19.9470   19.3737 C.ar    1  UNL1       -0.0021
      6 C          -6.7929  -20.3458   20.0139 C.ar    1  UNL1       -0.0003
      7 C          -6.5659  -20.0854   21.4736 C.ar    1  UNL1       -0.0002
      8 C          -7.6354  -19.4261   22.2930 C.ar    1  UNL1       -0.0010
      9 C          -8.9319  -19.0273   21.6527 C.ar    1  UNL1        0.0181
     10 C         -10.0015  -18.3679   22.4722 C.3     1  UNL1        0.2162
     11 C         -12.3675  -17.3097   22.6513 C.3     1  UNL1        0.1027
     12 C         -14.2406  -18.1841   24.2250 C.3     1  UNL1        0.0859
     13 N         -12.7898  -17.9126   23.9583 N.3     1  UNL1       -0.2942
     14 H         -12.3030  -18.8051   24.0418 H       1  UNL1        0.1234
     15 O          -9.7745  -18.1075   23.9318 O.3     1  UNL1       -0.4713
     16 C          -8.8797  -16.9835   24.3629 C.ar    1  UNL1        0.1494
     17 C          -8.2585  -16.0834   23.3362 C.ar    1  UNL1        0.0378
     18 C          -7.3637  -14.9593   23.7672 C.ar    1  UNL1        0.0032
     19 C          -7.0900  -14.7353   25.2249 C.ar    1  UNL1        0.0011
     20 C          -7.7111  -15.6354   26.2516 C.ar    1  UNL1        0.0145
     21 C          -8.6060  -16.7595   25.8206 C.ar    1  UNL1        0.0915
     22 CL         -9.2271  -17.6595   26.8473 Cl      1  UNL1       -0.0791
@<TRIPOS>BOND
     1    12    13    1
     2    13    11    1
     3     1    11    1
     4     1     2    1
     5     2     3    1
     6     3     4    1
     7     4     5   ar
     8     5     6   ar
     9     6     7   ar
    10     7     8   ar
    11     8     9   ar
    12     9    10    1
    13    10    15    1
    14    15    16    1
    15    16    17   ar
    16    17    18   ar
    17    18    19   ar
    18    19    20   ar
    19    20    21   ar
    20    21    22    1
    21    10     1    1
    22    21    16   ar
    23     9     4   ar
    24    13    14    1
@<TRIPOS>MOLECULE
*****
 22 24 0 0 0
SMALL
GASTEIGER

@<TRIPOS>ATOM
      1 C          -9.9193  -18.8254   23.1423 C.3     1  UNL1        0.1753
      2 O         -10.5137  -18.8633   24.5190 O.3     1  UNL1       -0.3460
      3 C          -9.9769  -17.9639   25.5927 C.3     1  UNL1        0.1685
      4 C          -8.8457  -17.0265   25.2898 C.ar    1  UNL1        0.0067
      5 C          -8.3089  -16.1271   26.3635 C.ar    1  UNL1       -0.0021
      6 C          -7.1777  -15.1898   26.0605 C.ar    1  UNL1       -0.0003
      7 C          -6.5833  -15.1519   24.6839 C.ar    1  UNL1       -0.0002
      8 C          -7.1201  -16.0513   23.6101 C.ar    1  UNL1       -0.0010
      9 C          -8.2513  -16.9886   23.9131 C.ar    1  UNL1        0.0181
     10 C          -8.7881  -17.8881   22.8394 C.3     1  UNL1        0.2162
     11 C         -10.4561  -19.7249   22.0686 C.3     1  UNL1        0.1027
     12 C         -12.1873  -17.9613   21.2672 C.3     1  UNL1        0.0859
     13 N         -11.3347  -19.1638   20.9901 N.3     1  UNL1       -0.2942
     14 H         -10.7240  -18.9186   20.2107 H       1  UNL1        0.1234
     15 O          -8.1936  -17.8502   21.4627 O.3     1  UNL1       -0.4713
     16 C          -7.0840  -18.7916   21.0987 C.ar    1  UNL1        0.1494
     17 C          -5.8269  -18.8211   21.9167 C.ar    1  UNL1        0.0378
     18 C          -4.7173  -19.7625   21.5527 C.ar    1  UNL1        0.0032
     19 C          -4.8646  -20.6743   20.3708 C.ar    1  UNL1        0.0011
     20 C          -6.1216  -20.6447   19.5528 C.ar    1  UNL1        0.0145
     21 C          -7.2313  -19.7033   19.9168 C.ar    1  UNL1        0.0915
     22 CL         -8.4883  -19.6738   19.0988 Cl      1  UNL1       -0.0791
@<TRIPOS>BOND
     1    12    13    1
     2    13    11    1
     3     1    11    1
     4     1     2    1
     5     2     3    1
     6     3     4    1
     7     4     5   ar
     8     5     6   ar
     9     6     7   ar
    10     7     8   ar
    11     8     9   ar
    12     9    10    1
    13    10    15    1
    14    15    16    1
    15    16    17   ar
    16    17    18   ar
    17    18    19   ar
    18    19    20   ar
    19    20    21   ar
    20    21    22    1
    21    10     1    1
    22    21    16   ar
    23     9     4   ar
    24    13    14    1
@<TRIPOS>MOLECULE
*****
 22 24 0 0 0
SMALL
GASTEIGER

@<TRIPOS>ATOM
      1 C          -7.4890  -16.1409   23.9636 C.3     1  UNL1        0.1753
      2 O          -8.2130  -16.0370   25.2732 O.3     1  UNL1       -0.3460
      3 C          -9.3155  -17.0005   25.5992 C.3     1  UNL1        0.1685
      4 C          -9.6940  -18.0679   24.6155 C.ar    1  UNL1        0.0067
      5 C         -10.7964  -19.0313   24.9415 C.ar    1  UNL1       -0.0021
      6 C         -11.1749  -20.0986   23.9579 C.ar    1  UNL1       -0.0003
      7 C         -10.4509  -20.2025   22.6483 C.ar    1  UNL1       -0.0002
      8 C          -9.3485  -19.2390   22.3223 C.ar    1  UNL1       -0.0010
      9 C          -8.9700  -18.1717   23.3059 C.ar    1  UNL1        0.0181
     10 C          -7.8675  -17.2082   22.9800 C.3     1  UNL1        0.2162
     11 C          -6.3865  -15.1773   23.6376 C.3     1  UNL1        0.1027
     12 C          -5.2940  -15.6044   25.9557 C.3     1  UNL1        0.0859
     13 N          -5.2280  -15.0176   24.5768 N.3     1  UNL1       -0.2942
     14 H          -4.4176  -15.4339   24.1182 H       1  UNL1        0.1234
     15 O          -7.1435  -17.3120   21.6704 O.3     1  UNL1       -0.4713
     16 C          -6.0205  -18.2933   21.5100 C.ar    1  UNL1        0.1494
     17 C          -4.8533  -18.2579   22.4516 C.ar    1  UNL1        0.0378
     18 C          -3.7303  -19.2392   22.2912 C.ar    1  UNL1        0.0032
     19 C          -3.7743  -20.2560   21.1893 C.ar    1  UNL1        0.0011
     20 C          -4.9414  -20.2915   20.2477 C.ar    1  UNL1        0.0145
     21 C          -6.0645  -19.3101   20.4081 C.ar    1  UNL1        0.0915
     22 CL         -7.2316  -19.3456   19.4665 Cl      1  UNL1       -0.0791
@<TRIPOS>BOND
     1    12    13    1
     2    13    11    1
     3     1    11    1
     4     1     2    1
     5     2     3    1
     6     3     4    1
     7     4     5   ar
     8     5     6   ar
     9     6     7   ar
    10     7     8   ar
    11     8     9   ar
    12     9    10    1
    13    10    15    1
    14    15    16    1
    15    16    17   ar
    16    17    18   ar
    17    18    19   ar
    18    19    20   ar
    19    20    21   ar
    20    21    22    1
    21    10     1    1
    22    21    16   ar
    23     9     4   ar
    24    13    14    1
