@<TRIPOS>MOLECULE
*****
 27 30 0 0 0
SMALL
GASTEIGER

@<TRIPOS>ATOM
      1 C          -1.5280  -18.2269   18.5450 C.3     1  UNL1        0.0523
      2 C          -2.5267  -18.1783   19.6631 C.ar    1  UNL1        0.0653
      3 C          -3.6134  -19.2092   19.7436 C.ar    1  UNL1        0.0490
      4 C          -4.6121  -19.1606   20.8617 C.ar    1  UNL1        0.1342
      5 N          -4.5241  -18.0810   21.8994 N.ar    1  UNL1       -0.1816
      6 N          -5.3600  -17.7801   23.1080 N.ar    1  UNL1       -0.1409
      7 C          -4.7900  -16.5632   23.7745 C.ar    1  UNL1        0.2227
      8 N          -3.6018  -16.1120   22.9778 N.ar    1  UNL1       -0.1880
      9 C          -3.4375  -17.0501   21.8190 C.ar    1  UNL1        0.2552
     10 N          -2.4388  -17.0987   20.7008 N.ar    1  UNL1       -0.2142
     11 C          -5.3159  -15.9118   25.0192 C.3     1  UNL1        0.3163
     12 C          -5.8417  -15.2605   26.2639 C.3     1  UNL1        0.0805
     13 F          -6.2188  -15.0504   24.1870 F       1  UNL1       -0.1962
     14 F          -4.4130  -16.7732   25.8514 F       1  UNL1       -0.1962
     15 N          -5.6987  -20.1915   20.9422 N.pl3   1  UNL1       -0.3192
     16 H          -5.4770  -21.1475   20.8637 H       1  UNL1        0.1482
     17 C          -7.1231  -19.7658   21.1421 C.3     1  UNL1        0.0750
     18 C          -7.9693  -19.3989   19.9592 C.3     1  UNL1        0.0245
     19 C          -9.3936  -18.9732   20.1592 C.3     1  UNL1        0.0278
     20 C          -9.9717  -18.9145   21.5421 C.ar    1  UNL1       -0.0255
     21 C         -11.3962  -18.4888   21.7421 C.ar    1  UNL1        0.0021
     22 C         -11.9743  -18.4300   23.1250 C.ar    1  UNL1        0.0342
     23 BR        -13.3986  -18.0043   23.3250 Br      1  UNL1       -0.0490
     24 C         -11.1279  -18.7969   24.3079 C.ar    1  UNL1        0.0064
     25 C          -9.7036  -19.2225   24.1079 C.ar    1  UNL1       -0.0040
     26 C          -9.1255  -19.2813   22.7250 C.ar    1  UNL1       -0.0245
     27 C          -7.7012  -19.7070   22.5250 C.3     1  UNL1        0.0455
@<TRIPOS>BOND
     1     1     2    1
     2     2     3   ar
     3     3     4   ar
     4     4    15    1
     5    15    17    1
     6    17    18    1
     7    18    19    1
     8    19    20    1
     9    20    21   ar
    10    21    22   ar
    11    22    23    1
    12    22    24   ar
    13    24    25   ar
    14    25    26   ar
    15    26    27    1
    16     4     5   ar
    17     5     6   ar
    18     6     7   ar
    19     7    11    1
    20    11    12    1
    21    11    13    1
    22    11    14    1
    23     7     8   ar
    24     8     9   ar
    25     9    10   ar
    26    10     2   ar
    27    27    17    1
    28     9     5   ar
    29    26    20   ar
    30    15    16    1
@<TRIPOS>MOLECULE
*****
 27 30 0 0 0
SMALL
GASTEIGER

@<TRIPOS>ATOM
      1 C         -11.4491  -18.3183   19.4046 C.3     1  UNL1        0.0523
      2 C         -10.5735  -18.2488   20.6205 C.ar    1  UNL1        0.0653
      3 C          -9.4707  -19.2481   20.8086 C.ar    1  UNL1        0.0490
      4 C          -8.5950  -19.1786   22.0245 C.ar    1  UNL1        0.1342
      5 N          -8.8221  -18.1097   23.0522 N.ar    1  UNL1       -0.1816
      6 N          -8.1252  -17.7936   24.3423 N.ar    1  UNL1       -0.1409
      7 C          -8.7972  -16.5989   24.9514 C.ar    1  UNL1        0.2227
      8 N          -9.9095  -16.1767   24.0378 N.ar    1  UNL1       -0.1880
      9 C          -9.9248  -17.1105   22.8640 C.ar    1  UNL1        0.2552
     10 N         -10.8005  -17.1800   21.6481 N.ar    1  UNL1       -0.2142
     11 C          -8.4227  -15.9417   26.2468 C.3     1  UNL1        0.3163
     12 C          -8.0482  -15.2845   27.5421 C.3     1  UNL1        0.0805
     13 F          -8.8128  -17.1847   26.9902 F       1  UNL1       -0.1962
     14 F          -8.0327  -14.6987   25.5034 F       1  UNL1       -0.1962
     15 N          -7.4923  -20.1778   22.2127 N.pl3   1  UNL1       -0.3192
     16 H          -7.6637  -21.0133   22.7044 H       1  UNL1        0.1482
     17 C          -6.1282  -19.9040   21.6517 C.3     1  UNL1        0.0750
     18 C          -5.6148  -20.7148   20.4990 C.3     1  UNL1        0.0245
     19 C          -4.2508  -20.4410   19.9381 C.3     1  UNL1        0.0278
     20 C          -3.4004  -19.3564   20.5299 C.ar    1  UNL1       -0.0255
     21 C          -2.0363  -19.0827   19.9690 C.ar    1  UNL1        0.0021
     22 C          -1.1858  -17.9981   20.5608 C.ar    1  UNL1        0.0342
     23 BR          0.1781  -17.7243   19.9999 Br      1  UNL1       -0.0490
     24 C          -1.6994  -17.1872   21.7137 C.ar    1  UNL1        0.0064
     25 C          -3.0633  -17.4610   22.2746 C.ar    1  UNL1       -0.0040
     26 C          -3.9138  -18.5456   21.6827 C.ar    1  UNL1       -0.0245
     27 C          -5.2777  -18.8194   22.2436 C.3     1  UNL1        0.0455
@<TRIPOS>BOND
     1     1     2    1
     2     2     3   ar
     3     3     4   ar
     4     4    15    1
     5    15    17    1
     6    17    18    1
     7    18    19    1
     8    19    20    1
     9    20    21   ar
    10    21    22   ar
    11    22    23    1
    12    22    24   ar
    13    24    25   ar
    14    25    26   ar
    15    26    27    1
    16     4     5   ar
    17     5     6   ar
    18     6     7   ar
    19     7    11    1
    20    11    12    1
    21    11    13    1
    22    11    14    1
    23     7     8   ar
    24     8     9   ar
    25     9    10   ar
    26    10     2   ar
    27    27    17    1
    28     9     5   ar
    29    26    20   ar
    30    15    16    1
@<TRIPOS>MOLECULE
*****
 27 30 0 0 0
SMALL
GASTEIGER

@<TRIPOS>ATOM
      1 C          -1.8156  -19.3496   19.8734 C.3     1  UNL1        0.0523
      2 C          -3.0459  -18.9026   20.6061 C.ar    1  UNL1        0.0653
      3 C          -4.3994  -19.3572   20.1462 C.ar    1  UNL1        0.0490
      4 C          -5.6296  -18.9101   20.8788 C.ar    1  UNL1        0.1342
      5 N          -5.5063  -18.0086   22.0713 N.ar    1  UNL1       -0.1816
      6 N          -6.5324  -17.4086   22.9862 N.ar    1  UNL1       -0.1409
      7 C          -5.8130  -16.5832   24.0116 C.ar    1  UNL1        0.2227
      8 N          -4.3424  -16.6731   23.7303 N.ar    1  UNL1       -0.1880
      9 C          -4.1528  -17.5541   22.5312 C.ar    1  UNL1        0.2552
     10 N          -2.9226  -18.0011   21.7985 N.ar    1  UNL1       -0.2142
     11 C          -6.4522  -15.8046   25.1231 C.3     1  UNL1        0.3163
     12 C          -7.0913  -15.0261   26.2345 C.3     1  UNL1        0.0805
     13 F          -5.0960  -15.3968   25.6173 F       1  UNL1       -0.1962
     14 F          -7.8084  -16.2124   24.6288 F       1  UNL1       -0.1962
     15 N          -6.9831  -19.3647   20.4190 N.pl3   1  UNL1       -0.3192
     16 H          -7.1041  -19.7006   19.5015 H       1  UNL1        0.1482
     17 C          -8.1522  -19.3073   21.3570 C.3     1  UNL1        0.0750
     18 C          -8.1201  -20.0779   22.6435 C.3     1  UNL1        0.0245
     19 C          -9.2893  -20.0205   23.5814 C.3     1  UNL1        0.0278
     20 C         -10.4905  -19.1925   23.2329 C.ar    1  UNL1       -0.0255
     21 C         -11.6597  -19.1352   24.1709 C.ar    1  UNL1        0.0021
     22 C         -12.8609  -18.3072   23.8223 C.ar    1  UNL1        0.0342
     23 BR        -14.0301  -18.2498   24.7603 Br      1  UNL1       -0.0490
     24 C         -12.8930  -17.5366   22.5358 C.ar    1  UNL1        0.0064
     25 C         -11.7239  -17.5940   21.5978 C.ar    1  UNL1       -0.0040
     26 C         -10.5226  -18.4220   21.9464 C.ar    1  UNL1       -0.0245
     27 C          -9.3535  -18.4794   21.0084 C.3     1  UNL1        0.0455
@<TRIPOS>BOND
     1     1     2    1
     2     2     3   ar
     3     3     4   ar
     4     4    15    1
     5    15    17    1
     6    17    18    1
     7    18    19    1
     8    19    20    1
     9    20    21   ar
    10    21    22   ar
    11    22    23    1
    12    22    24   ar
    13    24    25   ar
    14    25    26   ar
    15    26    27    1
    16     4     5   ar
    17     5     6   ar
    18     6     7   ar
    19     7    11    1
    20    11    12    1
    21    11    13    1
    22    11    14    1
    23     7     8   ar
    24     8     9   ar
    25     9    10   ar
    26    10     2   ar
    27    27    17    1
    28     9     5   ar
    29    26    20   ar
    30    15    16    1
@<TRIPOS>MOLECULE
*****
 27 30 0 0 0
SMALL
GASTEIGER

@<TRIPOS>ATOM
      1 C         -13.3815    0.6234   18.0160 C.3     1  UNL1        0.0523
      2 C         -13.1571   -0.7900   18.4654 C.ar    1  UNL1        0.0653
      3 C         -14.1704   -1.4692   19.3384 C.ar    1  UNL1        0.0490
      4 C         -13.9461   -2.8826   19.7878 C.ar    1  UNL1        0.1342
      5 N         -12.7085   -3.6168   19.3643 N.ar    1  UNL1       -0.1816
      6 N         -12.2189   -5.0059   19.6483 N.ar    1  UNL1       -0.1409
      7 C         -10.9031   -5.1853   18.9508 C.ar    1  UNL1        0.2227
      8 N         -10.5795   -3.9070   18.2358 N.ar    1  UNL1       -0.1880
      9 C         -11.6953   -2.9376   18.4913 C.ar    1  UNL1        0.2552
     10 N         -11.9196   -1.5242   18.0419 N.ar    1  UNL1       -0.2142
     11 C         -10.0591   -6.4252   18.9658 C.3     1  UNL1        0.3163
     12 C          -9.2151   -7.6652   18.9807 C.3     1  UNL1        0.0805
     13 F          -9.0060   -5.6991   19.7492 F       1  UNL1       -0.1962
     14 F         -11.1121   -7.1514   18.1824 F       1  UNL1       -0.1962
     15 N         -14.9593   -3.5618   20.6608 N.pl3   1  UNL1       -0.3192
     16 H         -15.0291   -3.3211   21.6128 H       1  UNL1        0.1482
     17 C         -15.8662   -4.6078   20.0831 C.3     1  UNL1        0.0750
     18 C         -17.3014   -4.2801   19.7956 C.3     1  UNL1        0.0245
     19 C         -18.2082   -5.3261   19.2180 C.3     1  UNL1        0.0278
     20 C         -17.6798   -6.6996   18.9279 C.ar    1  UNL1       -0.0255
     21 C         -18.5867   -7.7456   18.3503 C.ar    1  UNL1        0.0021
     22 C         -18.0583   -9.1191   18.0602 C.ar    1  UNL1        0.0342
     23 BR        -18.9651  -10.1651   17.4826 Br      1  UNL1       -0.0490
     24 C         -16.6230   -9.4467   18.3478 C.ar    1  UNL1        0.0064
     25 C         -15.7161   -8.4008   18.9254 C.ar    1  UNL1       -0.0040
     26 C         -16.2446   -7.0272   19.2155 C.ar    1  UNL1       -0.0245
     27 C         -15.3378   -5.9813   19.7931 C.3     1  UNL1        0.0455
@<TRIPOS>BOND
     1     1     2    1
     2     2     3   ar
     3     3     4   ar
     4     4    15    1
     5    15    17    1
     6    17    18    1
     7    18    19    1
     8    19    20    1
     9    20    21   ar
    10    21    22   ar
    11    22    23    1
    12    22    24   ar
    13    24    25   ar
    14    25    26   ar
    15    26    27    1
    16     4     5   ar
    17     5     6   ar
    18     6     7   ar
    19     7    11    1
    20    11    12    1
    21    11    13    1
    22    11    14    1
    23     7     8   ar
    24     8     9   ar
    25     9    10   ar
    26    10     2   ar
    27    27    17    1
    28     9     5   ar
    29    26    20   ar
    30    15    16    1
@<TRIPOS>MOLECULE
*****
 27 30 0 0 0
SMALL
GASTEIGER

@<TRIPOS>ATOM
      1 C         -10.5424  -16.7536   23.7994 C.3     1  UNL1        0.0523
      2 C          -9.9405  -17.7190   22.8218 C.ar    1  UNL1        0.0653
      3 C          -8.6791  -18.4517   23.1713 C.ar    1  UNL1        0.0490
      4 C          -8.0771  -19.4171   22.1938 C.ar    1  UNL1        0.1342
      5 N          -8.7366  -19.6499   20.8667 N.ar    1  UNL1       -0.1816
      6 N          -8.3784  -20.5342   19.7094 N.ar    1  UNL1       -0.1409
      7 C          -9.4184  -20.3481   18.6446 C.ar    1  UNL1        0.2227
      8 N         -10.4194  -19.3488   19.1439 N.ar    1  UNL1       -0.1880
      9 C          -9.9980  -18.9172   20.5173 C.ar    1  UNL1        0.2552
     10 N         -10.5999  -17.9518   21.4949 N.ar    1  UNL1       -0.2142
     11 C          -9.4516  -21.0399   17.3140 C.3     1  UNL1        0.3163
     12 C          -9.4848  -21.7317   15.9835 C.3     1  UNL1        0.0805
     13 F          -8.2502  -21.8486   17.7044 F       1  UNL1       -0.1962
     14 F         -10.6530  -20.2312   16.9235 F       1  UNL1       -0.1962
     15 N          -6.8158  -20.1498   22.5432 N.pl3   1  UNL1       -0.3192
     16 H          -6.8368  -20.8780   23.2055 H       1  UNL1        0.1482
     17 C          -5.5223  -19.7730   21.8836 C.3     1  UNL1        0.0750
     18 C          -5.0196  -20.5637   20.7122 C.3     1  UNL1        0.0245
     19 C          -3.7262  -20.1869   20.0526 C.3     1  UNL1        0.0278
     20 C          -2.9355  -19.0195   20.5645 C.ar    1  UNL1       -0.0255
     21 C          -1.6420  -18.6428   19.9048 C.ar    1  UNL1        0.0021
     22 C          -0.8513  -17.4754   20.4166 C.ar    1  UNL1        0.0342
     23 BR          0.4422  -17.0986   19.7571 Br      1  UNL1       -0.0490
     24 C          -1.3540  -16.6847   21.5881 C.ar    1  UNL1        0.0064
     25 C          -2.6474  -17.0615   22.2476 C.ar    1  UNL1       -0.0040
     26 C          -3.4382  -18.2289   21.7358 C.ar    1  UNL1       -0.0245
     27 C          -4.7316  -18.6057   22.3954 C.3     1  UNL1        0.0455
@<TRIPOS>BOND
     1     1     2    1
     2     2     3   ar
     3     3     4   ar
     4     4    15    1
     5    15    17    1
     6    17    18    1
     7    18    19    1
     8    19    20    1
     9    20    21   ar
    10    21    22   ar
    11    22    23    1
    12    22    24   ar
    13    24    25   ar
    14    25    26   ar
    15    26    27    1
    16     4     5   ar
    17     5     6   ar
    18     6     7   ar
    19     7    11    1
    20    11    12    1
    21    11    13    1
    22    11    14    1
    23     7     8   ar
    24     8     9   ar
    25     9    10   ar
    26    10     2   ar
    27    27    17    1
    28     9     5   ar
    29    26    20   ar
    30    15    16    1
@<TRIPOS>MOLECULE
*****
 27 30 0 0 0
SMALL
GASTEIGER

@<TRIPOS>ATOM
      1 C          -9.1348  -22.2887   17.4842 C.3     1  UNL1        0.0523
      2 C          -8.4687  -21.3278   18.4238 C.ar    1  UNL1        0.0653
      3 C          -9.2341  -20.1578   18.9674 C.ar    1  UNL1        0.0490
      4 C          -8.5680  -19.1969   19.9070 C.ar    1  UNL1        0.1342
      5 N          -7.1364  -19.4060   20.3031 N.ar    1  UNL1       -0.1816
      6 N          -6.2211  -18.6316   21.2045 N.ar    1  UNL1       -0.1409
      7 C          -4.8900  -19.3229   21.2181 C.ar    1  UNL1        0.2227
      8 N          -4.9826  -20.5245   20.3251 N.ar    1  UNL1       -0.1880
      9 C          -6.3710  -20.5759   19.7596 C.ar    1  UNL1        0.2552
     10 N          -7.0371  -21.5368   18.8200 N.ar    1  UNL1       -0.2142
     11 C          -3.6788  -18.8887   21.9893 C.3     1  UNL1        0.3163
     12 C          -2.4678  -18.4546   22.7605 C.3     1  UNL1        0.0805
     13 F          -2.8671  -19.9544   21.3145 F       1  UNL1       -0.1962
     14 F          -4.4906  -17.8231   22.6641 F       1  UNL1       -0.1962
     15 N          -9.3334  -18.0270   20.4505 N.pl3   1  UNL1       -0.3192
     16 H          -9.9690  -17.5440   19.8743 H       1  UNL1        0.1482
     17 C          -9.1304  -17.5930   21.8720 C.3     1  UNL1        0.0750
     18 C         -10.1159  -17.9979   22.9278 C.3     1  UNL1        0.0245
     19 C          -9.9129  -17.5638   24.3492 C.3     1  UNL1        0.0278
     20 C          -8.7244  -16.7248   24.7147 C.ar    1  UNL1       -0.0255
     21 C          -8.5214  -16.2908   26.1362 C.ar    1  UNL1        0.0021
     22 C          -7.3329  -15.4518   26.5017 C.ar    1  UNL1        0.0342
     23 BR         -7.1299  -15.0177   27.9231 Br      1  UNL1       -0.0490
     24 C          -6.3474  -15.0469   25.4458 C.ar    1  UNL1        0.0064
     25 C          -6.5504  -15.4810   24.0244 C.ar    1  UNL1       -0.0040
     26 C          -7.7389  -16.3199   23.6589 C.ar    1  UNL1       -0.0245
     27 C          -7.9419  -16.7540   22.2375 C.3     1  UNL1        0.0455
@<TRIPOS>BOND
     1     1     2    1
     2     2     3   ar
     3     3     4   ar
     4     4    15    1
     5    15    17    1
     6    17    18    1
     7    18    19    1
     8    19    20    1
     9    20    21   ar
    10    21    22   ar
    11    22    23    1
    12    22    24   ar
    13    24    25   ar
    14    25    26   ar
    15    26    27    1
    16     4     5   ar
    17     5     6   ar
    18     6     7   ar
    19     7    11    1
    20    11    12    1
    21    11    13    1
    22    11    14    1
    23     7     8   ar
    24     8     9   ar
    25     9    10   ar
    26    10     2   ar
    27    27    17    1
    28     9     5   ar
    29    26    20   ar
    30    15    16    1
@<TRIPOS>MOLECULE
*****
 27 30 0 0 0
SMALL
GASTEIGER

@<TRIPOS>ATOM
      1 C          -2.9259    3.9742   15.9820 C.3     1  UNL1        0.0523
      2 C          -2.6725    3.8539   17.4555 C.ar    1  UNL1        0.0653
      3 C          -1.2729    3.6713   17.9634 C.ar    1  UNL1        0.0490
      4 C          -1.0194    3.5510   19.4369 C.ar    1  UNL1        0.1342
      5 N          -2.1656    3.6133   20.4026 N.ar    1  UNL1       -0.1816
      6 N          -2.2232    3.5251   21.8989 N.ar    1  UNL1       -0.1409
      7 C          -3.6585    3.6531   22.3158 C.ar    1  UNL1        0.2227
      8 N          -4.4878    3.8205   21.0772 N.ar    1  UNL1       -0.1880
      9 C          -3.5651    3.7959   19.8948 C.ar    1  UNL1        0.2552
     10 N          -3.8186    3.9162   18.4212 N.ar    1  UNL1       -0.2142
     11 C          -4.1738    3.6196   23.7241 C.3     1  UNL1        0.3163
     12 C          -4.6892    3.5862   25.1324 C.3     1  UNL1        0.0805
     13 F          -5.0464    2.4500   23.3771 F       1  UNL1       -0.1962
     14 F          -3.3013    4.7893   24.0712 F       1  UNL1       -0.1962
     15 N           0.3801    3.3684   19.9448 N.pl3   1  UNL1       -0.3192
     16 H           0.8767    4.1376   20.3066 H       1  UNL1        0.1482
     17 C           1.0229    2.0138   19.9014 C.3     1  UNL1        0.0750
     18 C           0.6480    0.9729   20.9142 C.3     1  UNL1        0.0245
     19 C           1.2909   -0.3816   20.8708 C.3     1  UNL1        0.0278
     20 C           2.3087   -0.6952   19.8145 C.ar    1  UNL1       -0.0255
     21 C           2.9516   -2.0499   19.7711 C.ar    1  UNL1        0.0021
     22 C           3.9694   -2.3635   18.7149 C.ar    1  UNL1        0.0342
     23 BR          4.6123   -3.7180   18.6714 Br      1  UNL1       -0.0490
     24 C           4.3443   -1.3225   17.7020 C.ar    1  UNL1        0.0064
     25 C           3.7015    0.0321   17.7454 C.ar    1  UNL1       -0.0040
     26 C           2.6836    0.3457   18.8017 C.ar    1  UNL1       -0.0245
     27 C           2.0408    1.7002   18.8451 C.3     1  UNL1        0.0455
@<TRIPOS>BOND
     1     1     2    1
     2     2     3   ar
     3     3     4   ar
     4     4    15    1
     5    15    17    1
     6    17    18    1
     7    18    19    1
     8    19    20    1
     9    20    21   ar
    10    21    22   ar
    11    22    23    1
    12    22    24   ar
    13    24    25   ar
    14    25    26   ar
    15    26    27    1
    16     4     5   ar
    17     5     6   ar
    18     6     7   ar
    19     7    11    1
    20    11    12    1
    21    11    13    1
    22    11    14    1
    23     7     8   ar
    24     8     9   ar
    25     9    10   ar
    26    10     2   ar
    27    27    17    1
    28     9     5   ar
    29    26    20   ar
    30    15    16    1
@<TRIPOS>MOLECULE
*****
 27 30 0 0 0
SMALL
GASTEIGER

@<TRIPOS>ATOM
      1 C           3.3644   -5.0299   19.4013 C.3     1  UNL1        0.0523
      2 C           4.4474   -3.9978   19.2929 C.ar    1  UNL1        0.0653
      3 C           5.6025   -4.0193   20.2497 C.ar    1  UNL1        0.0490
      4 C           6.6855   -2.9871   20.1413 C.ar    1  UNL1        0.1342
      5 N           6.6135   -1.9335   19.0760 N.ar    1  UNL1       -0.1816
      6 N           7.5255   -0.7949   18.7273 N.ar    1  UNL1       -0.1409
      7 C           6.9342   -0.0697   17.5549 C.ar    1  UNL1        0.2227
      8 N           5.6567   -0.7601   17.1792 N.ar    1  UNL1       -0.1880
      9 C           5.4584   -1.9120   18.1193 C.ar    1  UNL1        0.2552
     10 N           4.3754   -2.9442   18.2277 N.ar    1  UNL1       -0.2142
     11 C           7.5179    1.1346   16.8773 C.3     1  UNL1        0.3163
     12 C           8.1016    2.3388   16.1997 C.3     1  UNL1        0.0805
     13 F           8.7190    1.0561   17.7724 F       1  UNL1       -0.1962
     14 F           6.3168    1.2131   15.9823 F       1  UNL1       -0.1962
     15 N           7.8405   -3.0086   21.0981 N.pl3   1  UNL1       -0.3192
     16 H           8.4892   -2.2681   21.1032 H       1  UNL1        0.1482
     17 C           8.0071   -4.1583   22.0470 C.3     1  UNL1        0.0750
     18 C           8.7826   -5.3715   21.6265 C.3     1  UNL1        0.0245
     19 C           8.9492   -6.5212   22.5754 C.3     1  UNL1        0.0278
     20 C           8.3403   -6.4577   23.9448 C.ar    1  UNL1       -0.0255
     21 C           8.5070   -7.6074   24.8937 C.ar    1  UNL1        0.0021
     22 C           7.8982   -7.5439   26.2631 C.ar    1  UNL1        0.0342
     23 BR          8.0648   -8.6936   27.2120 Br      1  UNL1       -0.0490
     24 C           7.1227   -6.3306   26.6836 C.ar    1  UNL1        0.0064
     25 C           6.9561   -5.1810   25.7347 C.ar    1  UNL1       -0.0040
     26 C           7.5649   -5.2445   24.3653 C.ar    1  UNL1       -0.0245
     27 C           7.3983   -4.0948   23.4164 C.3     1  UNL1        0.0455
@<TRIPOS>BOND
     1     1     2    1
     2     2     3   ar
     3     3     4   ar
     4     4    15    1
     5    15    17    1
     6    17    18    1
     7    18    19    1
     8    19    20    1
     9    20    21   ar
    10    21    22   ar
    11    22    23    1
    12    22    24   ar
    13    24    25   ar
    14    25    26   ar
    15    26    27    1
    16     4     5   ar
    17     5     6   ar
    18     6     7   ar
    19     7    11    1
    20    11    12    1
    21    11    13    1
    22    11    14    1
    23     7     8   ar
    24     8     9   ar
    25     9    10   ar
    26    10     2   ar
    27    27    17    1
    28     9     5   ar
    29    26    20   ar
    30    15    16    1
@<TRIPOS>MOLECULE
*****
 27 30 0 0 0
SMALL
GASTEIGER

@<TRIPOS>ATOM
      1 C           5.6407    3.9069   25.0748 C.3     1  UNL1        0.0523
      2 C           4.3175    3.2142   25.2134 C.ar    1  UNL1        0.0653
      3 C           3.5202    2.8685   23.9907 C.ar    1  UNL1        0.0490
      4 C           2.1970    2.1758   24.1293 C.ar    1  UNL1        0.1342
      5 N           1.6711    1.8287   25.4906 N.ar    1  UNL1       -0.1816
      6 N           0.4093    1.1509   25.9362 N.ar    1  UNL1       -0.1409
      7 C           0.4269    1.0776   27.4343 C.ar    1  UNL1        0.2227
      8 N           1.6994    1.7101   27.9145 N.ar    1  UNL1       -0.1880
      9 C           2.4684    2.1743   26.7132 C.ar    1  UNL1        0.2552
     10 N           3.7916    2.8670   26.5746 N.ar    1  UNL1       -0.2142
     11 C          -0.6408    0.4772   28.3003 C.3     1  UNL1        0.3163
     12 C          -1.7083   -0.1232   29.1661 C.3     1  UNL1        0.0805
     13 F          -1.6343    1.4613   27.7577 F       1  UNL1       -0.1962
     14 F           0.3527   -0.5069   28.8428 F       1  UNL1       -0.1962
     15 N           1.3997    1.8302   22.9067 N.pl3   1  UNL1       -0.3192
     16 H           0.5929    2.3480   22.6825 H       1  UNL1        0.1482
     17 C           1.8315    0.6956   22.0256 C.3     1  UNL1        0.0750
     18 C           1.2958    0.5846   20.6290 C.3     1  UNL1        0.0245
     19 C           1.7276   -0.5500   19.7480 C.3     1  UNL1        0.0278
     20 C           2.6953   -1.5736   20.2636 C.ar    1  UNL1       -0.0255
     21 C           3.1272   -2.7082   19.3825 C.ar    1  UNL1        0.0021
     22 C           4.0948   -3.7318   19.8982 C.ar    1  UNL1        0.0342
     23 BR          4.5267   -4.8664   19.0172 Br      1  UNL1       -0.0490
     24 C           4.6306   -3.6208   21.2949 C.ar    1  UNL1        0.0064
     25 C           4.1987   -2.4862   22.1759 C.ar    1  UNL1       -0.0040
     26 C           3.2311   -1.4626   21.6602 C.ar    1  UNL1       -0.0245
     27 C           2.7992   -0.3281   22.5412 C.3     1  UNL1        0.0455
@<TRIPOS>BOND
     1     1     2    1
     2     2     3   ar
     3     3     4   ar
     4     4    15    1
     5    15    17    1
     6    17    18    1
     7    18    19    1
     8    19    20    1
     9    20    21   ar
    10    21    22   ar
    11    22    23    1
    12    22    24   ar
    13    24    25   ar
    14    25    26   ar
    15    26    27    1
    16     4     5   ar
    17     5     6   ar
    18     6     7   ar
    19     7    11    1
    20    11    12    1
    21    11    13    1
    22    11    14    1
    23     7     8   ar
    24     8     9   ar
    25     9    10   ar
    26    10     2   ar
    27    27    17    1
    28     9     5   ar
    29    26    20   ar
    30    15    16    1
