@<TRIPOS>MOLECULE
*****
 25 27 0 0 0
SMALL
GASTEIGER

@<TRIPOS>ATOM
      1 C          -8.1257  -18.3096   22.6832 C.2     1  UNL1       -0.0245
      2 C          -7.6970  -17.0983   23.4571 C.2     1  UNL1       -0.0421
      3 C          -6.2077  -16.9708   23.3307 C.3     1  UNL1        0.0480
      4 C          -5.7161  -18.1033   22.4787 C.ar    1  UNL1       -0.0187
      5 C          -4.3423  -18.4879   22.0156 C.ar    1  UNL1       -0.0082
      6 C          -4.1538  -19.7001   21.1524 C.ar    1  UNL1       -0.0222
      7 C          -2.7799  -20.0848   20.6893 C.3     1  UNL1        0.0310
      8 C          -5.3392  -20.5275   20.7522 C.ar    1  UNL1       -0.0043
      9 C          -6.7131  -20.1428   21.2153 C.ar    1  UNL1       -0.0009
     10 C          -6.9016  -18.9307   22.0786 C.ar    1  UNL1       -0.0079
     11 C          -9.5319  -18.8117   22.5393 C.3     1  UNL1        0.0666
     12 C          -9.9031  -20.1648   23.0699 C.3     1  UNL1        0.0112
     13 C         -10.5762  -17.8350   20.3701 C.ar    1  UNL1        0.2393
     14 N         -11.6112  -16.9841   19.6957 N.ar    1  UNL1       -0.2075
     15 C         -12.6366  -16.2591   20.5158 C.ar    1  UNL1        0.1227
     16 C         -12.6272  -16.3849   22.0105 C.ar    1  UNL1        0.1193
     17 N         -11.5923  -17.2358   22.6850 N.ar    1  UNL1       -0.2415
     18 C         -10.5667  -17.9609   21.8648 C.ar    1  UNL1        0.1156
     19 C          -9.7996  -19.9746   19.1176 C.3     1  UNL1        0.2543
     20 O          -9.5508  -18.5600   19.5498 O.3     1  UNL1       -0.4553
     21 C          -8.5990  -16.1764   24.2228 C.3     1  UNL1        0.0394
     22 C          -8.0121  -15.1077   25.0966 C.3     1  UNL1        0.0765
     23 N          -7.3835  -15.4729   26.4086 N.3     1  UNL1       -0.2700
     24 C          -5.9051  -15.3099   26.6031 C.3     1  UNL1        0.0897
     25 C          -8.2333  -16.0010   27.5262 C.3     1  UNL1        0.0897
@<TRIPOS>BOND
     1    19    20    1
     2    20    13    1
     3    13    14   ar
     4    14    15   ar
     5    15    16   ar
     6    16    17   ar
     7    17    18   ar
     8    18    11    1
     9    11    12    1
    10    11     1    1
    11     1     2    2
    12     2    21    1
    13    21    22    1
    14    22    23    1
    15    23    24    1
    16    23    25    1
    17     2     3    1
    18     3     4    1
    19     4     5   ar
    20     5     6   ar
    21     6     7    1
    22     6     8   ar
    23     8     9   ar
    24     9    10   ar
    25    18    13   ar
    26    10     1    1
    27    10     4   ar
@<TRIPOS>MOLECULE
*****
 25 27 0 0 0
SMALL
GASTEIGER

@<TRIPOS>ATOM
      1 C          -7.9657  -17.9832   22.0866 C.2     1  UNL1       -0.0245
      2 C          -8.6347  -18.9891   21.1975 C.2     1  UNL1       -0.0421
      3 C          -7.5778  -19.9074   20.6593 C.3     1  UNL1        0.0480
      4 C          -6.2556  -19.4691   21.2158 C.ar    1  UNL1       -0.0187
      5 C          -4.8644  -19.9992   21.0333 C.ar    1  UNL1       -0.0082
      6 C          -3.7129  -19.3400   21.7329 C.ar    1  UNL1       -0.0222
      7 C          -2.3215  -19.8701   21.5504 C.3     1  UNL1        0.0310
      8 C          -3.9526  -18.1508   22.6151 C.ar    1  UNL1       -0.0043
      9 C          -5.3439  -17.6207   22.7976 C.ar    1  UNL1       -0.0009
     10 C          -6.4954  -18.2798   22.0980 C.ar    1  UNL1       -0.0079
     11 C          -8.6474  -16.8752   22.8334 C.3     1  UNL1        0.0666
     12 C          -9.3962  -15.8143   22.0823 C.3     1  UNL1        0.0112
     13 C          -9.3679  -17.8083   25.1485 C.ar    1  UNL1        0.2393
     14 N          -9.3007  -17.7609   26.6463 N.ar    1  UNL1       -0.2075
     15 C          -8.4460  -16.7331   27.3266 C.ar    1  UNL1        0.1227
     16 C          -7.6583  -15.7525   26.5092 C.ar    1  UNL1        0.1193
     17 N          -7.7254  -15.7999   25.0114 N.ar    1  UNL1       -0.2415
     18 C          -8.5803  -16.8278   24.3310 C.ar    1  UNL1        0.1156
     19 C          -9.8452  -20.2865   24.5316 C.3     1  UNL1        0.2543
     20 O         -10.2227  -18.8362   24.4683 O.3     1  UNL1       -0.4553
     21 C         -10.1028  -19.0636   20.8989 C.3     1  UNL1        0.0394
     22 C         -10.6946  -18.1994   19.8252 C.3     1  UNL1        0.0765
     23 N         -11.7520  -17.1930   20.1703 N.3     1  UNL1       -0.2700
     24 C         -11.8485  -15.9114   19.3969 C.3     1  UNL1        0.0897
     25 C         -12.7129  -17.4683   21.2887 C.3     1  UNL1        0.0897
@<TRIPOS>BOND
     1    19    20    1
     2    20    13    1
     3    13    14   ar
     4    14    15   ar
     5    15    16   ar
     6    16    17   ar
     7    17    18   ar
     8    18    11    1
     9    11    12    1
    10    11     1    1
    11     1     2    2
    12     2    21    1
    13    21    22    1
    14    22    23    1
    15    23    24    1
    16    23    25    1
    17     2     3    1
    18     3     4    1
    19     4     5   ar
    20     5     6   ar
    21     6     7    1
    22     6     8   ar
    23     8     9   ar
    24     9    10   ar
    25    18    13   ar
    26    10     1    1
    27    10     4   ar
@<TRIPOS>MOLECULE
*****
 25 27 0 0 0
SMALL
GASTEIGER

@<TRIPOS>ATOM
      1 C          -8.2703  -18.2790   22.5445 C.2     1  UNL1       -0.0245
      2 C          -7.8691  -17.1359   23.4290 C.2     1  UNL1       -0.0421
      3 C          -6.3720  -17.0436   23.4165 C.3     1  UNL1        0.0480
      4 C          -5.8480  -18.1296   22.5243 C.ar    1  UNL1       -0.0187
      5 C          -4.4541  -18.5219   22.1330 C.ar    1  UNL1       -0.0082
      6 C          -4.2335  -19.6777   21.2028 C.ar    1  UNL1       -0.0222
      7 C          -2.8395  -20.0700   20.8114 C.3     1  UNL1        0.0310
      8 C          -5.4068  -20.4413   20.6639 C.ar    1  UNL1       -0.0043
      9 C          -6.8006  -20.0490   21.0551 C.ar    1  UNL1       -0.0009
     10 C          -7.0213  -18.8932   21.9854 C.ar    1  UNL1       -0.0079
     11 C          -9.6742  -18.7290   22.2677 C.3     1  UNL1        0.0666
     12 C         -10.1353  -20.0779   22.7348 C.3     1  UNL1        0.0112
     13 C         -11.8457  -17.3040   22.2047 C.ar    1  UNL1        0.2393
     14 N         -12.7885  -16.4052   21.4609 N.ar    1  UNL1       -0.2075
     15 C         -12.5028  -16.0327   20.0363 C.ar    1  UNL1        0.1227
     16 C         -11.2741  -16.5590   19.3554 C.ar    1  UNL1        0.1193
     17 N         -10.3313  -17.4578   20.0993 N.ar    1  UNL1       -0.2415
     18 C         -10.6171  -17.8303   21.5240 C.ar    1  UNL1        0.1156
     19 C         -13.5077  -18.1217   24.0265 C.3     1  UNL1        0.2543
     20 O         -12.1315  -17.6764   23.6294 O.3     1  UNL1       -0.4553
     21 C          -8.8013  -16.2421   24.1920 C.3     1  UNL1        0.0394
     22 C          -8.2587  -15.2989   25.2244 C.3     1  UNL1        0.0765
     23 N          -7.7966  -15.8242   26.5512 N.3     1  UNL1       -0.2700
     24 C          -6.5369  -15.2946   27.1701 C.3     1  UNL1        0.0897
     25 C          -8.5940  -16.8790   27.2592 C.3     1  UNL1        0.0897
@<TRIPOS>BOND
     1    19    20    1
     2    20    13    1
     3    13    14   ar
     4    14    15   ar
     5    15    16   ar
     6    16    17   ar
     7    17    18   ar
     8    18    11    1
     9    11    12    1
    10    11     1    1
    11     1     2    2
    12     2    21    1
    13    21    22    1
    14    22    23    1
    15    23    24    1
    16    23    25    1
    17     2     3    1
    18     3     4    1
    19     4     5   ar
    20     5     6   ar
    21     6     7    1
    22     6     8   ar
    23     8     9   ar
    24     9    10   ar
    25    18    13   ar
    26    10     1    1
    27    10     4   ar
@<TRIPOS>MOLECULE
*****
 25 27 0 0 0
SMALL
GASTEIGER

@<TRIPOS>ATOM
      1 C          -7.3344  -18.5141   21.7733 C.2     1  UNL1       -0.0245
      2 C          -5.8895  -18.9162   21.7525 C.2     1  UNL1       -0.0421
      3 C          -5.6852  -19.8510   20.5973 C.3     1  UNL1        0.0480
      4 C          -7.0039  -20.0267   19.9043 C.ar    1  UNL1       -0.0187
      5 C          -7.4081  -20.8323   18.7054 C.ar    1  UNL1       -0.0082
      6 C          -8.8317  -20.8116   18.2332 C.ar    1  UNL1       -0.0222
      7 C          -9.2361  -21.6172   17.0342 C.3     1  UNL1        0.0310
      8 C          -9.8510  -19.9853   18.9600 C.ar    1  UNL1       -0.0043
      9 C          -9.4467  -19.1797   20.1590 C.ar    1  UNL1       -0.0009
     10 C          -8.0232  -19.2004   20.6311 C.ar    1  UNL1       -0.0079
     11 C          -7.9777  -17.5882   22.7627 C.3     1  UNL1        0.0666
     12 C          -7.2246  -16.3956   23.2735 C.3     1  UNL1        0.0112
     13 C         -10.5221  -17.0692   22.6799 C.ar    1  UNL1        0.2393
     14 N         -11.9184  -17.3358   23.1586 N.ar    1  UNL1       -0.2075
     15 C         -12.1669  -18.3877   24.1986 C.ar    1  UNL1        0.1227
     16 C         -11.0188  -19.1731   24.7601 C.ar    1  UNL1        0.1193
     17 N          -9.6225  -18.9066   24.2814 N.ar    1  UNL1       -0.2415
     18 C          -9.3740  -17.8546   23.2413 C.ar    1  UNL1        0.1156
     19 C         -11.1725  -15.9191   20.4429 C.3     1  UNL1        0.2543
     20 O         -10.2738  -16.0173   21.6398 O.3     1  UNL1       -0.4553
     21 C          -4.8341  -18.4630   22.7173 C.3     1  UNL1        0.0394
     22 C          -3.3837  -18.5928   22.3577 C.3     1  UNL1        0.0765
     23 N          -2.7500  -17.6014   21.4273 N.3     1  UNL1       -0.2700
     24 C          -2.3161  -16.2609   21.9420 C.3     1  UNL1        0.0897
     25 C          -2.5503  -17.9505   19.9823 C.3     1  UNL1        0.0897
@<TRIPOS>BOND
     1    19    20    1
     2    20    13    1
     3    13    14   ar
     4    14    15   ar
     5    15    16   ar
     6    16    17   ar
     7    17    18   ar
     8    18    11    1
     9    11    12    1
    10    11     1    1
    11     1     2    2
    12     2    21    1
    13    21    22    1
    14    22    23    1
    15    23    24    1
    16    23    25    1
    17     2     3    1
    18     3     4    1
    19     4     5   ar
    20     5     6   ar
    21     6     7    1
    22     6     8   ar
    23     8     9   ar
    24     9    10   ar
    25    18    13   ar
    26    10     1    1
    27    10     4   ar
@<TRIPOS>MOLECULE
*****
 25 27 0 0 0
SMALL
GASTEIGER

@<TRIPOS>ATOM
      1 C          -7.1508  -18.4831   21.7437 C.2     1  UNL1       -0.0245
      2 C          -5.7658  -19.0410   21.8867 C.2     1  UNL1       -0.0421
      3 C          -5.5959  -20.1267   20.8657 C.3     1  UNL1        0.0480
      4 C          -6.8758  -20.2399   20.0918 C.ar    1  UNL1       -0.0187
      5 C          -7.2903  -21.1366   18.9631 C.ar    1  UNL1       -0.0082
      6 C          -8.6659  -21.0175   18.3770 C.ar    1  UNL1       -0.0222
      7 C          -9.0805  -21.9142   17.2483 C.3     1  UNL1        0.0310
      8 C          -9.6270  -20.0016   18.9196 C.ar    1  UNL1       -0.0043
      9 C          -9.2124  -19.1049   20.0483 C.ar    1  UNL1       -0.0009
     10 C          -7.8369  -19.2240   20.6344 C.ar    1  UNL1       -0.0079
     11 C          -7.7455  -17.3783   22.5657 C.3     1  UNL1        0.0666
     12 C          -6.8589  -16.5093   23.4078 C.3     1  UNL1        0.0112
     13 C         -10.1199  -17.9019   23.4810 C.ar    1  UNL1        0.2393
     14 N         -11.6011  -17.6658   23.4609 N.ar    1  UNL1       -0.2075
     15 C         -12.1890  -16.6701   22.5055 C.ar    1  UNL1        0.1227
     16 C         -11.2958  -15.9104   21.5701 C.ar    1  UNL1        0.1193
     17 N          -9.8146  -16.1465   21.5902 N.ar    1  UNL1       -0.2415
     18 C          -9.2266  -17.1422   22.5457 C.ar    1  UNL1        0.1156
     19 C          -9.5110  -20.3550   24.0822 C.3     1  UNL1        0.2543
     20 O          -9.5321  -18.8976   24.4365 O.3     1  UNL1       -0.4553
     21 C          -4.7323  -18.5921   22.8767 C.3     1  UNL1        0.0394
     22 C          -3.5913  -17.7271   22.4297 C.3     1  UNL1        0.0765
     23 N          -2.6251  -18.2331   21.3999 N.3     1  UNL1       -0.2700
     24 C          -2.1629  -17.3282   20.2965 C.3     1  UNL1        0.0897
     25 C          -2.1213  -19.6440   21.4735 C.3     1  UNL1        0.0897
@<TRIPOS>BOND
     1    19    20    1
     2    20    13    1
     3    13    14   ar
     4    14    15   ar
     5    15    16   ar
     6    16    17   ar
     7    17    18   ar
     8    18    11    1
     9    11    12    1
    10    11     1    1
    11     1     2    2
    12     2    21    1
    13    21    22    1
    14    22    23    1
    15    23    24    1
    16    23    25    1
    17     2     3    1
    18     3     4    1
    19     4     5   ar
    20     5     6   ar
    21     6     7    1
    22     6     8   ar
    23     8     9   ar
    24     9    10   ar
    25    18    13   ar
    26    10     1    1
    27    10     4   ar
@<TRIPOS>MOLECULE
*****
 25 27 0 0 0
SMALL
GASTEIGER

@<TRIPOS>ATOM
      1 C          -7.3237  -18.4206   21.6535 C.2     1  UNL1       -0.0245
      2 C          -6.0080  -19.1012   21.4177 C.2     1  UNL1       -0.0421
      3 C          -5.0135  -18.5365   22.3884 C.3     1  UNL1        0.0480
      4 C          -5.7147  -17.5070   23.2242 C.ar    1  UNL1       -0.0187
      5 C          -5.2375  -16.6256   24.3401 C.ar    1  UNL1       -0.0082
      6 C          -6.1880  -15.6724   25.0018 C.ar    1  UNL1       -0.0222
      7 C          -5.7108  -14.7909   26.1177 C.3     1  UNL1        0.0310
      8 C          -7.6158  -15.6008   24.5476 C.ar    1  UNL1       -0.0043
      9 C          -8.0930  -16.4822   23.4317 C.ar    1  UNL1       -0.0009
     10 C          -7.1425  -17.4353   22.7700 C.ar    1  UNL1       -0.0079
     11 C          -8.5972  -18.6797   20.9045 C.3     1  UNL1        0.0666
     12 C          -8.5778  -19.5150   19.6586 C.3     1  UNL1        0.0112
     13 C         -10.7245  -18.8707   22.3837 C.ar    1  UNL1        0.2393
     14 N         -12.0173  -18.2947   22.8803 N.ar    1  UNL1       -0.2075
     15 C         -12.4758  -16.9516   22.3944 C.ar    1  UNL1        0.1227
     16 C         -11.6413  -16.1846   21.4119 C.ar    1  UNL1        0.1193
     17 N         -10.3485  -16.7606   20.9152 N.ar    1  UNL1       -0.2415
     18 C          -9.8900  -18.1037   21.4011 C.ar    1  UNL1        0.1156
     19 C          -9.5254  -20.3285   24.1689 C.3     1  UNL1        0.2543
     20 O         -10.2661  -20.2138   22.8696 O.3     1  UNL1       -0.4553
     21 C          -5.7347  -20.1604   20.3914 C.3     1  UNL1        0.0394
     22 C          -4.3259  -20.6018   20.1259 C.3     1  UNL1        0.0765
     23 N          -3.2176  -19.5917   20.0902 N.3     1  UNL1       -0.2700
     24 C          -3.2524  -18.4751   19.0892 C.3     1  UNL1        0.0897
     25 C          -2.0744  -19.6982   21.0555 C.3     1  UNL1        0.0897
@<TRIPOS>BOND
     1    19    20    1
     2    20    13    1
     3    13    14   ar
     4    14    15   ar
     5    15    16   ar
     6    16    17   ar
     7    17    18   ar
     8    18    11    1
     9    11    12    1
    10    11     1    1
    11     1     2    2
    12     2    21    1
    13    21    22    1
    14    22    23    1
    15    23    24    1
    16    23    25    1
    17     2     3    1
    18     3     4    1
    19     4     5   ar
    20     5     6   ar
    21     6     7    1
    22     6     8   ar
    23     8     9   ar
    24     9    10   ar
    25    18    13   ar
    26    10     1    1
    27    10     4   ar
@<TRIPOS>MOLECULE
*****
 25 27 0 0 0
SMALL
GASTEIGER

@<TRIPOS>ATOM
      1 C          -8.5442  -17.0785   22.5661 C.2     1  UNL1       -0.0245
      2 C          -7.9614  -18.4030   22.1711 C.2     1  UNL1       -0.0421
      3 C          -9.0955  -19.3336   21.8584 C.3     1  UNL1        0.0480
      4 C         -10.3792  -18.5842   22.0601 C.ar    1  UNL1       -0.0187
      5 C         -11.8143  -18.9910   21.9020 C.ar    1  UNL1       -0.0082
      6 C         -12.9087  -18.0039   22.1813 C.ar    1  UNL1       -0.0222
      7 C         -14.3438  -18.4106   22.0232 C.3     1  UNL1        0.0310
      8 C         -12.5679  -16.6101   22.6186 C.ar    1  UNL1       -0.0043
      9 C         -11.1328  -16.2034   22.7767 C.ar    1  UNL1       -0.0009
     10 C         -10.0385  -17.1905   22.4975 C.ar    1  UNL1       -0.0079
     11 C          -7.7689  -15.8564   22.9604 C.3     1  UNL1        0.0666
     12 C          -7.4309  -14.8183   21.9317 C.3     1  UNL1        0.0112
     13 C          -5.8769  -15.4957   24.7040 C.ar    1  UNL1        0.2393
     14 N          -5.4396  -15.3117   26.1270 N.ar    1  UNL1       -0.2075
     15 C          -6.4568  -15.3044   27.2293 C.ar    1  UNL1        0.1227
     16 C          -7.9115  -15.4811   26.9087 C.ar    1  UNL1        0.1193
     17 N          -8.3488  -15.6651   25.4857 N.ar    1  UNL1       -0.2415
     18 C          -7.3315  -15.6724   24.3833 C.ar    1  UNL1        0.1156
     19 C          -3.9448  -16.6797   23.4331 C.3     1  UNL1        0.2543
     20 O          -4.8596  -15.5029   23.6017 O.3     1  UNL1       -0.4553
     21 C          -6.5010  -18.7381   22.1012 C.3     1  UNL1        0.0394
     22 C          -5.9057  -19.2325   20.8162 C.3     1  UNL1        0.0765
     23 N          -4.4170  -19.2374   20.6323 N.3     1  UNL1       -0.2700
     24 C          -3.5308  -19.8002   21.7037 C.3     1  UNL1        0.0897
     25 C          -3.8146  -18.6795   19.3770 C.3     1  UNL1        0.0897
@<TRIPOS>BOND
     1    19    20    1
     2    20    13    1
     3    13    14   ar
     4    14    15   ar
     5    15    16   ar
     6    16    17   ar
     7    17    18   ar
     8    18    11    1
     9    11    12    1
    10    11     1    1
    11     1     2    2
    12     2    21    1
    13    21    22    1
    14    22    23    1
    15    23    24    1
    16    23    25    1
    17     2     3    1
    18     3     4    1
    19     4     5   ar
    20     5     6   ar
    21     6     7    1
    22     6     8   ar
    23     8     9   ar
    24     9    10   ar
    25    18    13   ar
    26    10     1    1
    27    10     4   ar
@<TRIPOS>MOLECULE
*****
 25 27 0 0 0
SMALL
GASTEIGER

@<TRIPOS>ATOM
      1 C           4.1740   -2.1362   19.3865 C.2     1  UNL1       -0.0245
      2 C           5.1670   -1.7221   18.3413 C.2     1  UNL1       -0.0421
      3 C           4.6697   -0.4584   17.7044 C.3     1  UNL1        0.0480
      4 C           3.3693   -0.0915   18.3560 C.ar    1  UNL1       -0.0187
      5 C           2.4247    1.0529   18.1370 C.ar    1  UNL1       -0.0082
      6 C           1.1737    1.1602   18.9577 C.ar    1  UNL1       -0.0222
      7 C           0.2290    2.3047   18.7387 C.3     1  UNL1        0.0310
      8 C           0.8674    0.1232   19.9973 C.ar    1  UNL1       -0.0043
      9 C           1.8121   -1.0211   20.2163 C.ar    1  UNL1       -0.0009
     10 C           3.0630   -1.1285   19.3956 C.ar    1  UNL1       -0.0079
     11 C           4.2744   -3.3458   20.2679 C.3     1  UNL1        0.0666
     12 C           3.7997   -4.6786   19.7694 C.3     1  UNL1        0.0112
     13 C           6.1658   -3.8647   21.9718 C.ar    1  UNL1        0.2393
     14 N           6.7408   -3.7416   23.3517 N.ar    1  UNL1       -0.2075
     15 C           5.9995   -2.9765   24.4077 C.ar    1  UNL1        0.1227
     16 C           4.6831   -2.3345   24.0837 C.ar    1  UNL1        0.1193
     17 N           4.1081   -2.4576   22.7038 N.ar    1  UNL1       -0.2415
     18 C           4.8495   -3.2227   21.6478 C.ar    1  UNL1        0.1156
     19 C           8.3838   -4.8568   21.0516 C.3     1  UNL1        0.2543
     20 O           6.9072   -4.6298   20.9159 O.3     1  UNL1       -0.4553
     21 C           6.4347   -2.4448   17.9939 C.3     1  UNL1        0.0394
     22 C           7.7191   -2.0758   18.6750 C.3     1  UNL1        0.0765
     23 N           7.8396   -0.7612   19.3872 N.3     1  UNL1       -0.2700
     24 C           8.2011    0.4767   18.6209 C.3     1  UNL1        0.0897
     25 C           7.5988   -0.6843   20.8657 C.3     1  UNL1        0.0897
@<TRIPOS>BOND
     1    19    20    1
     2    20    13    1
     3    13    14   ar
     4    14    15   ar
     5    15    16   ar
     6    16    17   ar
     7    17    18   ar
     8    18    11    1
     9    11    12    1
    10    11     1    1
    11     1     2    2
    12     2    21    1
    13    21    22    1
    14    22    23    1
    15    23    24    1
    16    23    25    1
    17     2     3    1
    18     3     4    1
    19     4     5   ar
    20     5     6   ar
    21     6     7    1
    22     6     8   ar
    23     8     9   ar
    24     9    10   ar
    25    18    13   ar
    26    10     1    1
    27    10     4   ar
@<TRIPOS>MOLECULE
*****
 25 27 0 0 0
SMALL
GASTEIGER

@<TRIPOS>ATOM
      1 C           4.3730   -2.2296   19.2474 C.2     1  UNL1       -0.0245
      2 C           5.4192   -1.7003   18.3118 C.2     1  UNL1       -0.0421
      3 C           4.9340   -0.3893   17.7679 C.3     1  UNL1        0.0480
      4 C           3.5880   -0.1084   18.3673 C.ar    1  UNL1       -0.0187
      5 C           2.6333    1.0362   18.1986 C.ar    1  UNL1       -0.0082
      6 C           1.3318    1.0433   18.9443 C.ar    1  UNL1       -0.0222
      7 C           0.3770    2.1879   18.7757 C.3     1  UNL1        0.0310
      8 C           0.9851   -0.0941   19.8587 C.ar    1  UNL1       -0.0043
      9 C           1.9398   -1.2386   20.0274 C.ar    1  UNL1       -0.0009
     10 C           3.2412   -1.2458   19.2817 C.ar    1  UNL1       -0.0079
     11 C           4.4457   -3.5168   20.0141 C.3     1  UNL1        0.0666
     12 C           3.5657   -4.6693   19.6301 C.3     1  UNL1        0.0112
     13 C           5.0491   -3.0654   22.5005 C.ar    1  UNL1        0.2393
     14 N           6.0019   -3.2002   23.6511 N.ar    1  UNL1       -0.2075
     15 C           7.3040   -3.9214   23.4661 C.ar    1  UNL1        0.1227
     16 C           7.6535   -4.5077   22.1304 C.ar    1  UNL1        0.1193
     17 N           6.7007   -4.3729   20.9797 N.ar    1  UNL1       -0.2415
     18 C           5.3984   -3.6517   21.1647 C.ar    1  UNL1        0.1156
     19 C           3.7382   -0.9232   23.1659 C.3     1  UNL1        0.2543
     20 O           3.7469   -2.3442   22.6856 O.3     1  UNL1       -0.4553
     21 C           6.7218   -2.3653   17.9787 C.3     1  UNL1        0.0394
     22 C           7.9489   -2.0570   18.7844 C.3     1  UNL1        0.0765
     23 N           8.0350   -0.7755   19.5592 N.3     1  UNL1       -0.2700
     24 C           8.4245    0.4959   18.8650 C.3     1  UNL1        0.0897
     25 C           7.7316   -0.7654   21.0281 C.3     1  UNL1        0.0897
@<TRIPOS>BOND
     1    19    20    1
     2    20    13    1
     3    13    14   ar
     4    14    15   ar
     5    15    16   ar
     6    16    17   ar
     7    17    18   ar
     8    18    11    1
     9    11    12    1
    10    11     1    1
    11     1     2    2
    12     2    21    1
    13    21    22    1
    14    22    23    1
    15    23    24    1
    16    23    25    1
    17     2     3    1
    18     3     4    1
    19     4     5   ar
    20     5     6   ar
    21     6     7    1
    22     6     8   ar
    23     8     9   ar
    24     9    10   ar
    25    18    13   ar
    26    10     1    1
    27    10     4   ar
