@<TRIPOS>MOLECULE
*****
 16 18 0 0 0
SMALL
GASTEIGER

@<TRIPOS>ATOM
      1 C          -9.0272  -16.7619   25.1909 C.2     1  UNL1       -0.0390
      2 C          -9.5714  -18.1195   25.5231 C.2     1  UNL1       -0.0066
      3 C         -10.6616  -18.7166   24.6834 C.2     1  UNL1        0.0182
      4 C         -11.2076  -17.9559   23.5116 C.2     1  UNL1        0.0777
      5 N         -12.2741  -18.2856   22.5097 N.2     1  UNL1       -0.2442
      6 C         -12.3890  -17.1316   21.5584 C.2     1  UNL1        0.0985
      7 C         -11.3935  -16.0887   21.9722 C.2     1  UNL1        0.0182
      8 C         -10.6633  -16.5981   23.1794 C.2     1  UNL1        0.0011
      9 C          -9.5731  -16.0011   24.0191 C.3     1  UNL1        0.0499
     10 C          -8.6380  -16.8634   27.1576 C.3     1  UNL1        0.0055
     11 C          -7.9369  -16.1648   26.0306 C.3     1  UNL1        0.0313
     12 C          -6.9933  -15.7138   27.1057 C.3     1  UNL1        0.0222
     13 C          -5.9369  -14.8613   26.4676 C.3     1  UNL1        0.0689
     14 N          -6.2277  -14.7854   24.9980 N.3     1  UNL1       -0.2972
     15 C          -7.4637  -15.5910   24.7279 C.3     1  UNL1        0.0723
     16 H          -5.4432  -15.1674   24.4698 H       1  UNL1        0.1233
@<TRIPOS>BOND
     1    10    11    1
     2    11     1    1
     3     1     2    2
     4     2     3    1
     5     3     4    2
     6     4     5    1
     7     5     6    2
     8     6     7    1
     9     7     8    2
    10     8     9    1
    11    11    12    1
    12    12    13    1
    13    13    14    1
    14    14    15    1
    15    15    11    1
    16     9     1    1
    17     8     4    1
    18    14    16    1
@<TRIPOS>MOLECULE
*****
 16 18 0 0 0
SMALL
GASTEIGER

@<TRIPOS>ATOM
      1 C         -10.9188  -18.6469   21.9646 C.2     1  UNL1       -0.0390
      2 C         -11.0502  -19.1780   20.5681 C.2     1  UNL1       -0.0066
      3 C          -9.8222  -19.5095   19.7730 C.2     1  UNL1        0.0182
      4 C          -8.4627  -19.3098   20.3747 C.2     1  UNL1        0.0777
      5 N          -7.0826  -19.5463   19.8369 N.2     1  UNL1       -0.2442
      6 C          -6.0982  -19.1613   20.9012 C.2     1  UNL1        0.0985
      7 C          -6.8699  -18.6869   22.0968 C.2     1  UNL1        0.0182
      8 C          -8.3313  -18.7787   21.7713 C.2     1  UNL1        0.0011
      9 C          -9.5594  -18.4472   22.5663 C.3     1  UNL1        0.0499
     10 C         -12.6359  -17.7342   21.4663 C.3     1  UNL1        0.0055
     11 C         -12.1469  -18.3154   22.7597 C.3     1  UNL1        0.0313
     12 C         -13.4771  -17.8624   23.2844 C.3     1  UNL1        0.0222
     13 C         -13.5534  -18.2329   24.7359 C.3     1  UNL1        0.0689
     14 N         -12.2703  -18.9149   25.1083 N.3     1  UNL1       -0.2972
     15 C         -11.4010  -18.9659   23.8870 C.3     1  UNL1        0.0723
     16 H         -12.4637  -19.8615   25.4353 H       1  UNL1        0.1233
@<TRIPOS>BOND
     1    10    11    1
     2    11     1    1
     3     1     2    2
     4     2     3    1
     5     3     4    2
     6     4     5    1
     7     5     6    2
     8     6     7    1
     9     7     8    2
    10     8     9    1
    11    11    12    1
    12    12    13    1
    13    13    14    1
    14    14    15    1
    15    15    11    1
    16     9     1    1
    17     8     4    1
    18    14    16    1
@<TRIPOS>MOLECULE
*****
 16 18 0 0 0
SMALL
GASTEIGER

@<TRIPOS>ATOM
      1 C          -9.6092  -16.6871   23.5103 C.2     1  UNL1       -0.0390
      2 C          -8.6131  -16.1080   22.5500 C.2     1  UNL1       -0.0066
      3 C          -7.3493  -15.4852   23.0649 C.2     1  UNL1        0.0182
      4 C          -7.0818  -15.4415   24.5402 C.2     1  UNL1        0.0777
      5 N          -5.9332  -14.8966   25.3362 N.2     1  UNL1       -0.2442
      6 C          -6.2195  -15.1389   26.7886 C.2     1  UNL1        0.0985
      7 C          -7.5451  -15.8336   26.8901 C.2     1  UNL1        0.0182
      8 C          -8.0780  -16.0206   25.5005 C.2     1  UNL1        0.0011
      9 C          -9.3417  -16.6434   24.9856 C.3     1  UNL1        0.0499
     10 C         -10.7260  -18.2131   24.1838 C.3     1  UNL1        0.0055
     11 C         -10.8730  -17.3099   22.9954 C.3     1  UNL1        0.0313
     12 C         -12.1060  -18.1214   22.7289 C.3     1  UNL1        0.0222
     13 C         -12.7508  -17.5896   21.4834 C.3     1  UNL1        0.0689
     14 N         -11.9163  -16.4492   20.9800 N.3     1  UNL1       -0.2972
     15 C         -10.7557  -16.2764   21.9145 C.3     1  UNL1        0.0723
     16 H         -12.4737  -15.5953   20.9588 H       1  UNL1        0.1233
@<TRIPOS>BOND
     1    10    11    1
     2    11     1    1
     3     1     2    2
     4     2     3    1
     5     3     4    2
     6     4     5    1
     7     5     6    2
     8     6     7    1
     9     7     8    2
    10     8     9    1
    11    11    12    1
    12    12    13    1
    13    13    14    1
    14    14    15    1
    15    15    11    1
    16     9     1    1
    17     8     4    1
    18    14    16    1
@<TRIPOS>MOLECULE
*****
 16 18 0 0 0
SMALL
GASTEIGER

@<TRIPOS>ATOM
      1 C          -9.9900  -17.1619   23.2145 C.2     1  UNL1       -0.0390
      2 C          -9.1876  -17.9918   22.2568 C.2     1  UNL1       -0.0066
      3 C          -7.6946  -17.8537   22.2133 C.2     1  UNL1        0.0182
      4 C          -7.0041  -16.8855   23.1275 C.2     1  UNL1        0.0777
      5 N          -5.5571  -16.5345   23.3096 N.2     1  UNL1       -0.2442
      6 C          -5.4653  -15.4876   24.3800 C.2     1  UNL1        0.0985
      7 C          -6.8555  -15.1916   24.8593 C.2     1  UNL1        0.0182
      8 C          -7.8065  -16.0556   24.0853 C.2     1  UNL1        0.0011
      9 C          -9.2995  -16.1938   24.1288 C.3     1  UNL1        0.0499
     10 C         -11.4520  -16.2806   22.1583 C.3     1  UNL1        0.0055
     11 C         -11.4831  -17.3001   23.2581 C.3     1  UNL1        0.0313
     12 C         -12.9695  -17.2251   23.0718 C.3     1  UNL1        0.0222
     13 C         -13.6071  -18.1695   24.0473 C.3     1  UNL1        0.0689
     14 N         -12.5147  -18.8280   24.8366 N.3     1  UNL1       -0.2972
     15 C         -11.2019  -18.2907   24.3488 C.3     1  UNL1        0.0723
     16 H         -12.5483  -19.8380   24.6982 H       1  UNL1        0.1233
@<TRIPOS>BOND
     1    10    11    1
     2    11     1    1
     3     1     2    2
     4     2     3    1
     5     3     4    2
     6     4     5    1
     7     5     6    2
     8     6     7    1
     9     7     8    2
    10     8     9    1
    11    11    12    1
    12    12    13    1
    13    13    14    1
    14    14    15    1
    15    15    11    1
    16     9     1    1
    17     8     4    1
    18    14    16    1
@<TRIPOS>MOLECULE
*****
 16 18 0 0 0
SMALL
GASTEIGER

@<TRIPOS>ATOM
      1 C          -9.4175  -18.6126   21.3680 C.2     1  UNL1       -0.0390
      2 C          -9.3071  -19.2385   20.0094 C.2     1  UNL1       -0.0066
      3 C          -7.9696  -19.6808   19.4938 C.2     1  UNL1        0.0182
      4 C          -6.7427  -19.4970   20.3370 C.2     1  UNL1        0.0777
      5 N          -5.3006  -19.8324   20.0970 N.2     1  UNL1       -0.2442
      6 C          -4.5197  -19.4137   21.3073 C.2     1  UNL1        0.0985
      7 C          -5.4793  -18.8195   22.2954 C.2     1  UNL1        0.0182
      8 C          -6.8532  -18.8710   21.6956 C.2     1  UNL1        0.0011
      9 C          -8.1906  -18.4288   22.2112 C.3     1  UNL1        0.0499
     10 C         -11.0503  -19.6403   21.9226 C.3     1  UNL1        0.0055
     11 C         -10.7550  -18.1703   21.8836 C.3     1  UNL1        0.0313
     12 C         -12.1541  -18.0353   22.4073 C.3     1  UNL1        0.0222
     13 C         -12.4438  -16.5742   22.5842 C.3     1  UNL1        0.0689
     14 N         -11.2238  -15.8062   22.1698 N.3     1  UNL1       -0.2972
     15 C         -10.1800  -16.7926   21.7368 C.3     1  UNL1        0.0723
     16 H         -10.8764  -15.2575   22.9564 H       1  UNL1        0.1233
@<TRIPOS>BOND
     1    10    11    1
     2    11     1    1
     3     1     2    2
     4     2     3    1
     5     3     4    2
     6     4     5    1
     7     5     6    2
     8     6     7    1
     9     7     8    2
    10     8     9    1
    11    11    12    1
    12    12    13    1
    13    13    14    1
    14    14    15    1
    15    15    11    1
    16     9     1    1
    17     8     4    1
    18    14    16    1
@<TRIPOS>MOLECULE
*****
 16 18 0 0 0
SMALL
GASTEIGER

@<TRIPOS>ATOM
      1 C          -9.6352  -18.2742   23.3067 C.2     1  UNL1       -0.0390
      2 C          -8.9217  -16.9571   23.3829 C.2     1  UNL1       -0.0066
      3 C          -7.4878  -16.8550   22.9541 C.2     1  UNL1        0.0182
      4 C          -6.7677  -18.0701   22.4492 C.2     1  UNL1        0.0777
      5 N          -5.3645  -18.2741   21.9600 N.2     1  UNL1       -0.2442
      6 C          -5.2109  -19.7175   21.5816 C.2     1  UNL1        0.0985
      7 C          -6.5191  -20.4054   21.8368 C.2     1  UNL1        0.0182
      8 C          -7.4813  -19.3872   22.3730 C.2     1  UNL1        0.0011
      9 C          -8.9151  -19.4893   22.8018 C.3     1  UNL1        0.0499
     10 C         -10.5411  -19.3847   24.7124 C.3     1  UNL1        0.0055
     11 C         -11.0691  -18.3764   23.7355 C.3     1  UNL1        0.0313
     12 C         -12.3925  -18.6893   24.3684 C.3     1  UNL1        0.0222
     13 C         -13.4386  -17.8530   23.6930 C.3     1  UNL1        0.0689
     14 N         -12.7617  -17.0232   22.6426 N.3     1  UNL1       -0.2972
     15 C         -11.2973  -17.3466   22.6688 C.3     1  UNL1        0.0723
     16 H         -12.9010  -16.0324   22.8412 H       1  UNL1        0.1233
@<TRIPOS>BOND
     1    10    11    1
     2    11     1    1
     3     1     2    2
     4     2     3    1
     5     3     4    2
     6     4     5    1
     7     5     6    2
     8     6     7    1
     9     7     8    2
    10     8     9    1
    11    11    12    1
    12    12    13    1
    13    13    14    1
    14    14    15    1
    15    15    11    1
    16     9     1    1
    17     8     4    1
    18    14    16    1
@<TRIPOS>MOLECULE
*****
 16 18 0 0 0
SMALL
GASTEIGER

@<TRIPOS>ATOM
      1 C          -6.7540  -19.6487   21.1607 C.2     1  UNL1       -0.0390
      2 C          -6.1172  -20.6586   20.2527 C.2     1  UNL1       -0.0066
      3 C          -4.6236  -20.7912   20.2087 C.2     1  UNL1        0.0182
      4 C          -3.7670  -19.9139   21.0727 C.2     1  UNL1        0.0777
      5 N          -2.2798  -19.8171   21.2423 N.2     1  UNL1       -0.2442
      6 C          -1.9975  -18.7474   22.2552 C.2     1  UNL1        0.0985
      7 C          -3.3102  -18.1830   22.7116 C.2     1  UNL1        0.0182
      8 C          -4.4039  -18.9040   21.9807 C.2     1  UNL1        0.0011
      9 C          -5.8973  -18.7714   22.0247 C.3     1  UNL1        0.0499
     10 C          -8.1260  -19.4256   19.7125 C.3     1  UNL1        0.0055
     11 C          -8.2475  -19.5160   21.2048 C.3     1  UNL1        0.0313
     12 C          -9.7155  -19.3645   20.9370 C.3     1  UNL1        0.0222
     13 C         -10.4320  -19.3890   22.2545 C.3     1  UNL1        0.0689
     14 N          -9.4068  -19.5557   23.3367 N.3     1  UNL1       -0.2972
     15 C          -8.0566  -19.6342   22.6880 C.3     1  UNL1        0.0723
     16 H          -9.5905  -20.4127   23.8585 H       1  UNL1        0.1233
@<TRIPOS>BOND
     1    10    11    1
     2    11     1    1
     3     1     2    2
     4     2     3    1
     5     3     4    2
     6     4     5    1
     7     5     6    2
     8     6     7    1
     9     7     8    2
    10     8     9    1
    11    11    12    1
    12    12    13    1
    13    13    14    1
    14    14    15    1
    15    15    11    1
    16     9     1    1
    17     8     4    1
    18    14    16    1
@<TRIPOS>MOLECULE
*****
 16 18 0 0 0
SMALL
GASTEIGER

@<TRIPOS>ATOM
      1 C          -8.4664  -18.9453   21.1428 C.2     1  UNL1       -0.0390
      2 C          -9.2635  -19.3807   19.9491 C.2     1  UNL1       -0.0066
      3 C         -10.6487  -18.8458   19.7365 C.2     1  UNL1        0.0182
      4 C         -11.2367  -17.8756   20.7178 C.2     1  UNL1        0.0777
      5 N         -12.5666  -17.1837   20.7709 N.2     1  UNL1       -0.2442
      6 C         -12.5913  -16.3207   21.9976 C.2     1  UNL1        0.0985
      7 C         -11.2768  -16.4792   22.7025 C.2     1  UNL1        0.0182
      8 C         -10.4396  -17.4402   21.9115 C.2     1  UNL1        0.0011
      9 C          -9.0544  -17.9750   22.1240 C.3     1  UNL1        0.0499
     10 C          -7.6869  -20.1289   22.5645 C.3     1  UNL1        0.0055
     11 C          -7.0811  -19.4801   21.3553 C.3     1  UNL1        0.0313
     12 C          -5.8226  -20.1505   21.8206 C.3     1  UNL1        0.0222
     13 C          -4.7286  -19.8043   20.8546 C.3     1  UNL1        0.0689
     14 N          -5.3110  -18.9199   19.7922 N.3     1  UNL1       -0.2972
     15 C          -6.7650  -18.7195   20.1017 C.3     1  UNL1        0.0723
     16 H          -5.2093  -19.3628   18.8790 H       1  UNL1        0.1233
@<TRIPOS>BOND
     1    10    11    1
     2    11     1    1
     3     1     2    2
     4     2     3    1
     5     3     4    2
     6     4     5    1
     7     5     6    2
     8     6     7    1
     9     7     8    2
    10     8     9    1
    11    11    12    1
    12    12    13    1
    13    13    14    1
    14    14    15    1
    15    15    11    1
    16     9     1    1
    17     8     4    1
    18    14    16    1
@<TRIPOS>MOLECULE
*****
 16 18 0 0 0
SMALL
GASTEIGER

@<TRIPOS>ATOM
      1 C          -6.4384  -19.6719   21.1098 C.2     1  UNL1       -0.0390
      2 C          -7.1666  -19.4395   19.8192 C.2     1  UNL1       -0.0066
      3 C          -8.6631  -19.3368   19.8103 C.2     1  UNL1        0.0182
      4 C          -9.4313  -19.4665   21.0920 C.2     1  UNL1        0.0777
      5 N         -10.8999  -19.4095   21.3921 N.2     1  UNL1       -0.2442
      6 C         -11.0793  -19.6066   22.8682 C.2     1  UNL1        0.0985
      7 C          -9.7217  -19.7855   23.4805 C.2     1  UNL1        0.0182
      8 C          -8.7031  -19.6989   22.3827 C.2     1  UNL1        0.0011
      9 C          -7.2067  -19.8016   22.3915 C.3     1  UNL1        0.0499
     10 C          -5.1606  -20.7673   20.0156 C.3     1  UNL1        0.0055
     11 C          -4.9419  -19.7746   21.1187 C.3     1  UNL1        0.0313
     12 C          -3.4912  -20.0848   20.8970 C.3     1  UNL1        0.0222
     13 C          -2.6888  -19.2624   21.8613 C.3     1  UNL1        0.0689
     14 N          -3.6436  -18.4439   22.6788 N.3     1  UNL1       -0.2972
     15 C          -5.0362  -18.7604   22.2199 C.3     1  UNL1        0.0723
     16 H          -3.4520  -17.4512   22.5439 H       1  UNL1        0.1233
@<TRIPOS>BOND
     1    10    11    1
     2    11     1    1
     3     1     2    2
     4     2     3    1
     5     3     4    2
     6     4     5    1
     7     5     6    2
     8     6     7    1
     9     7     8    2
    10     8     9    1
    11    11    12    1
    12    12    13    1
    13    13    14    1
    14    14    15    1
    15    15    11    1
    16     9     1    1
    17     8     4    1
    18    14    16    1
