@<TRIPOS>MOLECULE
*****
 22 23 0 0 0
SMALL
GASTEIGER

@<TRIPOS>ATOM
      1 C          -3.5981  -18.8864   20.1586 C.ar    1  UNL1        0.1754
      2 C          -5.0090  -19.3410   19.9291 C.ar    1  UNL1        0.0403
      3 C          -6.0295  -19.1989   21.0192 C.ar    1  UNL1        0.0063
      4 C          -5.6392  -18.6021   22.3388 C.ar    1  UNL1        0.0403
      5 C          -4.2284  -18.1474   22.5683 C.ar    1  UNL1        0.1754
      6 C          -3.2078  -18.2896   21.4783 C.ar    1  UNL1        0.2061
      7 C          -2.1306  -17.8219   18.2976 C.3     1  UNL1        0.2526
      8 O          -2.5776  -19.0285   19.0686 O.3     1  UNL1       -0.4683
      9 C          -7.4404  -19.6536   20.7896 C.2     1  UNL1        0.0035
     10 C          -8.5834  -18.7249   21.0744 C.2     1  UNL1        0.0420
     11 C          -9.9943  -19.1795   20.8448 C.2     1  UNL1        0.1957
     12 O         -10.3302  -20.0011   19.6355 O.2     1  UNL1       -0.2866
     13 C         -11.0693  -18.8126   21.8245 C.ar    1  UNL1        0.0420
     14 C         -10.9343  -19.2018   23.2667 C.ar    1  UNL1        0.0239
     15 C         -12.0093  -18.8349   24.2464 C.ar    1  UNL1        0.0990
     16 N         -13.2194  -18.0788   23.7838 N.ar    1  UNL1       -0.2423
     17 C         -13.3544  -17.6895   22.3414 C.ar    1  UNL1        0.0990
     18 C         -12.2794  -18.0564   21.3618 C.ar    1  UNL1        0.0239
     19 O          -3.8380  -17.5506   23.8880 O.3     1  UNL1       -0.4683
     20 C          -4.6190  -16.4006   24.4514 C.3     1  UNL1        0.2526
     21 O          -1.7969  -17.8349   21.7079 O.3     1  UNL1       -0.4654
     22 C          -1.4333  -16.3923   21.5164 C.3     1  UNL1        0.2528
@<TRIPOS>BOND
     1     7     8    1
     2     8     1    1
     3     1     2   ar
     4     2     3   ar
     5     3     9    1
     6     9    10    2
     7    10    11    1
     8    11    12    2
     9    11    13    1
    10    13    14   ar
    11    14    15   ar
    12    15    16   ar
    13    16    17   ar
    14    17    18   ar
    15     3     4   ar
    16     4     5   ar
    17     5    19    1
    18    19    20    1
    19     5     6   ar
    20     6    21    1
    21    21    22    1
    22     6     1   ar
    23    18    13   ar
@<TRIPOS>MOLECULE
*****
 22 23 0 0 0
SMALL
GASTEIGER

@<TRIPOS>ATOM
      1 C          -4.2571  -18.0631   22.6568 C.ar    1  UNL1        0.1754
      2 C          -5.6617  -18.5410   22.4362 C.ar    1  UNL1        0.0403
      3 C          -6.0401  -19.1819   21.1339 C.ar    1  UNL1        0.0063
      4 C          -5.0139  -19.3449   20.0521 C.ar    1  UNL1        0.0403
      5 C          -3.6093  -18.8671   20.2727 C.ar    1  UNL1        0.1754
      6 C          -3.2309  -18.2262   21.5751 C.ar    1  UNL1        0.2061
      7 C          -4.6987  -16.2908   24.5044 C.3     1  UNL1        0.2526
      8 O          -3.8788  -17.4223   23.9592 O.3     1  UNL1       -0.4683
      9 C          -7.4448  -19.6597   20.9133 C.2     1  UNL1        0.0035
     10 C          -8.5956  -18.7146   21.0940 C.2     1  UNL1        0.0420
     11 C         -10.0002  -19.1924   20.8734 C.2     1  UNL1        0.1957
     12 O         -10.3227  -20.0511   19.6865 O.2     1  UNL1       -0.2866
     13 C         -11.0824  -18.8115   21.8397 C.ar    1  UNL1        0.0420
     14 C         -10.9657  -19.1940   23.2854 C.ar    1  UNL1        0.0239
     15 C         -12.0480  -18.8131   24.2517 C.ar    1  UNL1        0.0990
     16 N         -13.2468  -18.0497   23.7723 N.ar    1  UNL1       -0.2423
     17 C         -13.3635  -17.6671   22.3266 C.ar    1  UNL1        0.0990
     18 C         -12.2813  -18.0480   21.3603 C.ar    1  UNL1        0.0239
     19 O          -2.5830  -19.0301   19.1909 O.3     1  UNL1       -0.4683
     20 C          -2.1477  -17.8423   18.3849 C.3     1  UNL1        0.2526
     21 O          -1.8262  -17.7483   21.7956 O.3     1  UNL1       -0.4654
     22 C          -1.4737  -16.3128   21.5409 C.3     1  UNL1        0.2528
@<TRIPOS>BOND
     1     7     8    1
     2     8     1    1
     3     1     2   ar
     4     2     3   ar
     5     3     9    1
     6     9    10    2
     7    10    11    1
     8    11    12    2
     9    11    13    1
    10    13    14   ar
    11    14    15   ar
    12    15    16   ar
    13    16    17   ar
    14    17    18   ar
    15     3     4   ar
    16     4     5   ar
    17     5    19    1
    18    19    20    1
    19     5     6   ar
    20     6    21    1
    21    21    22    1
    22     6     1   ar
    23    18    13   ar
@<TRIPOS>MOLECULE
*****
 22 23 0 0 0
SMALL
GASTEIGER

@<TRIPOS>ATOM
      1 C         -16.3039   -8.7237   19.5021 C.ar    1  UNL1        0.1754
      2 C         -14.9093   -8.4198   19.0409 C.ar    1  UNL1        0.0403
      3 C         -14.4941   -7.0000   18.7926 C.ar    1  UNL1        0.0063
      4 C         -15.4734   -5.8840   19.0056 C.ar    1  UNL1        0.0403
      5 C         -16.8680   -6.1879   19.4668 C.ar    1  UNL1        0.1754
      6 C         -17.2833   -7.6077   19.7151 C.ar    1  UNL1        0.2061
      7 C         -17.0836  -11.0309   18.5972 C.3     1  UNL1        0.2526
      8 O         -16.7192  -10.1436   19.7503 O.3     1  UNL1       -0.4683
      9 C         -13.0994   -6.6962   18.3314 C.2     1  UNL1        0.0035
     10 C         -12.0667   -6.2368   19.3175 C.2     1  UNL1        0.0420
     11 C         -10.6721   -5.9330   18.8564 C.2     1  UNL1        0.1957
     12 O          -9.5451   -6.8544   19.2181 O.2     1  UNL1       -0.2866
     13 C         -10.4045   -4.7077   18.0335 C.ar    1  UNL1        0.0420
     14 C         -11.1821   -3.4501   18.2859 C.ar    1  UNL1        0.0239
     15 C         -10.9144   -2.2249   17.4630 C.ar    1  UNL1        0.0990
     16 N          -9.8692   -2.2573   16.3876 N.ar    1  UNL1       -0.2423
     17 C          -9.0916   -3.5149   16.1352 C.ar    1  UNL1        0.0990
     18 C          -9.3592   -4.7401   16.9581 C.ar    1  UNL1        0.0239
     19 O         -17.8475   -5.0719   19.6798 O.3     1  UNL1       -0.4683
     20 C         -17.3626   -3.6552   19.7686 C.3     1  UNL1        0.2526
     21 O         -18.6779   -7.9115   20.1763 O.3     1  UNL1       -0.4654
     22 C         -19.7312   -8.2934   19.1789 C.3     1  UNL1        0.2528
@<TRIPOS>BOND
     1     7     8    1
     2     8     1    1
     3     1     2   ar
     4     2     3   ar
     5     3     9    1
     6     9    10    2
     7    10    11    1
     8    11    12    2
     9    11    13    1
    10    13    14   ar
    11    14    15   ar
    12    15    16   ar
    13    16    17   ar
    14    17    18   ar
    15     3     4   ar
    16     4     5   ar
    17     5    19    1
    18    19    20    1
    19     5     6   ar
    20     6    21    1
    21    21    22    1
    22     6     1   ar
    23    18    13   ar
@<TRIPOS>MOLECULE
*****
 22 23 0 0 0
SMALL
GASTEIGER

@<TRIPOS>ATOM
      1 C         -16.8279   -8.8248   19.6957 C.ar    1  UNL1        0.1754
      2 C         -15.5816   -8.1007   19.2804 C.ar    1  UNL1        0.0403
      3 C         -15.6099   -6.6148   19.0772 C.ar    1  UNL1        0.0063
      4 C         -16.8845   -5.8530   19.2893 C.ar    1  UNL1        0.0403
      5 C         -18.1307   -6.5770   19.7047 C.ar    1  UNL1        0.1754
      6 C         -18.1024   -8.0629   19.9079 C.ar    1  UNL1        0.2061
      7 C         -17.0318  -11.2311   18.7375 C.3     1  UNL1        0.2526
      8 O         -16.7996  -10.3107   19.8990 O.3     1  UNL1       -0.4683
      9 C         -14.3636   -5.8908   18.6618 C.2     1  UNL1        0.0035
     10 C         -13.3722   -5.4494   19.6973 C.2     1  UNL1        0.0420
     11 C         -12.1259   -4.7254   19.2820 C.2     1  UNL1        0.1957
     12 O         -10.8158   -5.4544   19.2337 O.2     1  UNL1       -0.2866
     13 C         -12.1897   -3.2724   18.9149 C.ar    1  UNL1        0.0420
     14 C         -10.9968   -2.6007   18.3019 C.ar    1  UNL1        0.0239
     15 C         -11.0606   -1.1477   17.9349 C.ar    1  UNL1        0.0990
     16 N         -12.3172   -0.3664   18.1808 N.ar    1  UNL1       -0.2423
     17 C         -13.5101   -1.0382   18.7938 C.ar    1  UNL1        0.0990
     18 C         -13.4464   -2.4912   19.1609 C.ar    1  UNL1        0.0239
     19 O         -19.4054   -5.8152   19.9169 O.3     1  UNL1       -0.4683
     20 C         -19.4340   -4.3294   19.7128 C.3     1  UNL1        0.2526
     21 O         -19.3488   -8.7870   20.3233 O.3     1  UNL1       -0.4654
     22 C         -20.3332   -9.2410   19.2866 C.3     1  UNL1        0.2528
@<TRIPOS>BOND
     1     7     8    1
     2     8     1    1
     3     1     2   ar
     4     2     3   ar
     5     3     9    1
     6     9    10    2
     7    10    11    1
     8    11    12    2
     9    11    13    1
    10    13    14   ar
    11    14    15   ar
    12    15    16   ar
    13    16    17   ar
    14    17    18   ar
    15     3     4   ar
    16     4     5   ar
    17     5    19    1
    18    19    20    1
    19     5     6   ar
    20     6    21    1
    21    21    22    1
    22     6     1   ar
    23    18    13   ar
@<TRIPOS>MOLECULE
*****
 22 23 0 0 0
SMALL
GASTEIGER

@<TRIPOS>ATOM
      1 C          -4.6209  -18.8524   22.0184 C.ar    1  UNL1        0.1754
      2 C          -6.0995  -18.9540   21.7873 C.ar    1  UNL1        0.0403
      3 C          -7.0332  -18.0021   22.4745 C.ar    1  UNL1        0.0063
      4 C          -6.4883  -16.9487   23.3927 C.ar    1  UNL1        0.0403
      5 C          -5.0098  -16.8471   23.6238 C.ar    1  UNL1        0.1754
      6 C          -4.0761  -17.7989   22.9367 C.ar    1  UNL1        0.2061
      7 C          -3.2685  -19.5517   19.9132 C.3     1  UNL1        0.2526
      8 O          -3.6873  -19.8043   21.3313 O.3     1  UNL1       -0.4683
      9 C          -8.5119  -18.1038   22.2433 C.2     1  UNL1        0.0035
     10 C          -9.1247  -19.4229   21.8765 C.2     1  UNL1        0.0420
     11 C         -10.6032  -19.5245   21.6453 C.2     1  UNL1        0.1957
     12 O         -11.3160  -20.8182   21.9069 O.2     1  UNL1       -0.2866
     13 C         -11.3690  -18.3326   21.1525 C.ar    1  UNL1        0.0420
     14 C         -11.0449  -17.7329   19.8164 C.ar    1  UNL1        0.0239
     15 C         -11.8107  -16.5410   19.3236 C.ar    1  UNL1        0.0990
     16 N         -12.9007  -15.9488   20.1670 N.ar    1  UNL1       -0.2423
     17 C         -13.2248  -16.5485   21.5032 C.ar    1  UNL1        0.0990
     18 C         -12.4590  -17.7404   21.9959 C.ar    1  UNL1        0.0239
     19 O          -4.4648  -15.7936   24.5422 O.3     1  UNL1       -0.4683
     20 C          -5.2816  -15.3187   25.7072 C.3     1  UNL1        0.2526
     21 O          -2.5974  -17.6973   23.1678 O.3     1  UNL1       -0.4654
     22 C          -1.7281  -16.9971   22.1658 C.3     1  UNL1        0.2528
@<TRIPOS>BOND
     1     7     8    1
     2     8     1    1
     3     1     2   ar
     4     2     3   ar
     5     3     9    1
     6     9    10    2
     7    10    11    1
     8    11    12    2
     9    11    13    1
    10    13    14   ar
    11    14    15   ar
    12    15    16   ar
    13    16    17   ar
    14    17    18   ar
    15     3     4   ar
    16     4     5   ar
    17     5    19    1
    18    19    20    1
    19     5     6   ar
    20     6    21    1
    21    21    22    1
    22     6     1   ar
    23    18    13   ar
@<TRIPOS>MOLECULE
*****
 22 23 0 0 0
SMALL
GASTEIGER

@<TRIPOS>ATOM
      1 C         -13.2127   -3.6891   18.3003 C.ar    1  UNL1        0.1754
      2 C         -14.2684   -4.7544   18.3210 C.ar    1  UNL1        0.0403
      3 C         -13.8866   -6.1840   18.5672 C.ar    1  UNL1        0.0063
      4 C         -12.4491   -6.5482   18.7928 C.ar    1  UNL1        0.0403
      5 C         -11.3934   -5.4828   18.7721 C.ar    1  UNL1        0.1754
      6 C         -11.7752   -4.0533   18.5258 C.ar    1  UNL1        0.2061
      7 C         -14.6728   -1.9310   17.0644 C.3     1  UNL1        0.2526
      8 O         -13.5945   -2.2595   18.0540 O.3     1  UNL1       -0.4683
      9 C         -14.9424   -7.2494   18.5879 C.2     1  UNL1        0.0035
     10 C         -14.5601   -8.6878   18.4014 C.2     1  UNL1        0.0420
     11 C         -15.6158   -9.7531   18.4221 C.2     1  UNL1        0.1957
     12 O         -15.2456  -11.1813   18.1507 O.2     1  UNL1       -0.2866
     13 C         -17.0417   -9.3905   18.7141 C.ar    1  UNL1        0.0420
     14 C         -17.4076   -8.7962   20.0418 C.ar    1  UNL1        0.0239
     15 C         -18.8335   -8.4336   20.3339 C.ar    1  UNL1        0.0990
     16 N         -19.8935   -8.6652   19.2982 N.ar    1  UNL1       -0.2423
     17 C         -19.5276   -9.2595   17.9704 C.ar    1  UNL1        0.0990
     18 C         -18.1017   -9.6221   17.6783 C.ar    1  UNL1        0.0239
     19 O          -9.9558   -5.8470   18.9976 O.3     1  UNL1       -0.4683
     20 C          -9.5435   -7.2888   19.0301 C.3     1  UNL1        0.2526
     21 O         -10.7194   -2.9879   18.5051 O.3     1  UNL1       -0.4654
     22 C         -10.2921   -2.3807   17.2018 C.3     1  UNL1        0.2528
@<TRIPOS>BOND
     1     7     8    1
     2     8     1    1
     3     1     2   ar
     4     2     3   ar
     5     3     9    1
     6     9    10    2
     7    10    11    1
     8    11    12    2
     9    11    13    1
    10    13    14   ar
    11    14    15   ar
    12    15    16   ar
    13    16    17   ar
    14    17    18   ar
    15     3     4   ar
    16     4     5   ar
    17     5    19    1
    18    19    20    1
    19     5     6   ar
    20     6    21    1
    21    21    22    1
    22     6     1   ar
    23    18    13   ar
@<TRIPOS>MOLECULE
*****
 22 23 0 0 0
SMALL
GASTEIGER

@<TRIPOS>ATOM
      1 C          -4.3929  -19.7912   21.0455 C.ar    1  UNL1        0.1754
      2 C          -5.7223  -19.3704   21.5981 C.ar    1  UNL1        0.0403
      3 C          -5.8150  -18.1775   22.5027 C.ar    1  UNL1        0.0063
      4 C          -4.5781  -17.4054   22.8548 C.ar    1  UNL1        0.0403
      5 C          -3.2487  -17.8261   22.3022 C.ar    1  UNL1        0.1754
      6 C          -3.1560  -19.0190   21.3975 C.ar    1  UNL1        0.2061
      7 C          -5.5333  -21.7709   19.8085 C.3     1  UNL1        0.2526
      8 O          -4.3002  -20.9841   20.1408 O.3     1  UNL1       -0.4683
      9 C          -7.1445  -17.7567   23.0553 C.2     1  UNL1        0.0035
     10 C          -8.3464  -18.6343   22.8676 C.2     1  UNL1        0.0420
     11 C          -9.6760  -18.2136   23.4201 C.2     1  UNL1        0.1957
     12 O          -9.9318  -18.2868   24.8964 O.2     1  UNL1       -0.2866
     13 C         -10.7497  -17.7197   22.4965 C.ar    1  UNL1        0.0420
     14 C         -10.3842  -16.9208   21.2807 C.ar    1  UNL1        0.0239
     15 C         -11.4580  -16.4270   20.3571 C.ar    1  UNL1        0.0990
     16 N         -12.8972  -16.7320   20.6492 N.ar    1  UNL1       -0.2423
     17 C         -13.2628  -17.5309   21.8650 C.ar    1  UNL1        0.0990
     18 C         -12.1891  -18.0248   22.7886 C.ar    1  UNL1        0.0239
     19 O          -2.0117  -17.0540   22.6542 O.3     1  UNL1       -0.4683
     20 C          -1.5081  -15.9834   21.7322 C.3     1  UNL1        0.2526
     21 O          -1.8265  -19.4398   20.8449 O.3     1  UNL1       -0.4654
     22 C          -1.1663  -18.6219   19.7748 C.3     1  UNL1        0.2528
@<TRIPOS>BOND
     1     7     8    1
     2     8     1    1
     3     1     2   ar
     4     2     3   ar
     5     3     9    1
     6     9    10    2
     7    10    11    1
     8    11    12    2
     9    11    13    1
    10    13    14   ar
    11    14    15   ar
    12    15    16   ar
    13    16    17   ar
    14    17    18   ar
    15     3     4   ar
    16     4     5   ar
    17     5    19    1
    18    19    20    1
    19     5     6   ar
    20     6    21    1
    21    21    22    1
    22     6     1   ar
    23    18    13   ar
@<TRIPOS>MOLECULE
*****
 22 23 0 0 0
SMALL
GASTEIGER

@<TRIPOS>ATOM
      1 C         -10.3785   -4.1923   18.0756 C.ar    1  UNL1        0.1754
      2 C         -10.7630   -2.7442   18.1480 C.ar    1  UNL1        0.0403
      3 C         -12.0011   -2.3331   18.8882 C.ar    1  UNL1        0.0063
      4 C         -12.8548   -3.3699   19.5560 C.ar    1  UNL1        0.0403
      5 C         -12.4704   -4.8180   19.4837 C.ar    1  UNL1        0.1754
      6 C         -11.2322   -5.2292   18.7435 C.ar    1  UNL1        0.2061
      7 C          -8.7303   -3.8690   16.0936 C.3     1  UNL1        0.2526
      8 O          -9.1403   -4.6034   17.3354 O.3     1  UNL1       -0.4683
      9 C         -12.3856   -0.8849   18.9606 C.2     1  UNL1        0.0035
     10 C         -13.6824   -0.4226   18.3651 C.2     1  UNL1        0.0420
     11 C         -14.0668    1.0255   18.4374 C.2     1  UNL1        0.1957
     12 O         -13.2757    2.0503   17.6798 O.2     1  UNL1       -0.2866
     13 C         -15.2424    1.4488   19.2674 C.ar    1  UNL1        0.0420
     14 C         -15.4936    2.9051   19.5243 C.ar    1  UNL1        0.0239
     15 C         -16.6692    3.3284   20.3542 C.ar    1  UNL1        0.0990
     16 N         -17.5936    2.2955   20.9272 N.ar    1  UNL1       -0.2423
     17 C         -17.3424    0.8391   20.6703 C.ar    1  UNL1        0.0990
     18 C         -16.1668    0.4158   19.8404 C.ar    1  UNL1        0.0239
     19 O         -13.3241   -5.8550   20.1515 O.3     1  UNL1       -0.4683
     20 C         -14.5424   -6.3852   19.4554 C.3     1  UNL1        0.2526
     21 O         -10.8478   -6.6773   18.6711 O.3     1  UNL1       -0.4654
     22 C         -11.2851   -7.5119   17.5040 C.3     1  UNL1        0.2528
@<TRIPOS>BOND
     1     7     8    1
     2     8     1    1
     3     1     2   ar
     4     2     3   ar
     5     3     9    1
     6     9    10    2
     7    10    11    1
     8    11    12    2
     9    11    13    1
    10    13    14   ar
    11    14    15   ar
    12    15    16   ar
    13    16    17   ar
    14    17    18   ar
    15     3     4   ar
    16     4     5   ar
    17     5    19    1
    18    19    20    1
    19     5     6   ar
    20     6    21    1
    21    21    22    1
    22     6     1   ar
    23    18    13   ar
@<TRIPOS>MOLECULE
*****
 22 23 0 0 0
SMALL
GASTEIGER

@<TRIPOS>ATOM
      1 C         -13.4406   -6.0413   19.2050 C.ar    1  UNL1        0.1754
      2 C         -14.1381   -4.7667   19.5776 C.ar    1  UNL1        0.0403
      3 C         -13.3669   -3.4820   19.6460 C.ar    1  UNL1        0.0063
      4 C         -11.8981   -3.4718   19.3417 C.ar    1  UNL1        0.0403
      5 C         -11.2006   -4.7464   18.9690 C.ar    1  UNL1        0.1754
      6 C         -11.9719   -6.0311   18.9007 C.ar    1  UNL1        0.2061
      7 C         -15.6995   -7.3188   19.3283 C.3     1  UNL1        0.2526
      8 O         -14.2118   -7.3260   19.1366 O.3     1  UNL1       -0.4683
      9 C         -14.0644   -2.2074   20.0187 C.2     1  UNL1        0.0035
     10 C         -14.7565   -1.3952   18.9644 C.2     1  UNL1        0.0420
     11 C         -15.4540   -0.1207   19.3371 C.2     1  UNL1        0.1957
     12 O         -14.7681    1.1975   19.1316 O.2     1  UNL1       -0.2866
     13 C         -16.8375   -0.1642   19.9151 C.ar    1  UNL1        0.0420
     14 C         -17.3999    1.0425   20.6061 C.ar    1  UNL1        0.0239
     15 C         -18.7833    0.9990   21.1842 C.ar    1  UNL1        0.0990
     16 N         -19.6044   -0.2512   21.0712 N.ar    1  UNL1       -0.2423
     17 C         -19.0420   -1.4580   20.3802 C.ar    1  UNL1        0.0990
     18 C         -17.6586   -1.4145   19.8021 C.ar    1  UNL1        0.0239
     19 O          -9.7318   -4.7363   18.6647 O.3     1  UNL1       -0.4683
     20 C          -9.2607   -4.6204   17.2453 C.3     1  UNL1        0.2526
     21 O         -11.2743   -7.3057   18.5280 O.3     1  UNL1       -0.4654
     22 C         -11.2612   -7.7635   17.0996 C.3     1  UNL1        0.2528
@<TRIPOS>BOND
     1     7     8    1
     2     8     1    1
     3     1     2   ar
     4     2     3   ar
     5     3     9    1
     6     9    10    2
     7    10    11    1
     8    11    12    2
     9    11    13    1
    10    13    14   ar
    11    14    15   ar
    12    15    16   ar
    13    16    17   ar
    14    17    18   ar
    15     3     4   ar
    16     4     5   ar
    17     5    19    1
    18    19    20    1
    19     5     6   ar
    20     6    21    1
    21    21    22    1
    22     6     1   ar
    23    18    13   ar
