@<TRIPOS>MOLECULE
*****
 36 39 0 0 0
SMALL
GASTEIGER

@<TRIPOS>ATOM
      1 C           7.7522   -2.9578   21.0073 C.3     1  UNL1        0.0972
      2 C           7.1843   -4.2804   21.4293 C.3     1  UNL1        0.0431
      3 C           7.1830   -4.3272   22.9286 C.3     1  UNL1        0.0968
      4 N           7.7501   -3.0335   23.4333 N.am    1  UNL1       -0.2623
      5 C           7.9333   -2.6529   24.8725 C.2     1  UNL1        0.3073
      6 O           8.5168   -1.3172   25.2267 O.2     1  UNL1       -0.2523
      7 N           7.5330   -3.6081   25.9577 N.am    1  UNL1       -0.2626
      8 C           6.9397   -4.9711   25.7577 C.3     1  UNL1        0.0964
      9 C           6.6958   -5.5733   27.1097 C.3     1  UNL1        0.0392
     10 C           7.1384   -4.5824   28.1452 C.3     1  UNL1        0.0794
     11 C           7.6558   -3.3678   27.4332 C.3     1  UNL1        0.1109
     12 C           8.1019   -2.1871   22.2459 C.3     1  UNL1        0.1147
     13 C           6.7661   -1.9644   18.8185 C.2     1  UNL1        0.2551
     14 O           6.9518   -1.4949   17.4061 O.2     1  UNL1       -0.2694
     15 N           7.9379   -2.4882   19.5949 N.am    1  UNL1       -0.2738
     16 C           9.2952   -2.5424   18.9588 C.3     1  UNL1        0.1152
     17 C           3.5178   -1.2046   20.8026 C.ar    1  UNL1        0.0296
     18 C           3.1221   -2.4489   20.0643 C.ar    1  UNL1        0.0071
     19 C           4.2908   -2.8850   19.2312 C.ar    1  UNL1        0.0115
     20 C           5.4088   -1.9102   19.4546 C.ar    1  UNL1        0.0830
     21 S           4.9310   -0.8717   20.4257 S.2     1  UNL1       -0.0824
     22 C           0.9211    1.1212   23.6482 C.ar    1  UNL1       -0.0222
     23 C           0.6569    1.1803   22.1729 C.ar    1  UNL1       -0.0043
     24 C           1.5225    0.4050   21.2243 C.ar    1  UNL1        0.0002
     25 C           2.6522   -0.4293   21.7511 C.ar    1  UNL1        0.0060
     26 C           2.9164   -0.4884   23.2265 C.ar    1  UNL1        0.0002
     27 C           2.0509    0.2869   24.1750 C.ar    1  UNL1       -0.0043
     28 C          -0.1129    1.4282   26.0118 C.3     1  UNL1        0.0050
     29 C           0.0556    1.8965   24.5968 C.3     1  UNL1        0.0264
     30 N           7.0747   -4.7728   29.6317 N.3     1  UNL1       -0.2640
     31 C           7.5844   -6.0419   30.2478 C.3     1  UNL1        0.0899
     32 C           6.5014   -3.6940   30.5021 C.3     1  UNL1        0.1767
     33 C           7.2809   -3.1863   31.6789 C.3     1  UNL1        0.4121
     34 F           8.0603   -2.6787   32.8557 F       1  UNL1       -0.1685
     35 F           8.2489   -2.5170   30.7489 F       1  UNL1       -0.1685
     36 F           6.3128   -3.8558   32.6088 F       1  UNL1       -0.1685
@<TRIPOS>BOND
     1    28    29    1
     2    29    22    1
     3    22    23   ar
     4    23    24   ar
     5    24    25   ar
     6    25    17    1
     7    17    18   ar
     8    18    19   ar
     9    19    20   ar
    10    20    13    1
    11    13    14    2
    12    13    15   am
    13    15    16    1
    14     1    15    1
    15     1     2    1
    16     2     3    1
    17     3     4    1
    18     4     5   am
    19     5     6    2
    20     5     7   am
    21     7     8    1
    22     8     9    1
    23     9    10    1
    24    10    30    1
    25    30    31    1
    26    30    32    1
    27    32    33    1
    28    33    34    1
    29    33    35    1
    30    33    36    1
    31    10    11    1
    32     4    12    1
    33    20    21   ar
    34    25    26   ar
    35    26    27   ar
    36    27    22   ar
    37    21    17   ar
    38    12     1    1
    39    11     7    1
@<TRIPOS>MOLECULE
*****
 36 39 0 0 0
SMALL
GASTEIGER

@<TRIPOS>ATOM
      1 C           4.0068    0.2000   20.0516 C.3     1  UNL1        0.0972
      2 C           2.5542   -0.1072   20.2653 C.3     1  UNL1        0.0431
      3 C           2.1753    0.3734   21.6348 C.3     1  UNL1        0.0968
      4 N           3.3937    0.9777   22.2675 N.am    1  UNL1       -0.2623
      5 C           3.4673    1.5829   23.6380 C.2     1  UNL1        0.3073
      6 O           4.7620    2.1516   24.1382 O.2     1  UNL1       -0.2523
      7 N           2.2461    1.6195   24.5083 N.am    1  UNL1       -0.2626
      8 C           0.8892    1.0926   24.1460 C.3     1  UNL1        0.0964
      9 C          -0.0281    1.3368   25.3075 C.3     1  UNL1        0.0392
     10 C           0.7619    2.0146   26.3876 C.3     1  UNL1        0.0794
     11 C           2.1674    2.1892   25.8936 C.3     1  UNL1        0.1109
     12 C           4.5256    0.8706   21.2891 C.3     1  UNL1        0.1147
     13 C           5.5329   -1.4134   18.7034 C.2     1  UNL1        0.2551
     14 O           6.3272   -1.7225   17.4691 O.2     1  UNL1       -0.2694
     15 N           4.8011   -0.1090   18.8173 N.am    1  UNL1       -0.2738
     16 C           4.8636    0.8863   17.6969 C.3     1  UNL1        0.1152
     17 C           6.0317   -3.6894   21.8077 C.ar    1  UNL1        0.0296
     18 C           4.7172   -4.1917   21.2882 C.ar    1  UNL1        0.0071
     19 C           4.3703   -3.4002   20.0621 C.ar    1  UNL1        0.0115
     20 C           5.4705   -2.4088   19.8238 C.ar    1  UNL1        0.0830
     21 S           6.4972   -2.5875   20.9026 S.2     1  UNL1       -0.0824
     22 C           8.1981   -5.2195   25.4430 C.ar    1  UNL1       -0.0222
     23 C           6.9488   -4.4047   25.6020 C.ar    1  UNL1       -0.0043
     24 C           6.2266   -3.8947   24.3903 C.ar    1  UNL1        0.0002
     25 C           6.7538   -4.1994   23.0195 C.ar    1  UNL1        0.0060
     26 C           8.0031   -5.0142   22.8604 C.ar    1  UNL1        0.0002
     27 C           8.7252   -5.5242   24.0722 C.ar    1  UNL1       -0.0043
     28 C           8.1977   -5.8480   27.9639 C.3     1  UNL1        0.0050
     29 C           8.9202   -5.7295   26.6548 C.3     1  UNL1        0.0264
     30 N           0.2383    2.4425   27.7265 N.3     1  UNL1       -0.2640
     31 C          -0.1650    3.8694   27.9529 C.3     1  UNL1        0.0899
     32 C           0.1179    1.4435   28.8389 C.3     1  UNL1        0.1767
     33 C          -0.7170    0.2111   28.6532 C.3     1  UNL1        0.4121
     34 F          -1.5518   -1.0212   28.4675 F       1  UNL1       -0.1685
     35 F          -1.9029    1.0654   28.3156 F       1  UNL1       -0.1685
     36 F           0.4689   -0.6431   28.9908 F       1  UNL1       -0.1685
@<TRIPOS>BOND
     1    28    29    1
     2    29    22    1
     3    22    23   ar
     4    23    24   ar
     5    24    25   ar
     6    25    17    1
     7    17    18   ar
     8    18    19   ar
     9    19    20   ar
    10    20    13    1
    11    13    14    2
    12    13    15   am
    13    15    16    1
    14     1    15    1
    15     1     2    1
    16     2     3    1
    17     3     4    1
    18     4     5   am
    19     5     6    2
    20     5     7   am
    21     7     8    1
    22     8     9    1
    23     9    10    1
    24    10    30    1
    25    30    31    1
    26    30    32    1
    27    32    33    1
    28    33    34    1
    29    33    35    1
    30    33    36    1
    31    10    11    1
    32     4    12    1
    33    20    21   ar
    34    25    26   ar
    35    26    27   ar
    36    27    22   ar
    37    21    17   ar
    38    12     1    1
    39    11     7    1
@<TRIPOS>MOLECULE
*****
 36 39 0 0 0
SMALL
GASTEIGER

@<TRIPOS>ATOM
      1 C           7.7946   -2.6470   21.0947 C.3     1  UNL1        0.0972
      2 C           7.5843   -1.4908   22.0269 C.3     1  UNL1        0.0431
      3 C           7.4380   -2.0364   23.4165 C.3     1  UNL1        0.0968
      4 N           7.5578   -3.5298   23.3431 N.am    1  UNL1       -0.2623
      5 C           7.4723   -4.4792   24.5012 C.2     1  UNL1        0.3073
      6 O           7.6116   -5.9552   24.2730 O.2     1  UNL1       -0.2523
      7 N           7.2475   -3.9526   25.8876 N.am    1  UNL1       -0.2626
      8 C           7.0902   -2.5102   26.2681 C.3     1  UNL1        0.0964
      9 C           6.8859   -2.4421   27.7527 C.3     1  UNL1        0.0392
     10 C           6.9170   -3.8424   28.2896 C.3     1  UNL1        0.0794
     11 C           7.1404   -4.7759   27.1369 C.3     1  UNL1        0.1109
     12 C           7.7782   -3.9072   21.9082 C.3     1  UNL1        0.1147
     13 C           6.8071   -2.3303   18.7125 C.2     1  UNL1        0.2551
     14 O           6.9999   -2.2419   17.2276 O.2     1  UNL1       -0.2694
     15 N           7.9874   -2.5585   19.6098 N.am    1  UNL1       -0.2738
     16 C           9.3603   -2.6982   19.0221 C.3     1  UNL1        0.1152
     17 C           3.3589   -1.2317   20.1155 C.ar    1  UNL1        0.0296
     18 C           3.2837   -2.7192   20.2934 C.ar    1  UNL1        0.0071
     19 C           4.5662   -3.3119   19.7895 C.ar    1  UNL1        0.0115
     20 C           5.4341   -2.1906   19.3002 C.ar    1  UNL1        0.0830
     21 S           4.6880   -0.9050   19.5017 S.2     1  UNL1       -0.0824
     22 C           0.1593    1.7305   21.2281 C.ar    1  UNL1       -0.0222
     23 C           0.3550    1.3416   19.7927 C.ar    1  UNL1       -0.0043
     24 C           1.4215    0.3542   19.4219 C.ar    1  UNL1        0.0002
     25 C           2.2924   -0.2443   20.4864 C.ar    1  UNL1        0.0060
     26 C           2.0968    0.1446   21.9218 C.ar    1  UNL1        0.0002
     27 C           1.0302    1.1320   22.2927 C.ar    1  UNL1       -0.0043
     28 C          -1.9110    3.1577   20.5749 C.3     1  UNL1        0.0050
     29 C          -0.9072    2.7179   21.5990 C.3     1  UNL1        0.0264
     30 N           6.7533   -4.2394   29.7268 N.3     1  UNL1       -0.2640
     31 C           6.4096   -3.2041   30.7563 C.3     1  UNL1        0.0899
     32 C           6.9334   -5.6716   30.1344 C.3     1  UNL1        0.1767
     33 C           8.0918   -6.0643   31.0029 C.3     1  UNL1        0.4121
     34 F           9.2501   -6.4569   31.8713 F       1  UNL1       -0.1685
     35 F           7.1428   -6.4134   32.1108 F       1  UNL1       -0.1685
     36 F           9.0408   -5.7151   29.8949 F       1  UNL1       -0.1685
@<TRIPOS>BOND
     1    28    29    1
     2    29    22    1
     3    22    23   ar
     4    23    24   ar
     5    24    25   ar
     6    25    17    1
     7    17    18   ar
     8    18    19   ar
     9    19    20   ar
    10    20    13    1
    11    13    14    2
    12    13    15   am
    13    15    16    1
    14     1    15    1
    15     1     2    1
    16     2     3    1
    17     3     4    1
    18     4     5   am
    19     5     6    2
    20     5     7   am
    21     7     8    1
    22     8     9    1
    23     9    10    1
    24    10    30    1
    25    30    31    1
    26    30    32    1
    27    32    33    1
    28    33    34    1
    29    33    35    1
    30    33    36    1
    31    10    11    1
    32     4    12    1
    33    20    21   ar
    34    25    26   ar
    35    26    27   ar
    36    27    22   ar
    37    21    17   ar
    38    12     1    1
    39    11     7    1
@<TRIPOS>MOLECULE
*****
 36 39 0 0 0
SMALL
GASTEIGER

@<TRIPOS>ATOM
      1 C          -0.5444    2.4666   26.7673 C.3     1  UNL1        0.0972
      2 C          -0.1628    1.0161   26.7508 C.3     1  UNL1        0.0431
      3 C           0.6465    0.7356   27.9823 C.3     1  UNL1        0.0968
      4 N           0.7650    2.0129   28.7599 N.am    1  UNL1       -0.2623
      5 C           1.4918    2.1894   30.0601 C.2     1  UNL1        0.3073
      6 O           1.5248    3.5338   30.7244 O.2     1  UNL1       -0.2523
      7 N           2.1857    1.0214   30.6959 N.am    1  UNL1       -0.2626
      8 C           2.2387   -0.3755   30.1520 C.3     1  UNL1        0.0964
      9 C           3.0342   -1.2150   31.1073 C.3     1  UNL1        0.0392
     10 C           3.4729   -0.3369   32.2415 C.3     1  UNL1        0.0794
     11 C           2.9485    1.0453   31.9873 C.3     1  UNL1        0.1109
     12 C           0.0290    3.0827   28.0090 C.3     1  UNL1        0.1147
     13 C          -0.8881    3.2060   24.3004 C.2     1  UNL1        0.2551
     14 O          -1.7004    3.9158   23.2582 O.2     1  UNL1       -0.2694
     15 N          -1.3567    3.1765   25.7251 N.am    1  UNL1       -0.2738
     16 C          -2.6376    3.8568   26.1074 C.3     1  UNL1        0.1152
     17 C           1.9783    0.9820   22.9207 C.ar    1  UNL1        0.0296
     18 C           2.7498    1.9751   23.7382 C.ar    1  UNL1        0.0071
     19 C           1.7700    2.9291   24.3546 C.ar    1  UNL1        0.0115
     20 C           0.3929    2.5256   23.9180 C.ar    1  UNL1        0.0830
     21 S           0.5216    1.3222   23.0318 S.2     1  UNL1       -0.0824
     22 C           3.7266   -2.4205   20.5508 C.ar    1  UNL1       -0.0222
     23 C           4.1678   -2.1871   21.9653 C.ar    1  UNL1       -0.0043
     24 C           3.5850   -1.0529   22.7552 C.ar    1  UNL1        0.0002
     25 C           2.5610   -0.1521   22.1307 C.ar    1  UNL1        0.0060
     26 C           2.1199   -0.3855   20.7162 C.ar    1  UNL1        0.0002
     27 C           2.7026   -1.5197   19.9262 C.ar    1  UNL1       -0.0043
     28 C           3.4468   -4.7182   19.3709 C.3     1  UNL1        0.0050
     29 C           4.3094   -3.5546   19.7608 C.3     1  UNL1        0.0264
     30 N           4.2921   -0.7657   33.4226 N.3     1  UNL1       -0.2640
     31 C           4.7857   -2.1788   33.5197 C.3     1  UNL1        0.0899
     32 C           4.6178    0.2186   34.5066 C.3     1  UNL1        0.1767
     33 C           5.4770   -0.1971   35.6638 C.3     1  UNL1        0.4121
     34 F           6.3362   -0.6128   36.8210 F       1  UNL1       -0.1685
     35 F           4.2507   -0.5908   36.4328 F       1  UNL1       -0.1685
     36 F           6.7033    0.1966   34.8948 F       1  UNL1       -0.1685
@<TRIPOS>BOND
     1    28    29    1
     2    29    22    1
     3    22    23   ar
     4    23    24   ar
     5    24    25   ar
     6    25    17    1
     7    17    18   ar
     8    18    19   ar
     9    19    20   ar
    10    20    13    1
    11    13    14    2
    12    13    15   am
    13    15    16    1
    14     1    15    1
    15     1     2    1
    16     2     3    1
    17     3     4    1
    18     4     5   am
    19     5     6    2
    20     5     7   am
    21     7     8    1
    22     8     9    1
    23     9    10    1
    24    10    30    1
    25    30    31    1
    26    30    32    1
    27    32    33    1
    28    33    34    1
    29    33    35    1
    30    33    36    1
    31    10    11    1
    32     4    12    1
    33    20    21   ar
    34    25    26   ar
    35    26    27   ar
    36    27    22   ar
    37    21    17   ar
    38    12     1    1
    39    11     7    1
@<TRIPOS>MOLECULE
*****
 36 39 0 0 0
SMALL
GASTEIGER

@<TRIPOS>ATOM
      1 C           7.5230   -2.8042   31.2425 C.3     1  UNL1        0.0972
      2 C           8.3163   -1.7141   31.9001 C.3     1  UNL1        0.0431
      3 C           7.4832   -1.1369   33.0059 C.3     1  UNL1        0.0968
      4 N           6.1750   -1.8703   33.0318 N.am    1  UNL1       -0.2623
      5 C           5.0412   -1.6177   33.9808 C.2     1  UNL1        0.3073
      6 O           3.7872   -2.4354   33.8859 O.2     1  UNL1       -0.2523
      7 N           5.1613   -0.5473   35.0248 N.am    1  UNL1       -0.2626
      8 C           6.3472    0.3457   35.2395 C.3     1  UNL1        0.0964
      9 C           6.0355    1.2629   36.3848 C.3     1  UNL1        0.0392
     10 C           4.6570    0.9367   36.8779 C.3     1  UNL1        0.0794
     11 C           4.1167   -0.1821   36.0374 C.3     1  UNL1        0.1109
     12 C           6.1995   -2.9007   31.9420 C.3     1  UNL1        0.1147
     13 C           7.5813   -3.2786   28.6888 C.2     1  UNL1        0.2551
     14 O           8.0322   -4.1237   27.5345 O.2     1  UNL1       -0.2694
     15 N           7.9739   -3.6493   30.0883 N.am    1  UNL1       -0.2738
     16 C           8.8174   -4.8651   30.3333 C.3     1  UNL1        0.1152
     17 C           4.8201   -0.6113   28.1173 C.ar    1  UNL1        0.0296
     18 C           6.0592    0.2279   28.0154 C.ar    1  UNL1        0.0071
     19 C           7.2444   -0.6691   28.2171 C.ar    1  UNL1        0.0115
     20 C           6.7378   -2.0627   28.4436 C.ar    1  UNL1        0.0830
     21 S           5.2395   -2.0269   28.3819 S.2     1  UNL1       -0.0824
     22 C           0.5877    0.8599   27.7019 C.ar    1  UNL1       -0.0222
     23 C           0.9433   -0.1022   28.7964 C.ar    1  UNL1       -0.0043
     24 C           2.3541   -0.5926   28.9348 C.ar    1  UNL1        0.0002
     25 C           3.4093   -0.1209   27.9788 C.ar    1  UNL1        0.0060
     26 C           3.0537    0.8411   26.8843 C.ar    1  UNL1        0.0002
     27 C           1.6429    1.3315   26.7458 C.ar    1  UNL1       -0.0043
     28 C          -1.0901    2.7233   27.0217 C.3     1  UNL1        0.0050
     29 C          -0.8231    1.3503   27.5634 C.3     1  UNL1        0.0264
     30 N           3.9439    1.6109   38.0123 N.3     1  UNL1       -0.2640
     31 C           4.7232    2.1370   39.1811 C.3     1  UNL1        0.0899
     32 C           2.4516    1.7590   37.9781 C.3     1  UNL1        0.1767
     33 C           1.6304    1.3559   39.1669 C.3     1  UNL1        0.4121
     34 F           0.8092    0.9528   40.3556 F       1  UNL1       -0.1685
     35 F           1.5559    2.7896   39.6015 F       1  UNL1       -0.1685
     36 F           1.7049   -0.0778   38.7321 F       1  UNL1       -0.1685
@<TRIPOS>BOND
     1    28    29    1
     2    29    22    1
     3    22    23   ar
     4    23    24   ar
     5    24    25   ar
     6    25    17    1
     7    17    18   ar
     8    18    19   ar
     9    19    20   ar
    10    20    13    1
    11    13    14    2
    12    13    15   am
    13    15    16    1
    14     1    15    1
    15     1     2    1
    16     2     3    1
    17     3     4    1
    18     4     5   am
    19     5     6    2
    20     5     7   am
    21     7     8    1
    22     8     9    1
    23     9    10    1
    24    10    30    1
    25    30    31    1
    26    30    32    1
    27    32    33    1
    28    33    34    1
    29    33    35    1
    30    33    36    1
    31    10    11    1
    32     4    12    1
    33    20    21   ar
    34    25    26   ar
    35    26    27   ar
    36    27    22   ar
    37    21    17   ar
    38    12     1    1
    39    11     7    1
@<TRIPOS>MOLECULE
*****
 36 39 0 0 0
SMALL
GASTEIGER

@<TRIPOS>ATOM
      1 C          -0.8259    3.7440   18.9643 C.3     1  UNL1        0.0972
      2 C           0.4575    4.0698   18.2595 C.3     1  UNL1        0.0431
      3 C           1.3812    2.8980   18.4132 C.3     1  UNL1        0.0968
      4 N           0.6687    1.8479   19.2131 N.am    1  UNL1       -0.2623
      5 C           1.2229    0.5100   19.6037 C.2     1  UNL1        0.3073
      6 O           0.3885   -0.4412   20.4094 O.2     1  UNL1       -0.2523
      7 N           2.6114    0.1231   19.1887 N.am    1  UNL1       -0.2626
      8 C           3.5584    0.9650   18.3859 C.3     1  UNL1        0.0964
      9 C           4.8290    0.1887   18.2047 C.3     1  UNL1        0.0392
     10 C           4.6673   -1.1330   18.8954 C.3     1  UNL1        0.0794
     11 C           3.2968   -1.1735   19.5036 C.3     1  UNL1        0.1109
     12 C          -0.6954    2.3708   19.5536 C.3     1  UNL1        0.1147
     13 C          -2.4096    5.2380   20.3821 C.2     1  UNL1        0.2551
     14 O          -3.6123    6.1289   20.4803 O.2     1  UNL1       -0.2694
     15 N          -2.0287    4.6349   19.0625 N.am    1  UNL1       -0.2738
     16 C          -2.8505    4.9229   17.8412 C.3     1  UNL1        0.1152
     17 C          -0.7943    3.9542   23.6697 C.ar    1  UNL1        0.0296
     18 C           0.1480    5.0599   23.2963 C.ar    1  UNL1        0.0071
     19 C          -0.3424    5.6755   22.0193 C.ar    1  UNL1        0.0115
     20 C          -1.5878    4.9501   21.6034 C.ar    1  UNL1        0.0830
     21 S          -1.8670    3.8863   22.6234 S.2     1  UNL1       -0.0824
     22 C          -0.4613    1.3055   27.2924 C.ar    1  UNL1       -0.0222
     23 C          -1.5190    2.3675   27.2344 C.ar    1  UNL1       -0.0043
     24 C          -1.6300    3.2504   26.0268 C.ar    1  UNL1        0.0002
     25 C          -0.6833    3.0713   24.8772 C.ar    1  UNL1        0.0060
     26 C           0.3744    2.0093   24.9352 C.ar    1  UNL1        0.0002
     27 C           0.4854    1.1264   26.1428 C.ar    1  UNL1       -0.0043
     28 C          -1.4896   -0.4764   28.8789 C.3     1  UNL1        0.0050
     29 C          -0.3503    0.4227   28.4999 C.3     1  UNL1        0.0264
     30 N           5.6956   -2.2227   18.9656 N.3     1  UNL1       -0.2640
     31 C           6.9157   -2.1598   18.0952 C.3     1  UNL1        0.0899
     32 C           5.5039   -3.3754   19.9062 C.3     1  UNL1        0.1767
     33 C           4.4008   -4.3633   19.6667 C.3     1  UNL1        0.4121
     34 F           3.2978   -5.3512   19.4273 F       1  UNL1       -0.1685
     35 F           3.9587   -4.2151   21.0924 F       1  UNL1       -0.1685
     36 F           4.8431   -4.5115   18.2410 F       1  UNL1       -0.1685
@<TRIPOS>BOND
     1    28    29    1
     2    29    22    1
     3    22    23   ar
     4    23    24   ar
     5    24    25   ar
     6    25    17    1
     7    17    18   ar
     8    18    19   ar
     9    19    20   ar
    10    20    13    1
    11    13    14    2
    12    13    15   am
    13    15    16    1
    14     1    15    1
    15     1     2    1
    16     2     3    1
    17     3     4    1
    18     4     5   am
    19     5     6    2
    20     5     7   am
    21     7     8    1
    22     8     9    1
    23     9    10    1
    24    10    30    1
    25    30    31    1
    26    30    32    1
    27    32    33    1
    28    33    34    1
    29    33    35    1
    30    33    36    1
    31    10    11    1
    32     4    12    1
    33    20    21   ar
    34    25    26   ar
    35    26    27   ar
    36    27    22   ar
    37    21    17   ar
    38    12     1    1
    39    11     7    1
@<TRIPOS>MOLECULE
*****
 36 39 0 0 0
SMALL
GASTEIGER

@<TRIPOS>ATOM
      1 C           4.0817    0.1094   28.3984 C.3     1  UNL1        0.0972
      2 C           3.6881   -1.2754   27.9773 C.3     1  UNL1        0.0431
      3 C           4.0920   -1.4565   26.5440 C.3     1  UNL1        0.0968
      4 N           4.7351   -0.1836   26.0793 N.am    1  UNL1       -0.2623
      5 C           5.2876    0.0761   24.7092 C.2     1  UNL1        0.3073
      6 O           5.9047    1.4052   24.3888 O.2     1  UNL1       -0.2523
      7 N           5.2230   -0.9934   23.6594 N.am    1  UNL1       -0.2626
      8 C           4.6387   -2.3641   23.8321 C.3     1  UNL1        0.0964
      9 C           4.7859   -3.0978   22.5320 C.3     1  UNL1        0.0392
     10 C           5.4612   -2.1806   21.5560 C.3     1  UNL1        0.0794
     11 C           5.7313   -0.8800   22.2527 C.3     1  UNL1        0.1109
     12 C           4.7288    0.7842   27.2253 C.3     1  UNL1        0.1147
     13 C           2.5113    1.2299   30.1385 C.2     1  UNL1        0.2551
     14 O           2.2957    1.8339   31.4945 O.2     1  UNL1       -0.2694
     15 N           3.8661    0.7134   29.7544 N.am    1  UNL1       -0.2738
     16 C           5.0053    0.8009   30.7262 C.3     1  UNL1        0.1152
     17 C          -0.1649    1.6550   27.3596 C.ar    1  UNL1        0.0296
     18 C          -0.5973    0.3609   27.9829 C.ar    1  UNL1        0.0071
     19 C           0.3525    0.0442   29.0998 C.ar    1  UNL1        0.0115
     20 C           1.3720    1.1425   29.1667 C.ar    1  UNL1        0.0830
     21 S           1.0522    2.1379   28.0912 S.2     1  UNL1       -0.0824
     22 C          -2.1675    3.7246   23.9018 C.ar    1  UNL1       -0.0222
     23 C          -0.8797    2.9853   23.6895 C.ar    1  UNL1       -0.0043
     24 C          -0.2122    2.2955   24.8421 C.ar    1  UNL1        0.0002
     25 C          -0.8325    2.3448   26.2070 C.ar    1  UNL1        0.0060
     26 C          -2.1202    3.0841   26.4192 C.ar    1  UNL1        0.0002
     27 C          -2.7877    3.7740   25.2666 C.ar    1  UNL1       -0.0043
     28 C          -4.0373    3.7963   22.0994 C.3     1  UNL1        0.0050
     29 C          -2.8350    4.4145   22.7492 C.3     1  UNL1        0.0264
     30 N           5.8058   -2.5068   20.1330 N.3     1  UNL1       -0.2640
     31 C           7.2170   -2.8566   19.7644 C.3     1  UNL1        0.0899
     32 C           4.7391   -2.4831   19.0786 C.3     1  UNL1        0.1767
     33 C           3.7039   -3.5678   19.0345 C.3     1  UNL1        0.4121
     34 F           2.6687   -4.6524   18.9904 F       1  UNL1       -0.1685
     35 F           4.6792   -4.4703   18.3387 F       1  UNL1       -0.1685
     36 F           2.7285   -2.6652   19.7303 F       1  UNL1       -0.1685
@<TRIPOS>BOND
     1    28    29    1
     2    29    22    1
     3    22    23   ar
     4    23    24   ar
     5    24    25   ar
     6    25    17    1
     7    17    18   ar
     8    18    19   ar
     9    19    20   ar
    10    20    13    1
    11    13    14    2
    12    13    15   am
    13    15    16    1
    14     1    15    1
    15     1     2    1
    16     2     3    1
    17     3     4    1
    18     4     5   am
    19     5     6    2
    20     5     7   am
    21     7     8    1
    22     8     9    1
    23     9    10    1
    24    10    30    1
    25    30    31    1
    26    30    32    1
    27    32    33    1
    28    33    34    1
    29    33    35    1
    30    33    36    1
    31    10    11    1
    32     4    12    1
    33    20    21   ar
    34    25    26   ar
    35    26    27   ar
    36    27    22   ar
    37    21    17   ar
    38    12     1    1
    39    11     7    1
@<TRIPOS>MOLECULE
*****
 36 39 0 0 0
SMALL
GASTEIGER

@<TRIPOS>ATOM
      1 C          -0.3830    4.5035   23.9892 C.3     1  UNL1        0.0972
      2 C          -1.2172    3.6015   23.1287 C.3     1  UNL1        0.0431
      3 C          -0.3007    2.6181   22.4630 C.3     1  UNL1        0.0968
      4 N           1.0999    2.9124   22.9121 N.am    1  UNL1       -0.2623
      5 C           2.3345    2.1715   22.4917 C.2     1  UNL1        0.3073
      6 O           3.6743    2.5822   23.0267 O.2     1  UNL1       -0.2523
      7 N           2.2294    1.0199   21.5363 N.am    1  UNL1       -0.2626
      8 C           0.9651    0.4973   20.9212 C.3     1  UNL1        0.0964
      9 C           1.3244   -0.6569   20.0330 C.3     1  UNL1        0.0392
     10 C           2.8108   -0.8475   20.0992 C.3     1  UNL1        0.0794
     11 C           3.3701    0.1888   21.0283 C.3     1  UNL1        0.1109
     12 C           1.0491    4.0776   23.8553 C.3     1  UNL1        0.1147
     13 C          -1.1516    5.4175   26.2965 C.2     1  UNL1        0.2551
     14 O          -1.6600    6.5471   27.1424 O.2     1  UNL1       -0.2694
     15 N          -0.8914    5.6331   24.8351 N.am    1  UNL1       -0.2738
     16 C          -1.1398    6.9782   24.2195 C.3     1  UNL1        0.1152
     17 C           0.0619    2.2837   28.2387 C.ar    1  UNL1        0.0296
     18 C          -1.1039    1.7214   27.4804 C.ar    1  UNL1        0.0071
     19 C          -1.7003    2.8269   26.6606 C.ar    1  UNL1        0.0115
     20 C          -0.9032    4.0724   26.9122 C.ar    1  UNL1        0.0830
     21 S           0.1859    3.7367   27.8874 S.2     1  UNL1       -0.0824
     22 C           2.7203    0.0105   31.0699 C.ar    1  UNL1       -0.0222
     23 C           2.2258    1.3775   31.4396 C.ar    1  UNL1       -0.0043
     24 C           1.3397    2.1352   30.4959 C.ar    1  UNL1        0.0002
     25 C           0.9480    1.5259   29.1824 C.ar    1  UNL1        0.0060
     26 C           1.4425    0.1590   28.8126 C.ar    1  UNL1        0.0002
     27 C           2.3287   -0.5987   29.7563 C.ar    1  UNL1       -0.0043
     28 C           4.0520   -0.1120   33.2973 C.3     1  UNL1        0.0050
     29 C           3.6064   -0.7472   32.0136 C.3     1  UNL1        0.0264
     30 N           3.5993   -1.8913   19.3652 N.3     1  UNL1       -0.2640
     31 C           4.1119   -1.6103   17.9838 C.3     1  UNL1        0.0899
     32 C           3.8753   -3.2159   20.0126 C.3     1  UNL1        0.1767
     33 C           4.2964   -4.3869   19.1749 C.3     1  UNL1        0.4121
     34 F           4.7175   -5.5578   18.3372 F       1  UNL1       -0.1685
     35 F           5.7246   -4.1571   19.5717 F       1  UNL1       -0.1685
     36 F           2.8681   -4.6166   18.7781 F       1  UNL1       -0.1685
@<TRIPOS>BOND
     1    28    29    1
     2    29    22    1
     3    22    23   ar
     4    23    24   ar
     5    24    25   ar
     6    25    17    1
     7    17    18   ar
     8    18    19   ar
     9    19    20   ar
    10    20    13    1
    11    13    14    2
    12    13    15   am
    13    15    16    1
    14     1    15    1
    15     1     2    1
    16     2     3    1
    17     3     4    1
    18     4     5   am
    19     5     6    2
    20     5     7   am
    21     7     8    1
    22     8     9    1
    23     9    10    1
    24    10    30    1
    25    30    31    1
    26    30    32    1
    27    32    33    1
    28    33    34    1
    29    33    35    1
    30    33    36    1
    31    10    11    1
    32     4    12    1
    33    20    21   ar
    34    25    26   ar
    35    26    27   ar
    36    27    22   ar
    37    21    17   ar
    38    12     1    1
    39    11     7    1
@<TRIPOS>MOLECULE
*****
 36 39 0 0 0
SMALL
GASTEIGER

@<TRIPOS>ATOM
      1 C           3.9546   -1.3337   20.2866 C.3     1  UNL1        0.0972
      2 C           4.8699   -1.6703   21.4263 C.3     1  UNL1        0.0431
      3 C           4.2807   -1.0944   22.6798 C.3     1  UNL1        0.0968
      4 N           3.0013   -0.4018   22.3149 N.am    1  UNL1       -0.2623
      5 C           2.0843    0.3131   23.2625 C.2     1  UNL1        0.3073
      6 O           0.8331    0.9621   22.7494 O.2     1  UNL1       -0.2523
      7 N           2.4186    0.3790   24.7233 N.am    1  UNL1       -0.2626
      8 C           3.6278   -0.2194   25.3789 C.3     1  UNL1        0.0964
      9 C           3.5589    0.0867   26.8458 C.3     1  UNL1        0.0392
     10 C           2.3071    0.8741   27.0967 C.3     1  UNL1        0.0794
     11 C           1.6024    1.0548   25.7850 C.3     1  UNL1        0.1109
     12 C           2.7996   -0.5497   20.8358 C.3     1  UNL1        0.1147
     13 C           3.6944   -0.7964   17.7581 C.2     1  UNL1        0.2551
     14 O           3.8981   -1.1769   16.3215 O.2     1  UNL1       -0.2694
     15 N           4.1583   -1.7142   18.8501 N.am    1  UNL1       -0.2738
     16 C           4.8260   -3.0124   18.5055 C.3     1  UNL1        0.1152
     17 C           1.3280    2.1698   18.5752 C.ar    1  UNL1        0.0296
     18 C           2.6702    2.8295   18.6904 C.ar    1  UNL1        0.0071
     19 C           3.7201    1.7987   18.3983 C.ar    1  UNL1        0.0115
     20 C           3.0267    0.5019   18.1026 C.ar    1  UNL1        0.0830
     21 S           1.5484    0.7312   18.2119 S.2     1  UNL1       -0.0824
     22 C          -2.6593    4.1574   19.2083 C.ar    1  UNL1       -0.0222
     23 C          -2.0026    3.4175   20.3358 C.ar    1  UNL1       -0.0043
     24 C          -0.6735    2.7550   20.1248 C.ar    1  UNL1        0.0002
     25 C          -0.0011    2.8323   18.7862 C.ar    1  UNL1        0.0060
     26 C          -0.6577    3.5722   17.6587 C.ar    1  UNL1        0.0002
     27 C          -1.9868    4.2347   17.8697 C.ar    1  UNL1       -0.0043
     28 C          -4.8225    5.2207   18.2388 C.3     1  UNL1        0.0050
     29 C          -3.9884    4.8199   19.4193 C.3     1  UNL1        0.0264
     30 N           1.8418    1.3903   28.4260 N.3     1  UNL1       -0.2640
     31 C           2.8441    1.8096   29.4603 C.3     1  UNL1        0.0899
     32 C           0.3743    1.4872   28.7210 C.3     1  UNL1        0.1767
     33 C          -0.4940    0.2685   28.6153 C.3     1  UNL1        0.4121
     34 F          -1.3622   -0.9501   28.5095 F       1  UNL1       -0.1685
     35 F          -1.5379    1.0744   27.9006 F       1  UNL1       -0.1685
     36 F           0.5500   -0.5373   29.3299 F       1  UNL1       -0.1685
@<TRIPOS>BOND
     1    28    29    1
     2    29    22    1
     3    22    23   ar
     4    23    24   ar
     5    24    25   ar
     6    25    17    1
     7    17    18   ar
     8    18    19   ar
     9    19    20   ar
    10    20    13    1
    11    13    14    2
    12    13    15   am
    13    15    16    1
    14     1    15    1
    15     1     2    1
    16     2     3    1
    17     3     4    1
    18     4     5   am
    19     5     6    2
    20     5     7   am
    21     7     8    1
    22     8     9    1
    23     9    10    1
    24    10    30    1
    25    30    31    1
    26    30    32    1
    27    32    33    1
    28    33    34    1
    29    33    35    1
    30    33    36    1
    31    10    11    1
    32     4    12    1
    33    20    21   ar
    34    25    26   ar
    35    26    27   ar
    36    27    22   ar
    37    21    17   ar
    38    12     1    1
    39    11     7    1
