@<TRIPOS>MOLECULE
*****
 29 31 0 0 0
SMALL
GASTEIGER

@<TRIPOS>ATOM
      1 O          -8.4439  -19.8218   22.3886 O.2     1  UNL1       -0.2732
      2 C          -8.0609  -18.7550   21.4062 C.2     1  UNL1        0.2430
      3 N          -8.3281  -17.3133   21.7226 N.am    1  UNL1       -0.2960
      4 H          -8.0767  -16.6131   21.0778 H       1  UNL1        0.1501
      5 C          -7.4108  -19.1298   20.1075 C.3     1  UNL1        0.1759
      6 N          -5.9986  -18.7089   19.8267 N.am    1  UNL1       -0.2931
      7 C          -4.8919  -19.1373   20.7440 C.2     1  UNL1        0.2462
      8 O          -5.1972  -19.9865   21.9422 O.2     1  UNL1       -0.2701
      9 H          -5.7982  -18.1516   19.0403 H       1  UNL1        0.1502
     10 C          -3.4797  -18.7164   20.4633 C.ar    1  UNL1        0.0535
     11 C          -2.4366  -18.8283   21.5353 C.ar    1  UNL1        0.0068
     12 C          -1.0245  -18.4075   21.2545 C.ar    1  UNL1        0.0298
     13 C          -0.6556  -17.8748   19.9016 C.ar    1  UNL1        0.1401
     14 F           0.7566  -17.4539   19.6208 F       1  UNL1       -0.2042
     15 C          -1.6987  -17.7629   18.8296 C.ar    1  UNL1        0.0298
     16 C          -3.1108  -18.1837   19.1104 C.ar    1  UNL1        0.0068
     17 C          -8.9782  -16.9384   23.0214 C.3     1  UNL1        0.1366
     18 C         -10.4443  -17.1824   23.2241 C.ar    1  UNL1        0.0012
     19 C         -10.9027  -18.3110   24.0993 C.ar    1  UNL1       -0.0023
     20 C         -12.3689  -18.5550   24.3021 C.ar    1  UNL1       -0.0003
     21 C         -13.3764  -17.6703   23.6296 C.ar    1  UNL1       -0.0000
     22 C         -12.9179  -16.5417   22.7544 C.ar    1  UNL1       -0.0003
     23 C         -11.4518  -16.2977   22.5516 C.ar    1  UNL1       -0.0023
     24 C          -8.1623  -16.3196   24.1174 C.ar    1  UNL1        0.1026
     25 C          -8.7068  -16.2567   25.5137 C.ar    1  UNL1        0.0201
     26 C          -7.8908  -15.6379   26.6097 C.ar    1  UNL1        0.0238
     27 C          -6.5304  -15.0819   26.3094 C.ar    1  UNL1        0.1222
     28 N          -5.9859  -15.1447   24.9132 N.ar    1  UNL1       -0.1466
     29 N          -6.8019  -15.7636   23.8171 N.ar    1  UNL1       -0.1503
@<TRIPOS>BOND
     1     1     2    2
     2     2     5    1
     3     5     6    1
     4     6     7   am
     5     7     8    2
     6     7    10    1
     7    10    11   ar
     8    11    12   ar
     9    12    13   ar
    10    13    14    1
    11    13    15   ar
    12    15    16   ar
    13     2     3   am
    14     3    17    1
    15    17    18    1
    16    18    19   ar
    17    19    20   ar
    18    20    21   ar
    19    21    22   ar
    20    22    23   ar
    21    17    24    1
    22    24    25   ar
    23    25    26   ar
    24    26    27   ar
    25    27    28   ar
    26    28    29   ar
    27    16    10   ar
    28    23    18   ar
    29    29    24   ar
    30     6     9    1
    31     3     4    1
@<TRIPOS>MOLECULE
*****
 29 31 0 0 0
SMALL
GASTEIGER

@<TRIPOS>ATOM
      1 O          -8.8798  -20.3306   23.3386 O.2     1  UNL1       -0.2732
      2 C          -7.7539  -19.7291   22.5510 C.2     1  UNL1        0.2430
      3 N          -7.6653  -18.2409   22.3858 N.am    1  UNL1       -0.2960
      4 H          -6.9263  -17.8461   21.8689 H       1  UNL1        0.1501
      5 C          -6.7165  -20.6158   21.9284 C.3     1  UNL1        0.1759
      6 N          -5.3132  -20.1170   21.7491 N.am    1  UNL1       -0.2931
      7 C          -4.9920  -19.1660   20.6344 C.2     1  UNL1        0.2462
      8 O          -6.0740  -18.7139   19.6991 O.2     1  UNL1       -0.2701
      9 H          -4.6031  -20.4138   22.3630 H       1  UNL1        0.1502
     10 C          -3.5887  -18.6672   20.4551 C.ar    1  UNL1        0.0535
     11 C          -2.6562  -18.6132   21.6287 C.ar    1  UNL1        0.0068
     12 C          -1.2531  -18.1143   21.4493 C.ar    1  UNL1        0.0298
     13 C          -0.7824  -17.6696   20.0963 C.ar    1  UNL1        0.1401
     14 F           0.6209  -17.1708   19.9170 F       1  UNL1       -0.2042
     15 C          -1.7149  -17.7237   18.9227 C.ar    1  UNL1        0.0298
     16 C          -3.1181  -18.2225   19.1021 C.ar    1  UNL1        0.0068
     17 C          -8.7027  -17.3541   23.0084 C.3     1  UNL1        0.1366
     18 C          -8.5188  -16.8550   24.4109 C.ar    1  UNL1        0.0012
     19 C          -9.1066  -17.6173   25.5613 C.ar    1  UNL1       -0.0023
     20 C          -8.9228  -17.1182   26.9639 C.ar    1  UNL1       -0.0003
     21 C          -8.1512  -15.8569   27.2160 C.ar    1  UNL1       -0.0000
     22 C          -7.5634  -15.0946   26.0656 C.ar    1  UNL1       -0.0003
     23 C          -7.7472  -15.5937   24.6631 C.ar    1  UNL1       -0.0023
     24 C          -9.9238  -16.9665   22.2284 C.ar    1  UNL1        0.1026
     25 C         -11.1503  -16.4850   22.9454 C.ar    1  UNL1        0.0201
     26 C         -12.3715  -16.0974   22.1654 C.ar    1  UNL1        0.0238
     27 C         -12.3662  -16.1912   20.6683 C.ar    1  UNL1        0.1222
     28 N         -11.1398  -16.6726   19.9513 N.ar    1  UNL1       -0.1466
     29 N          -9.9186  -17.0602   20.7313 N.ar    1  UNL1       -0.1503
@<TRIPOS>BOND
     1     1     2    2
     2     2     5    1
     3     5     6    1
     4     6     7   am
     5     7     8    2
     6     7    10    1
     7    10    11   ar
     8    11    12   ar
     9    12    13   ar
    10    13    14    1
    11    13    15   ar
    12    15    16   ar
    13     2     3   am
    14     3    17    1
    15    17    18    1
    16    18    19   ar
    17    19    20   ar
    18    20    21   ar
    19    21    22   ar
    20    22    23   ar
    21    17    24    1
    22    24    25   ar
    23    25    26   ar
    24    26    27   ar
    25    27    28   ar
    26    28    29   ar
    27    16    10   ar
    28    23    18   ar
    29    29    24   ar
    30     6     9    1
    31     3     4    1
@<TRIPOS>MOLECULE
*****
 29 31 0 0 0
SMALL
GASTEIGER

@<TRIPOS>ATOM
      1 O          -9.5348  -17.1355   20.8812 O.2     1  UNL1       -0.2732
      2 C          -8.6559  -18.2648   21.3307 C.2     1  UNL1        0.2430
      3 N          -8.5313  -18.5826   22.7913 N.am    1  UNL1       -0.2960
      4 H          -7.9544  -19.3239   23.0863 H       1  UNL1        0.1501
      5 C          -7.9015  -19.0763   20.3196 C.3     1  UNL1        0.1759
      6 N          -6.4631  -18.7645   20.0298 N.am    1  UNL1       -0.2931
      7 C          -5.3910  -19.2268   20.9715 C.2     1  UNL1        0.2462
      8 O          -5.7572  -20.0010   22.2030 O.2     1  UNL1       -0.2701
      9 H          -6.2228  -18.2564   19.2215 H       1  UNL1        0.1502
     10 C          -3.9527  -18.9150   20.6817 C.ar    1  UNL1        0.0535
     11 C          -2.9498  -18.8965   21.7969 C.ar    1  UNL1        0.0068
     12 C          -1.5115  -18.5847   21.5071 C.ar    1  UNL1        0.0298
     13 C          -1.0761  -18.2914   20.1020 C.ar    1  UNL1        0.1401
     14 F           0.3623  -17.9796   19.8122 F       1  UNL1       -0.2042
     15 C          -2.0789  -18.3099   18.9867 C.ar    1  UNL1        0.0298
     16 C          -3.5172  -18.6217   19.2765 C.ar    1  UNL1        0.0068
     17 C          -9.2856  -17.7711   23.8025 C.3     1  UNL1        0.1366
     18 C          -8.5401  -16.9454   24.8087 C.ar    1  UNL1        0.0012
     19 C          -8.8891  -17.0417   26.2643 C.ar    1  UNL1       -0.0023
     20 C          -8.1435  -16.2160   27.2705 C.ar    1  UNL1       -0.0003
     21 C          -7.0490  -15.2941   26.8210 C.ar    1  UNL1       -0.0000
     22 C          -6.7000  -15.1978   25.3653 C.ar    1  UNL1       -0.0003
     23 C          -7.4456  -16.0235   24.3592 C.ar    1  UNL1       -0.0023
     24 C         -10.7856  -17.7853   23.8075 C.ar    1  UNL1        0.1026
     25 C         -11.5232  -18.8012   24.6285 C.ar    1  UNL1        0.0201
     26 C         -13.0232  -18.8155   24.6334 C.ar    1  UNL1        0.0238
     27 C         -13.7854  -17.8138   23.8175 C.ar    1  UNL1        0.1222
     28 N         -13.0477  -16.7980   22.9966 N.ar    1  UNL1       -0.1466
     29 N         -11.5478  -16.7838   22.9916 N.ar    1  UNL1       -0.1503
@<TRIPOS>BOND
     1     1     2    2
     2     2     5    1
     3     5     6    1
     4     6     7   am
     5     7     8    2
     6     7    10    1
     7    10    11   ar
     8    11    12   ar
     9    12    13   ar
    10    13    14    1
    11    13    15   ar
    12    15    16   ar
    13     2     3   am
    14     3    17    1
    15    17    18    1
    16    18    19   ar
    17    19    20   ar
    18    20    21   ar
    19    21    22   ar
    20    22    23   ar
    21    17    24    1
    22    24    25   ar
    23    25    26   ar
    24    26    27   ar
    25    27    28   ar
    26    28    29   ar
    27    16    10   ar
    28    23    18   ar
    29    29    24   ar
    30     6     9    1
    31     3     4    1
@<TRIPOS>MOLECULE
*****
 29 31 0 0 0
SMALL
GASTEIGER

@<TRIPOS>ATOM
      1 O          -5.2880  -18.4744   19.6259 O.2     1  UNL1       -0.2732
      2 C          -6.3234  -19.0063   20.5719 C.2     1  UNL1        0.2430
      3 N          -6.1597  -18.8110   22.0500 N.am    1  UNL1       -0.2960
      4 H          -6.8394  -19.1601   22.6709 H       1  UNL1        0.1501
      5 C          -7.5226  -19.7334   20.0397 C.3     1  UNL1        0.1759
      6 N          -8.8328  -19.6510   20.7655 N.am    1  UNL1       -0.2931
      7 C          -9.2793  -18.3492   21.3619 C.2     1  UNL1        0.2462
      8 O          -8.4156  -17.1296   21.2326 O.2     1  UNL1       -0.2701
      9 H          -9.3997  -20.4515   20.8503 H       1  UNL1        0.1502
     10 C         -10.5895  -18.2668   22.0876 C.ar    1  UNL1        0.0535
     11 C         -10.6602  -18.6016   23.5481 C.ar    1  UNL1        0.0068
     12 C         -11.9704  -18.5193   24.2737 C.ar    1  UNL1        0.0298
     13 C         -13.2098  -18.1021   23.5390 C.ar    1  UNL1        0.1401
     14 F         -14.5200  -18.0197   24.2648 F       1  UNL1       -0.2042
     15 C         -13.1390  -17.7672   22.0786 C.ar    1  UNL1        0.0298
     16 C         -11.8289  -17.8496   21.3529 C.ar    1  UNL1        0.0068
     17 C          -4.9605  -18.0839   22.5823 C.3     1  UNL1        0.1366
     18 C          -5.1131  -17.1171   23.7189 C.ar    1  UNL1        0.0012
     19 C          -4.2099  -17.2144   24.9125 C.ar    1  UNL1       -0.0023
     20 C          -4.3625  -16.2475   26.0493 C.ar    1  UNL1       -0.0003
     21 C          -5.4182  -15.1835   25.9923 C.ar    1  UNL1       -0.0000
     22 C          -6.3213  -15.0862   24.7986 C.ar    1  UNL1       -0.0003
     23 C          -6.1688  -16.0530   23.6619 C.ar    1  UNL1       -0.0023
     24 C          -3.6088  -18.3235   21.9778 C.ar    1  UNL1        0.1026
     25 C          -2.7778  -17.1636   21.5150 C.ar    1  UNL1        0.0201
     26 C          -1.4261  -17.4033   20.9106 C.ar    1  UNL1        0.0238
     27 C          -0.9053  -18.8029   20.7689 C.ar    1  UNL1        0.1222
     28 N          -1.7363  -19.9627   21.2316 N.ar    1  UNL1       -0.1466
     29 N          -3.0881  -19.7231   21.8361 N.ar    1  UNL1       -0.1503
@<TRIPOS>BOND
     1     1     2    2
     2     2     5    1
     3     5     6    1
     4     6     7   am
     5     7     8    2
     6     7    10    1
     7    10    11   ar
     8    11    12   ar
     9    12    13   ar
    10    13    14    1
    11    13    15   ar
    12    15    16   ar
    13     2     3   am
    14     3    17    1
    15    17    18    1
    16    18    19   ar
    17    19    20   ar
    18    20    21   ar
    19    21    22   ar
    20    22    23   ar
    21    17    24    1
    22    24    25   ar
    23    25    26   ar
    24    26    27   ar
    25    27    28   ar
    26    28    29   ar
    27    16    10   ar
    28    23    18   ar
    29    29    24   ar
    30     6     9    1
    31     3     4    1
@<TRIPOS>MOLECULE
*****
 29 31 0 0 0
SMALL
GASTEIGER

@<TRIPOS>ATOM
      1 O          -5.3819  -18.3267   19.6063 O.2     1  UNL1       -0.2732
      2 C          -6.2922  -18.9679   20.6114 C.2     1  UNL1        0.2430
      3 N          -6.0371  -18.7854   22.0782 N.am    1  UNL1       -0.2960
      4 H          -6.6346  -19.2063   22.7378 H       1  UNL1        0.1501
      5 C          -7.4576  -19.7917   20.1496 C.3     1  UNL1        0.1759
      6 N          -8.7740  -19.6944   20.8622 N.am    1  UNL1       -0.2931
      7 C          -9.2338  -18.3766   21.4117 C.2     1  UNL1        0.2462
      8 O          -8.3772  -17.1561   21.2488 O.2     1  UNL1       -0.2701
      9 H          -9.3362  -20.4955   20.9691 H       1  UNL1        0.1502
     10 C         -10.5502  -18.2794   22.1243 C.ar    1  UNL1        0.0535
     11 C         -10.6521  -18.6713   23.5685 C.ar    1  UNL1        0.0068
     12 C         -11.9684  -18.5740   24.2810 C.ar    1  UNL1        0.0298
     13 C         -13.1830  -18.0848   23.5492 C.ar    1  UNL1        0.1401
     14 F         -14.4994  -17.9875   24.2617 F       1  UNL1       -0.2042
     15 C         -13.0811  -17.6929   22.1049 C.ar    1  UNL1        0.0298
     16 C         -11.7648  -17.7901   21.3925 C.ar    1  UNL1        0.0068
     17 C          -4.8716  -17.9616   22.5400 C.3     1  UNL1        0.1366
     18 C          -3.5329  -18.1215   21.8827 C.ar    1  UNL1        0.0012
     19 C          -2.9891  -19.4931   21.6124 C.ar    1  UNL1       -0.0023
     20 C          -1.6503  -19.6531   20.9551 C.ar    1  UNL1       -0.0003
     21 C          -0.8552  -18.4414   20.5682 C.ar    1  UNL1       -0.0000
     22 C          -1.3990  -17.0698   20.8385 C.ar    1  UNL1       -0.0003
     23 C          -2.7378  -16.9098   21.4958 C.ar    1  UNL1       -0.0023
     24 C          -5.0451  -16.9779   23.6590 C.ar    1  UNL1        0.1026
     25 C          -4.3503  -17.2025   24.9694 C.ar    1  UNL1        0.0201
     26 C          -4.5237  -16.2188   26.0884 C.ar    1  UNL1        0.0238
     27 C          -5.3920  -15.0106   25.8972 C.ar    1  UNL1        0.1222
     28 N          -6.0867  -14.7861   24.5869 N.ar    1  UNL1       -0.1466
     29 N          -5.9133  -15.7698   23.4678 N.ar    1  UNL1       -0.1503
@<TRIPOS>BOND
     1     1     2    2
     2     2     5    1
     3     5     6    1
     4     6     7   am
     5     7     8    2
     6     7    10    1
     7    10    11   ar
     8    11    12   ar
     9    12    13   ar
    10    13    14    1
    11    13    15   ar
    12    15    16   ar
    13     2     3   am
    14     3    17    1
    15    17    18    1
    16    18    19   ar
    17    19    20   ar
    18    20    21   ar
    19    21    22   ar
    20    22    23   ar
    21    17    24    1
    22    24    25   ar
    23    25    26   ar
    24    26    27   ar
    25    27    28   ar
    26    28    29   ar
    27    16    10   ar
    28    23    18   ar
    29    29    24   ar
    30     6     9    1
    31     3     4    1
