@<TRIPOS>MOLECULE
*****
 21 24 0 0 0
SMALL
GASTEIGER

@<TRIPOS>ATOM
      1 C          -7.8315  -17.2911   23.0631 C.3     1  UNL1        0.0489
      2 C          -7.6704  -16.0665   23.9142 C.3     1  UNL1        0.0236
      3 C          -7.2055  -14.8726   24.6943 C.3     1  UNL1        0.0690
      4 N          -5.7183  -14.7637   24.5326 N.3     1  UNL1       -0.2974
      5 C          -5.2640  -15.8902   23.6524 C.3     1  UNL1        0.0690
      6 C          -6.4705  -16.6954   23.2703 C.3     1  UNL1        0.0236
      7 H          -5.2651  -14.8319   25.4438 H       1  UNL1        0.1232
      8 CL        -13.7676  -18.0662   23.4651 Cl      1  UNL1       -0.0814
      9 C         -12.2835  -17.8724   23.3646 C.ar    1  UNL1        0.0682
     10 C         -11.3756  -18.4905   24.3861 C.ar    1  UNL1        0.0119
     11 C          -9.8916  -18.2967   24.2856 C.ar    1  UNL1       -0.0033
     12 C          -9.3155  -17.4849   23.1636 C.ar    1  UNL1       -0.0195
     13 C         -10.2234  -16.8667   22.1421 C.ar    1  UNL1        0.0080
     14 C         -11.7075  -17.0605   22.2426 C.ar    1  UNL1        0.0679
     15 CL        -12.6154  -16.4424   21.2210 Cl      1  UNL1       -0.0814
     16 C          -7.4770  -18.4484   22.1770 C.3     1  UNL1        0.1460
     17 O          -6.7205  -18.2136   20.9033 O.3     1  UNL1       -0.3559
     18 C          -5.6651  -19.1864   20.4676 C.3     1  UNL1        0.1152
     19 C          -4.2927  -19.0671   19.8741 C.3     1  UNL1        0.0296
     20 C          -4.1726  -20.5621   19.8514 C.3     1  UNL1        0.0050
     21 C          -5.5450  -20.6814   20.4449 C.3     1  UNL1        0.0296
@<TRIPOS>BOND
     1     8     9    1
     2     9    10   ar
     3    10    11   ar
     4    11    12   ar
     5    12     1    1
     6     1    16    1
     7    16    17    1
     8    17    18    1
     9    18    19    1
    10    19    20    1
    11    20    21    1
    12     1     2    1
    13     2     3    1
    14     3     4    1
    15     4     5    1
    16     6     5    1
    17    12    13   ar
    18    13    14   ar
    19    14    15    1
    20    14     9   ar
    21     6     1    1
    22    21    18    1
    23     6     2    1
    24     4     7    1
@<TRIPOS>MOLECULE
*****
 21 24 0 0 0
SMALL
GASTEIGER

@<TRIPOS>ATOM
      1 C          -8.3989  -18.2875   22.8834 C.3     1  UNL1        0.0489
      2 C          -8.9126  -19.5385   23.5324 C.3     1  UNL1        0.0236
      3 C          -9.6363  -20.5964   24.3115 C.3     1  UNL1        0.0690
      4 N         -10.7484  -19.9344   25.0697 N.3     1  UNL1       -0.2974
      5 C         -10.7120  -18.4673   24.7592 C.3     1  UNL1        0.0690
      6 C          -9.5774  -18.2226   23.8091 C.3     1  UNL1        0.0236
      7 H         -10.6190  -20.0797   26.0710 H       1  UNL1        0.1232
      8 CL         -3.8498  -20.5587   19.6979 Cl      1  UNL1       -0.0814
      9 C          -4.9871  -19.9909   20.4943 C.ar    1  UNL1        0.0682
     10 C          -6.4017  -20.2252   20.0538 C.ar    1  UNL1        0.0119
     11 C          -7.5390  -19.6574   20.8502 C.ar    1  UNL1       -0.0033
     12 C          -7.2617  -18.8553   22.0870 C.ar    1  UNL1       -0.0195
     13 C          -5.8471  -18.6210   22.5274 C.ar    1  UNL1        0.0080
     14 C          -4.7098  -19.1888   21.7311 C.ar    1  UNL1        0.0679
     15 CL         -3.2952  -18.9545   22.1716 Cl      1  UNL1       -0.0814
     16 C          -8.2803  -16.8393   22.5110 C.3     1  UNL1        0.1460
     17 O          -9.0957  -16.2865   21.3799 O.3     1  UNL1       -0.3559
     18 C         -10.5482  -16.6413   21.2591 C.3     1  UNL1        0.1152
     19 C         -11.3288  -17.6700   20.4959 C.3     1  UNL1        0.0296
     20 C         -12.6022  -17.1430   21.0881 C.3     1  UNL1        0.0050
     21 C         -11.8216  -16.1143   21.8513 C.3     1  UNL1        0.0296
@<TRIPOS>BOND
     1     8     9    1
     2     9    10   ar
     3    10    11   ar
     4    11    12   ar
     5    12     1    1
     6     1    16    1
     7    16    17    1
     8    17    18    1
     9    18    19    1
    10    19    20    1
    11    20    21    1
    12     1     2    1
    13     2     3    1
    14     3     4    1
    15     4     5    1
    16     6     5    1
    17    12    13   ar
    18    13    14   ar
    19    14    15    1
    20    14     9   ar
    21     6     1    1
    22    21    18    1
    23     6     2    1
    24     4     7    1
@<TRIPOS>MOLECULE
*****
 21 24 0 0 0
SMALL
GASTEIGER

@<TRIPOS>ATOM
      1 C          -8.4122  -18.2707   22.8063 C.3     1  UNL1        0.0489
      2 C          -8.9433  -19.4904   23.4993 C.3     1  UNL1        0.0236
      3 C          -9.6875  -20.5113   24.3080 C.3     1  UNL1        0.0690
      4 N         -10.8175  -19.8151   25.0067 N.3     1  UNL1       -0.2974
      5 C         -10.7718  -18.3639   24.6298 C.3     1  UNL1        0.0690
      6 C          -9.6134  -18.1633   23.6981 C.3     1  UNL1        0.0236
      7 H         -10.7134  -19.9139   26.0166 H       1  UNL1        0.1232
      8 CL         -3.7871  -20.6862   19.8443 Cl      1  UNL1       -0.0814
      9 C          -4.9433  -20.0823   20.5848 C.ar    1  UNL1        0.0682
     10 C          -6.3473  -20.3483   20.1286 C.ar    1  UNL1        0.0119
     11 C          -7.5036  -19.7444   20.8691 C.ar    1  UNL1       -0.0033
     12 C          -7.2559  -18.8746   22.0658 C.ar    1  UNL1       -0.0195
     13 C          -5.8519  -18.6087   22.5220 C.ar    1  UNL1        0.0080
     14 C          -4.6957  -19.2126   21.7815 C.ar    1  UNL1        0.0679
     15 CL         -3.2916  -18.9466   22.2377 Cl      1  UNL1       -0.0814
     16 C          -8.2827  -16.8413   22.3705 C.3     1  UNL1        0.1460
     17 O          -8.2851  -15.7427   23.3918 O.3     1  UNL1       -0.3559
     18 C          -7.1163  -15.5763   24.3172 C.3     1  UNL1        0.1152
     19 C          -6.9378  -15.5502   25.8063 C.3     1  UNL1        0.0296
     20 C          -5.4636  -15.3410   25.6259 C.3     1  UNL1        0.0050
     21 C          -5.6420  -15.3671   24.1368 C.3     1  UNL1        0.0296
@<TRIPOS>BOND
     1     8     9    1
     2     9    10   ar
     3    10    11   ar
     4    11    12   ar
     5    12     1    1
     6     1    16    1
     7    16    17    1
     8    17    18    1
     9    18    19    1
    10    19    20    1
    11    20    21    1
    12     1     2    1
    13     2     3    1
    14     3     4    1
    15     4     5    1
    16     6     5    1
    17    12    13   ar
    18    13    14   ar
    19    14    15    1
    20    14     9   ar
    21     6     1    1
    22    21    18    1
    23     6     2    1
    24     4     7    1
@<TRIPOS>MOLECULE
*****
 21 24 0 0 0
SMALL
GASTEIGER

@<TRIPOS>ATOM
      1 C          -9.0589  -17.5492   22.1083 C.3     1  UNL1        0.0489
      2 C         -10.3208  -16.7453   22.0022 C.3     1  UNL1        0.0236
      3 C         -11.6311  -16.1124   21.6377 C.3     1  UNL1        0.0690
      4 N         -12.1259  -16.7627   20.3799 N.3     1  UNL1       -0.2974
      5 C         -11.1215  -17.7975   19.9669 C.3     1  UNL1        0.0690
      6 C         -10.0059  -17.7867   20.9696 C.3     1  UNL1        0.0236
      7 H         -12.2246  -16.0631   19.6443 H       1  UNL1        0.1232
      8 CL         -6.7447  -15.1990   27.1204 Cl      1  UNL1       -0.0814
      9 C          -7.3232  -15.7865   25.8674 C.ar    1  UNL1        0.0682
     10 C          -8.6895  -16.4050   25.8904 C.ar    1  UNL1        0.0119
     11 C          -9.2681  -16.9926   24.6374 C.ar    1  UNL1       -0.0033
     12 C          -8.4803  -16.9616   23.3613 C.ar    1  UNL1       -0.0195
     13 C          -7.1140  -16.3431   23.3383 C.ar    1  UNL1        0.0080
     14 C          -6.5355  -15.7555   24.5913 C.ar    1  UNL1        0.0679
     15 CL         -5.1691  -15.1370   24.5682 Cl      1  UNL1       -0.0814
     16 C          -7.9979  -18.5571   21.7792 C.3     1  UNL1        0.1460
     17 O          -7.1281  -18.3638   20.5726 O.3     1  UNL1       -0.3559
     18 C          -5.9626  -19.2774   20.3340 C.3     1  UNL1        0.1152
     19 C          -5.7494  -20.7612   20.3888 C.3     1  UNL1        0.0296
     20 C          -4.3144  -20.5695   19.9965 C.3     1  UNL1        0.0050
     21 C          -4.5276  -19.0857   19.9417 C.3     1  UNL1        0.0296
@<TRIPOS>BOND
     1     8     9    1
     2     9    10   ar
     3    10    11   ar
     4    11    12   ar
     5    12     1    1
     6     1    16    1
     7    16    17    1
     8    17    18    1
     9    18    19    1
    10    19    20    1
    11    20    21    1
    12     1     2    1
    13     2     3    1
    14     3     4    1
    15     4     5    1
    16     6     5    1
    17    12    13   ar
    18    13    14   ar
    19    14    15    1
    20    14     9   ar
    21     6     1    1
    22    21    18    1
    23     6     2    1
    24     4     7    1
@<TRIPOS>MOLECULE
*****
 21 24 0 0 0
SMALL
GASTEIGER

@<TRIPOS>ATOM
      1 C          -9.8271  -17.8064   23.1670 C.3     1  UNL1        0.0489
      2 C         -10.4149  -16.7212   22.3144 C.3     1  UNL1        0.0236
      3 C         -11.1950  -15.8631   21.3631 C.3     1  UNL1        0.0690
      4 N         -12.2378  -16.7225   20.7120 N.3     1  UNL1       -0.2974
      5 C         -12.1021  -18.1119   21.2610 C.3     1  UNL1        0.0690
      6 C         -10.9755  -18.1110   22.2514 C.3     1  UNL1        0.0236
      7 H         -12.0956  -16.7340   19.7020 H       1  UNL1        0.1232
      8 CL         -5.5320  -14.7063   25.9850 Cl      1  UNL1       -0.0814
      9 C          -6.6058  -15.4813   25.2805 C.ar    1  UNL1        0.0682
     10 C          -6.4017  -15.9271   23.8629 C.ar    1  UNL1        0.0119
     11 C          -7.4754  -16.7021   23.1584 C.ar    1  UNL1       -0.0033
     12 C          -8.7533  -17.0313   23.8715 C.ar    1  UNL1       -0.0195
     13 C          -8.9574  -16.5856   25.2891 C.ar    1  UNL1        0.0080
     14 C          -7.8837  -15.8106   25.9936 C.ar    1  UNL1        0.0679
     15 CL         -8.0878  -15.3648   27.4112 Cl      1  UNL1       -0.0814
     16 C          -9.6123  -19.1608   23.7748 C.3     1  UNL1        0.1460
     17 O          -8.9818  -20.2547   22.9651 O.3     1  UNL1       -0.3559
     18 C          -7.8859  -19.9320   21.9929 C.3     1  UNL1        0.1152
     19 C          -7.8335  -19.3864   20.5967 C.3     1  UNL1        0.0296
     20 C          -6.3363  -19.4756   20.6181 C.3     1  UNL1        0.0050
     21 C          -6.3888  -20.0212   22.0144 C.3     1  UNL1        0.0296
@<TRIPOS>BOND
     1     8     9    1
     2     9    10   ar
     3    10    11   ar
     4    11    12   ar
     5    12     1    1
     6     1    16    1
     7    16    17    1
     8    17    18    1
     9    18    19    1
    10    19    20    1
    11    20    21    1
    12     1     2    1
    13     2     3    1
    14     3     4    1
    15     4     5    1
    16     6     5    1
    17    12    13   ar
    18    13    14   ar
    19    14    15    1
    20    14     9   ar
    21     6     1    1
    22    21    18    1
    23     6     2    1
    24     4     7    1
@<TRIPOS>MOLECULE
*****
 21 24 0 0 0
SMALL
GASTEIGER

@<TRIPOS>ATOM
      1 C          -7.9501  -17.3972   22.1390 C.3     1  UNL1        0.0489
      2 C          -7.0734  -18.6081   22.2625 C.3     1  UNL1        0.0236
      3 C          -6.2805  -19.8694   22.0881 C.3     1  UNL1        0.0690
      4 N          -6.4983  -20.3641   20.6889 N.3     1  UNL1       -0.2974
      5 C          -7.4258  -19.4084   19.9985 C.3     1  UNL1        0.0690
      6 C          -7.7813  -18.3231   20.9711 C.3     1  UNL1        0.0236
      7 H          -6.9146  -21.2950   20.7117 H       1  UNL1        0.1232
      8 CL         -7.3334  -15.0982   27.6466 Cl      1  UNL1       -0.0814
      9 C          -7.4875  -15.6730   26.2697 C.ar    1  UNL1        0.0682
     10 C          -8.7698  -16.3447   25.8767 C.ar    1  UNL1        0.0119
     11 C          -8.9240  -16.9194   24.4998 C.ar    1  UNL1       -0.0033
     12 C          -7.7959  -16.8225   23.5159 C.ar    1  UNL1       -0.0195
     13 C          -6.5137  -16.1508   23.9090 C.ar    1  UNL1        0.0080
     14 C          -6.3595  -15.5760   25.2859 C.ar    1  UNL1        0.0679
     15 CL         -5.0771  -14.9043   25.6789 Cl      1  UNL1       -0.0814
     16 C          -8.8804  -16.3860   21.5373 C.3     1  UNL1        0.1460
     17 O         -10.1905  -16.8258   20.9541 O.3     1  UNL1       -0.3559
     18 C         -11.3350  -17.1746   21.8589 C.3     1  UNL1        0.1152
     19 C         -11.8322  -18.4349   22.5025 C.3     1  UNL1        0.0296
     20 C         -12.9534  -17.6678   23.1384 C.3     1  UNL1        0.0050
     21 C         -12.4562  -16.4075   22.4948 C.3     1  UNL1        0.0296
@<TRIPOS>BOND
     1     8     9    1
     2     9    10   ar
     3    10    11   ar
     4    11    12   ar
     5    12     1    1
     6     1    16    1
     7    16    17    1
     8    17    18    1
     9    18    19    1
    10    19    20    1
    11    20    21    1
    12     1     2    1
    13     2     3    1
    14     3     4    1
    15     4     5    1
    16     6     5    1
    17    12    13   ar
    18    13    14   ar
    19    14    15    1
    20    14     9   ar
    21     6     1    1
    22    21    18    1
    23     6     2    1
    24     4     7    1
@<TRIPOS>MOLECULE
*****
 21 24 0 0 0
SMALL
GASTEIGER

@<TRIPOS>ATOM
      1 C          -7.7872  -17.6182   23.0096 C.3     1  UNL1        0.0489
      2 C          -6.8876  -16.4678   23.3523 C.3     1  UNL1        0.0236
      3 C          -6.2378  -15.2117   23.8522 C.3     1  UNL1        0.0690
      4 N          -7.2448  -14.4650   24.6758 N.3     1  UNL1       -0.2974
      5 C          -8.5170  -15.2597   24.6849 C.3     1  UNL1        0.0690
      6 C          -8.2962  -16.4976   23.8669 C.3     1  UNL1        0.0236
      7 H          -7.4137  -13.5461   24.2667 H       1  UNL1        0.1232
      8 CL         -4.0507  -20.8984   19.6512 Cl      1  UNL1       -0.0814
      9 C          -4.9849  -20.0783   20.4908 C.ar    1  UNL1        0.0682
     10 C          -6.4290  -19.9558   20.1044 C.ar    1  UNL1        0.0119
     11 C          -7.3631  -19.1358   20.9440 C.ar    1  UNL1       -0.0033
     12 C          -6.8531  -18.4382   22.1700 C.ar    1  UNL1       -0.0195
     13 C          -5.4090  -18.5607   22.5565 C.ar    1  UNL1        0.0080
     14 C          -4.4748  -19.3808   21.7169 C.ar    1  UNL1        0.0679
     15 CL         -3.0306  -19.5032   22.1034 Cl      1  UNL1       -0.0814
     16 C          -9.0113  -18.4837   22.9585 C.3     1  UNL1        0.1460
     17 O         -10.2405  -18.0030   22.2458 O.3     1  UNL1       -0.3559
     18 C         -11.5676  -18.0200   22.9448 C.3     1  UNL1        0.1152
     19 C         -12.0652  -18.5327   24.2638 C.3     1  UNL1        0.0296
     20 C         -13.4443  -18.0442   23.9333 C.3     1  UNL1        0.0050
     21 C         -12.9468  -17.5316   22.6143 C.3     1  UNL1        0.0296
@<TRIPOS>BOND
     1     8     9    1
     2     9    10   ar
     3    10    11   ar
     4    11    12   ar
     5    12     1    1
     6     1    16    1
     7    16    17    1
     8    17    18    1
     9    18    19    1
    10    19    20    1
    11    20    21    1
    12     1     2    1
    13     2     3    1
    14     3     4    1
    15     4     5    1
    16     6     5    1
    17    12    13   ar
    18    13    14   ar
    19    14    15    1
    20    14     9   ar
    21     6     1    1
    22    21    18    1
    23     6     2    1
    24     4     7    1
@<TRIPOS>MOLECULE
*****
 21 24 0 0 0
SMALL
GASTEIGER

@<TRIPOS>ATOM
      1 C          -7.9511  -17.5706   22.8806 C.3     1  UNL1        0.0489
      2 C          -8.7286  -18.8468   23.0109 C.3     1  UNL1        0.0236
      3 C          -9.7460  -19.9316   23.2057 C.3     1  UNL1        0.0690
      4 N         -11.0563  -19.2833   23.5416 N.3     1  UNL1       -0.2974
      5 C         -10.8486  -17.7978   23.5544 C.3     1  UNL1        0.0690
      6 C          -9.4100  -17.5280   23.2264 C.3     1  UNL1        0.0236
      7 H         -11.3722  -19.5966   24.4595 H       1  UNL1        0.1232
      8 CL         -2.5430  -19.7805   21.5134 Cl      1  UNL1       -0.0814
      9 C          -3.8950  -19.2281   21.8552 C.ar    1  UNL1        0.0682
     10 C          -4.0268  -18.1621   22.9022 C.ar    1  UNL1        0.0119
     11 C          -5.3788  -17.6096   23.2440 C.ar    1  UNL1       -0.0033
     12 C          -6.5990  -18.1231   22.5388 C.ar    1  UNL1       -0.0195
     13 C          -6.4672  -19.1891   21.4918 C.ar    1  UNL1        0.0080
     14 C          -5.1152  -19.7416   21.1500 C.ar    1  UNL1        0.0679
     15 CL         -4.9834  -20.8076   20.1030 Cl      1  UNL1       -0.0814
     16 C          -7.6431  -16.1026   22.8690 C.3     1  UNL1        0.1460
     17 O          -8.0977  -15.2320   24.0027 O.3     1  UNL1       -0.3559
     18 C          -7.5758  -15.4718   25.3885 C.3     1  UNL1        0.1152
     19 C          -6.2305  -15.3815   26.0456 C.3     1  UNL1        0.0296
     20 C          -6.8379  -15.8109   27.3480 C.3     1  UNL1        0.0050
     21 C          -8.1832  -15.9013   26.6910 C.3     1  UNL1        0.0296
@<TRIPOS>BOND
     1     8     9    1
     2     9    10   ar
     3    10    11   ar
     4    11    12   ar
     5    12     1    1
     6     1    16    1
     7    16    17    1
     8    17    18    1
     9    18    19    1
    10    19    20    1
    11    20    21    1
    12     1     2    1
    13     2     3    1
    14     3     4    1
    15     4     5    1
    16     6     5    1
    17    12    13   ar
    18    13    14   ar
    19    14    15    1
    20    14     9   ar
    21     6     1    1
    22    21    18    1
    23     6     2    1
    24     4     7    1
@<TRIPOS>MOLECULE
*****
 21 24 0 0 0
SMALL
GASTEIGER

@<TRIPOS>ATOM
      1 C          -9.3243  -18.0562   22.6039 C.3     1  UNL1        0.0489
      2 C          -9.8997  -18.0008   21.2197 C.3     1  UNL1        0.0236
      3 C         -10.7376  -17.8592   19.9836 C.3     1  UNL1        0.0690
      4 N         -12.1141  -17.4355   20.4028 N.3     1  UNL1       -0.2974
      5 C         -12.1269  -17.3152   21.8980 C.3     1  UNL1        0.0690
      6 C         -10.7582  -17.6646   22.4028 C.3     1  UNL1        0.0236
      7 H         -12.7965  -18.1330   20.1058 H       1  UNL1        0.1232
      8 CL         -3.7107  -19.7501   21.3318 Cl      1  UNL1       -0.0814
      9 C          -5.1141  -19.3266   21.6498 C.ar    1  UNL1        0.0682
     10 C          -5.3576  -18.1120   22.4955 C.ar    1  UNL1        0.0119
     11 C          -6.7610  -17.6885   22.8135 C.ar    1  UNL1       -0.0033
     12 C          -7.9209  -18.4797   22.2858 C.ar    1  UNL1       -0.0195
     13 C          -7.6775  -19.6943   21.4401 C.ar    1  UNL1        0.0080
     14 C          -6.2741  -20.1178   21.1221 C.ar    1  UNL1        0.0679
     15 CL         -6.0306  -21.3325   20.2763 Cl      1  UNL1       -0.0814
     16 C          -9.2364  -17.9646   24.0985 C.3     1  UNL1        0.1460
     17 O          -9.4167  -16.6409   24.7806 O.3     1  UNL1       -0.3559
     18 C          -8.4068  -16.1714   25.7856 C.3     1  UNL1        0.1152
     19 C          -8.3142  -16.1862   27.2826 C.3     1  UNL1        0.0296
     20 C          -6.9788  -15.5074   27.2067 C.3     1  UNL1        0.0050
     21 C          -7.0714  -15.4926   25.7096 C.3     1  UNL1        0.0296
@<TRIPOS>BOND
     1     8     9    1
     2     9    10   ar
     3    10    11   ar
     4    11    12   ar
     5    12     1    1
     6     1    16    1
     7    16    17    1
     8    17    18    1
     9    18    19    1
    10    19    20    1
    11    20    21    1
    12     1     2    1
    13     2     3    1
    14     3     4    1
    15     4     5    1
    16     6     5    1
    17    12    13   ar
    18    13    14   ar
    19    14    15    1
    20    14     9   ar
    21     6     1    1
    22    21    18    1
    23     6     2    1
    24     4     7    1
