@<TRIPOS>MOLECULE
*****
 39 41 0 0 0
SMALL
GASTEIGER

@<TRIPOS>ATOM
      1 C           6.1582   -2.9930   32.6965 C.3     1  UNL1        0.0718
      2 C           7.0398   -1.7913   32.8665 C.3     1  UNL1        0.0201
      3 C           6.5129   -0.5657   33.5524 C.3     1  UNL1        0.0108
      4 C           5.1045   -0.5419   34.0682 C.3     1  UNL1        0.0766
      5 C           4.2231   -1.7435   33.8981 C.3     1  UNL1        0.0108
      6 C           4.7499   -2.9691   33.2122 C.3     1  UNL1        0.0201
      7 C           4.5777    0.6837   34.7540 C.2     1  UNL1        0.2222
      8 O           4.0037    1.8082   33.9441 O.2     1  UNL1       -0.2751
      9 N           4.6248    0.7848   36.2499 N.am    1  UNL1       -0.3004
     10 H           5.0015    0.0467   36.7816 H       1  UNL1        0.1497
     11 C           4.0979    2.0103   36.9358 C.3     1  UNL1        0.1163
     12 C           2.8794    1.9177   37.8056 C.ar    1  UNL1        0.0013
     13 C           2.5889    0.6526   38.5572 C.ar    1  UNL1       -0.0027
     14 C           1.3704    0.5599   39.4271 C.ar    1  UNL1       -0.0003
     15 C           0.4423    1.7324   39.5452 C.ar    1  UNL1       -0.0001
     16 C           0.7328    2.9976   38.7935 C.ar    1  UNL1        0.0036
     17 C           1.9513    3.0902   37.9237 C.ar    1  UNL1        0.0691
     18 C           2.2418    4.3553   37.1720 C.3     1  UNL1        0.4183
     19 F           2.5322    5.6205   36.4203 F       1  UNL1       -0.1659
     20 F           3.0270    4.8701   38.3418 F       1  UNL1       -0.1659
     21 F           1.4566    3.8406   36.0022 F       1  UNL1       -0.1659
     22 N           6.6851   -4.2186   32.0106 N.pl3   1  UNL1       -0.3045
     23 H           7.0582   -4.9583   32.5424 H       1  UNL1        0.1496
     24 C           6.9307   -5.7139   28.3427 C.ar    1  UNL1        0.2217
     25 N           6.9724   -5.6153   29.8388 N.ar    1  UNL1       -0.1810
     26 C           6.6434   -4.3171   30.5144 C.ar    1  UNL1        0.2216
     27 N           6.2726   -3.1175   29.6938 N.ar    1  UNL1       -0.1808
     28 C           6.2308   -3.2161   28.1976 C.ar    1  UNL1        0.2250
     29 N           6.5599   -4.5143   27.5221 N.ar    1  UNL1       -0.1808
     30 C           7.3251   -7.0832   26.1703 C.3     1  UNL1        0.1108
     31 N           7.2598   -7.0121   27.6671 N.pl3   1  UNL1       -0.3012
     32 H           7.4330   -7.8175   28.2062 H       1  UNL1        0.1497
     33 N           5.8600   -2.0165   27.3770 N.pl3   1  UNL1       -0.2749
     34 C           6.3913   -1.8687   25.9820 C.3     1  UNL1        0.1151
     35 C           4.9580   -0.9646   27.9513 C.3     1  UNL1        0.1110
     36 C           3.4699   -1.1490   27.9106 C.3     1  UNL1        0.0939
     37 N           2.6230   -0.6679   29.0513 N.3     1  UNL1       -0.2688
     38 C           1.2369   -0.1562   28.7927 C.3     1  UNL1        0.0897
     39 C           3.1622   -0.6985   30.4507 C.3     1  UNL1        0.0897
@<TRIPOS>BOND
     1    30    31    1
     2    31    24    1
     3    24    25   ar
     4    25    26   ar
     5    26    22    1
     6    22     1    1
     7     1     2    1
     8     2     3    1
     9     3     4    1
    10     4     7    1
    11     7     8    2
    12     7     9   am
    13     9    11    1
    14    11    12    1
    15    12    13   ar
    16    13    14   ar
    17    14    15   ar
    18    15    16   ar
    19    16    17   ar
    20    17    18    1
    21    18    19    1
    22    18    20    1
    23    18    21    1
    24     4     5    1
    25     5     6    1
    26    26    27   ar
    27    27    28   ar
    28    28    33    1
    29    33    34    1
    30    33    35    1
    31    35    36    1
    32    36    37    1
    33    37    38    1
    34    37    39    1
    35    28    29   ar
    36    29    24   ar
    37     6     1    1
    38    17    12   ar
    39    31    32    1
    40    22    23    1
    41     9    10    1
@<TRIPOS>MOLECULE
*****
 39 41 0 0 0
SMALL
GASTEIGER

@<TRIPOS>ATOM
      1 C           7.2256   -1.8259   27.7937 C.3     1  UNL1        0.0718
      2 C           8.0368   -2.8826   27.1042 C.3     1  UNL1        0.0201
      3 C           7.6339   -3.3688   25.7436 C.3     1  UNL1        0.0108
      4 C           6.4196   -2.7983   25.0725 C.3     1  UNL1        0.0766
      5 C           5.6084   -1.7417   25.7621 C.3     1  UNL1        0.0108
      6 C           6.0114   -1.2555   27.1227 C.3     1  UNL1        0.0201
      7 C           6.0166   -3.2845   23.7119 C.2     1  UNL1        0.2222
      8 O           6.9847   -4.0721   22.8798 O.2     1  UNL1       -0.2751
      9 N           4.6455   -2.9830   23.1835 N.am    1  UNL1       -0.3004
     10 H           4.0101   -2.4661   23.7296 H       1  UNL1        0.1497
     11 C           4.2425   -3.4692   21.8229 C.3     1  UNL1        0.1163
     12 C           3.9602   -2.4841   20.7276 C.ar    1  UNL1        0.0013
     13 C           3.5877   -1.0714   21.0672 C.ar    1  UNL1       -0.0027
     14 C           3.3054   -0.0861   19.9719 C.ar    1  UNL1       -0.0003
     15 C           3.3957   -0.5136   18.5370 C.ar    1  UNL1       -0.0001
     16 C           3.7683   -1.9264   18.1974 C.ar    1  UNL1        0.0036
     17 C           4.0505   -2.9116   19.2926 C.ar    1  UNL1        0.0691
     18 C           4.4231   -4.3243   18.9530 C.3     1  UNL1        0.4183
     19 F           4.7956   -5.7371   18.6133 F       1  UNL1       -0.1659
     20 F           5.8732   -3.9409   18.9488 F       1  UNL1       -0.1659
     21 F           2.9730   -4.7077   18.9572 F       1  UNL1       -0.1659
     22 N           7.6286   -1.3397   29.1543 N.pl3   1  UNL1       -0.3045
     23 H           8.3729   -0.7023   29.2488 H       1  UNL1        0.1496
     24 C           6.3303   -3.7289   32.0451 C.ar    1  UNL1        0.2217
     25 N           7.0614   -3.2438   30.8284 N.ar    1  UNL1       -0.1810
     26 C           6.8974   -1.8247   30.3710 C.ar    1  UNL1        0.2216
     27 N           6.0025   -0.8907   31.1302 N.ar    1  UNL1       -0.1808
     28 C           5.2714   -1.3757   32.3469 C.ar    1  UNL1        0.2250
     29 N           5.4353   -2.7948   32.8043 N.ar    1  UNL1       -0.1808
     30 C           7.2602   -6.1240   31.6594 C.3     1  UNL1        0.1108
     31 N           6.4943   -5.1480   32.5025 N.pl3   1  UNL1       -0.3012
     32 H           6.0992   -5.4388   33.3561 H       1  UNL1        0.1497
     33 N           4.3763   -0.4416   33.1062 N.pl3   1  UNL1       -0.2749
     34 C           4.6157   -0.1947   34.5662 C.3     1  UNL1        0.1151
     35 C           3.2420    0.2455   32.4053 C.3     1  UNL1        0.1110
     36 C           2.7551   -0.2694   31.0833 C.3     1  UNL1        0.0939
     37 N           1.6325    0.4282   30.3741 N.3     1  UNL1       -0.2688
     38 C           1.1135    1.7356   30.8954 C.3     1  UNL1        0.0897
     39 C           1.0289   -0.1813   29.1437 C.3     1  UNL1        0.0897
@<TRIPOS>BOND
     1    30    31    1
     2    31    24    1
     3    24    25   ar
     4    25    26   ar
     5    26    22    1
     6    22     1    1
     7     1     2    1
     8     2     3    1
     9     3     4    1
    10     4     7    1
    11     7     8    2
    12     7     9   am
    13     9    11    1
    14    11    12    1
    15    12    13   ar
    16    13    14   ar
    17    14    15   ar
    18    15    16   ar
    19    16    17   ar
    20    17    18    1
    21    18    19    1
    22    18    20    1
    23    18    21    1
    24     4     5    1
    25     5     6    1
    26    26    27   ar
    27    27    28   ar
    28    28    33    1
    29    33    34    1
    30    33    35    1
    31    35    36    1
    32    36    37    1
    33    37    38    1
    34    37    39    1
    35    28    29   ar
    36    29    24   ar
    37     6     1    1
    38    17    12   ar
    39    31    32    1
    40    22    23    1
    41     9    10    1
@<TRIPOS>MOLECULE
*****
 39 41 0 0 0
SMALL
GASTEIGER

@<TRIPOS>ATOM
      1 C           7.0282   -4.5543   28.8236 C.3     1  UNL1        0.0718
      2 C           7.1109   -3.1884   28.2090 C.3     1  UNL1        0.0201
      3 C           7.0105   -3.0281   26.7210 C.3     1  UNL1        0.0108
      4 C           6.8274   -4.2338   25.8475 C.3     1  UNL1        0.0766
      5 C           6.7448   -5.5996   26.4620 C.3     1  UNL1        0.0108
      6 C           6.8451   -5.7598   27.9500 C.3     1  UNL1        0.0201
      7 C           6.7271   -4.0735   24.3595 C.2     1  UNL1        0.2222
      8 O           7.9606   -4.1625   23.5106 O.2     1  UNL1       -0.2751
      9 N           5.3931   -3.8243   23.7202 N.am    1  UNL1       -0.3004
     10 H           4.5835   -3.7659   24.2774 H       1  UNL1        0.1497
     11 C           5.2927   -3.6640   22.2322 C.3     1  UNL1        0.1163
     12 C           4.2940   -2.7106   21.6462 C.ar    1  UNL1        0.0013
     13 C           3.7364   -1.5992   22.4852 C.ar    1  UNL1       -0.0027
     14 C           2.7376   -0.6457   21.8993 C.ar    1  UNL1       -0.0003
     15 C           2.2965   -0.8036   20.4743 C.ar    1  UNL1       -0.0001
     16 C           2.8542   -1.9150   19.6353 C.ar    1  UNL1        0.0036
     17 C           3.8529   -2.8684   20.2213 C.ar    1  UNL1        0.0691
     18 C           4.4105   -3.9798   19.3823 C.3     1  UNL1        0.4183
     19 F           4.9682   -5.0912   18.5433 F       1  UNL1       -0.1659
     20 F           5.5410   -3.0908   18.9560 F       1  UNL1       -0.1659
     21 F           3.2801   -4.8688   19.8086 F       1  UNL1       -0.1659
     22 N           7.1286   -4.7145   30.3116 N.pl3   1  UNL1       -0.3045
     23 H           7.2401   -5.6106   30.7038 H       1  UNL1        0.1496
     24 C           8.2287   -1.8017   32.7723 C.ar    1  UNL1        0.2217
     25 N           8.2981   -3.0067   31.8819 N.ar    1  UNL1       -0.1810
     26 C           7.0591   -3.5094   31.2021 C.ar    1  UNL1        0.2216
     27 N           5.7506   -2.8070   31.4128 N.ar    1  UNL1       -0.1808
     28 C           5.6811   -1.6020   32.3033 C.ar    1  UNL1        0.2250
     29 N           6.9202   -1.0993   32.9830 N.ar    1  UNL1       -0.1808
     30 C           9.4507   -1.0090   34.9236 C.3     1  UNL1        0.1108
     31 N           9.4677   -1.2990   33.4521 N.pl3   1  UNL1       -0.3012
     32 H          10.2921   -1.1594   32.9324 H       1  UNL1        0.1497
     33 N           4.3726   -0.8995   32.5140 N.pl3   1  UNL1       -0.2749
     34 C           4.1097   -0.1734   33.7999 C.3     1  UNL1        0.1151
     35 C           3.3270   -0.9232   31.4388 C.3     1  UNL1        0.1110
     36 C           3.5116   -0.1055   30.1949 C.3     1  UNL1        0.0939
     37 N           2.8208   -0.5054   28.9250 N.3     1  UNL1       -0.2688
     38 C           1.3572   -0.2284   28.7480 C.3     1  UNL1        0.0897
     39 C           3.5935   -1.1824   27.8320 C.3     1  UNL1        0.0897
@<TRIPOS>BOND
     1    30    31    1
     2    31    24    1
     3    24    25   ar
     4    25    26   ar
     5    26    22    1
     6    22     1    1
     7     1     2    1
     8     2     3    1
     9     3     4    1
    10     4     7    1
    11     7     8    2
    12     7     9   am
    13     9    11    1
    14    11    12    1
    15    12    13   ar
    16    13    14   ar
    17    14    15   ar
    18    15    16   ar
    19    16    17   ar
    20    17    18    1
    21    18    19    1
    22    18    20    1
    23    18    21    1
    24     4     5    1
    25     5     6    1
    26    26    27   ar
    27    27    28   ar
    28    28    33    1
    29    33    34    1
    30    33    35    1
    31    35    36    1
    32    36    37    1
    33    37    38    1
    34    37    39    1
    35    28    29   ar
    36    29    24   ar
    37     6     1    1
    38    17    12   ar
    39    31    32    1
    40    22    23    1
    41     9    10    1
@<TRIPOS>MOLECULE
*****
 39 41 0 0 0
SMALL
GASTEIGER

@<TRIPOS>ATOM
      1 C           0.8841    3.6681   19.2867 C.3     1  UNL1        0.0718
      2 C           0.4733    2.2775   18.9024 C.3     1  UNL1        0.0201
      3 C           1.5082    1.2839   18.4645 C.3     1  UNL1        0.0108
      4 C           2.9538    1.6808   18.4108 C.3     1  UNL1        0.0766
      5 C           3.3644    3.0714   18.7951 C.3     1  UNL1        0.0108
      6 C           2.3296    4.0650   19.2330 C.3     1  UNL1        0.0201
      7 C           3.9886    0.6872   17.9729 C.2     1  UNL1        0.2222
      8 O           5.3160    1.1629   17.4614 O.2     1  UNL1       -0.2751
      9 N           3.6960   -0.7822   18.0465 N.am    1  UNL1       -0.3004
     10 H           2.8248   -1.0944   18.3822 H       1  UNL1        0.1497
     11 C           4.7309   -1.7758   17.6086 C.3     1  UNL1        0.1163
     12 C           5.7245   -2.3091   18.5976 C.ar    1  UNL1        0.0013
     13 C           7.0570   -1.6391   18.7576 C.ar    1  UNL1       -0.0027
     14 C           8.0507   -2.1724   19.7467 C.ar    1  UNL1       -0.0003
     15 C           7.7118   -3.3756   20.5758 C.ar    1  UNL1       -0.0001
     16 C           6.3793   -4.0456   20.4158 C.ar    1  UNL1        0.0036
     17 C           5.3857   -3.5123   19.4267 C.ar    1  UNL1        0.0691
     18 C           4.0532   -4.1823   19.2668 C.3     1  UNL1        0.4183
     19 F           2.7206   -4.8523   19.1069 F       1  UNL1       -0.1659
     20 F           4.6427   -5.1112   18.2472 F       1  UNL1       -0.1659
     21 F           3.4637   -3.2534   20.2864 F       1  UNL1       -0.1659
     22 N          -0.1508    4.6617   19.7246 N.pl3   1  UNL1       -0.3045
     23 H          -0.0270    5.6191   19.5312 H       1  UNL1        0.1496
     24 C          -3.8406    3.3804   20.4270 C.ar    1  UNL1        0.2217
     25 N          -2.6171    3.8454   19.6944 N.ar    1  UNL1       -0.1810
     26 C          -1.3743    4.1967   20.4573 C.ar    1  UNL1        0.2216
     27 N          -1.3551    4.0831   21.9528 N.ar    1  UNL1       -0.1808
     28 C          -2.5786    3.6181   22.6854 C.ar    1  UNL1        0.2250
     29 N          -3.8214    3.2667   21.9225 N.ar    1  UNL1       -0.1808
     30 C          -5.3150    3.6083   18.3000 C.3     1  UNL1        0.1108
     31 N          -5.0834    3.0290   19.6640 N.pl3   1  UNL1       -0.3012
     32 H          -5.7471    2.4182   20.0586 H       1  UNL1        0.1497
     33 N          -2.5594    3.5044   24.1810 N.pl3   1  UNL1       -0.2749
     34 C          -3.7980    3.8046   24.9720 C.3     1  UNL1        0.1151
     35 C          -1.3015    3.0904   24.8856 C.3     1  UNL1        0.1110
     36 C          -1.3571    2.6339   26.3133 C.3     1  UNL1        0.0939
     37 N          -0.3971    1.5916   26.8054 N.3     1  UNL1       -0.2688
     38 C          -0.6891    0.8407   28.0707 C.3     1  UNL1        0.0897
     39 C           0.8547    1.3002   26.0322 C.3     1  UNL1        0.0897
@<TRIPOS>BOND
     1    30    31    1
     2    31    24    1
     3    24    25   ar
     4    25    26   ar
     5    26    22    1
     6    22     1    1
     7     1     2    1
     8     2     3    1
     9     3     4    1
    10     4     7    1
    11     7     8    2
    12     7     9   am
    13     9    11    1
    14    11    12    1
    15    12    13   ar
    16    13    14   ar
    17    14    15   ar
    18    15    16   ar
    19    16    17   ar
    20    17    18    1
    21    18    19    1
    22    18    20    1
    23    18    21    1
    24     4     5    1
    25     5     6    1
    26    26    27   ar
    27    27    28   ar
    28    28    33    1
    29    33    34    1
    30    33    35    1
    31    35    36    1
    32    36    37    1
    33    37    38    1
    34    37    39    1
    35    28    29   ar
    36    29    24   ar
    37     6     1    1
    38    17    12   ar
    39    31    32    1
    40    22    23    1
    41     9    10    1
@<TRIPOS>MOLECULE
*****
 39 41 0 0 0
SMALL
GASTEIGER

@<TRIPOS>ATOM
      1 C           7.2215   -1.8316   27.4683 C.3     1  UNL1        0.0718
      2 C           7.9757   -2.8988   26.7317 C.3     1  UNL1        0.0201
      3 C           7.5090   -3.3492   25.3791 C.3     1  UNL1        0.0108
      4 C           6.2882   -2.7324   24.7632 C.3     1  UNL1        0.0766
      5 C           5.5341   -1.6653   25.4997 C.3     1  UNL1        0.0108
      6 C           6.0008   -1.2149   26.8523 C.3     1  UNL1        0.0201
      7 C           5.8216   -3.1828   23.4106 C.2     1  UNL1        0.2222
      8 O           4.3545   -3.3239   23.1320 O.2     1  UNL1       -0.2751
      9 N           6.8221   -3.4921   22.3366 N.am    1  UNL1       -0.3004
     10 H           7.7851   -3.3995   22.5195 H       1  UNL1        0.1497
     11 C           6.3555   -3.9425   20.9841 C.3     1  UNL1        0.1163
     12 C           6.2722   -2.9599   19.8539 C.ar    1  UNL1        0.0013
     13 C           7.3794   -1.9717   19.6361 C.ar    1  UNL1       -0.0027
     14 C           7.2961   -0.9890   18.5058 C.ar    1  UNL1       -0.0003
     15 C           6.1056   -0.9945   17.5934 C.ar    1  UNL1       -0.0001
     16 C           4.9983   -1.9828   17.8112 C.ar    1  UNL1        0.0036
     17 C           5.0817   -2.9654   18.9414 C.ar    1  UNL1        0.0691
     18 C           3.9744   -3.9536   19.1592 C.3     1  UNL1        0.4183
     19 F           2.8671   -4.9418   19.3770 F       1  UNL1       -0.1659
     20 F           4.6953   -4.9505   18.3009 F       1  UNL1       -0.1659
     21 F           3.2536   -2.9568   20.0174 F       1  UNL1       -0.1659
     22 N           7.6881   -1.3812   28.8208 N.pl3   1  UNL1       -0.3045
     23 H           8.4904   -0.8164   28.9019 H       1  UNL1        0.1496
     24 C           6.3267   -3.5915   31.8227 C.ar    1  UNL1        0.2217
     25 N           7.0824   -3.1813   30.5936 N.ar    1  UNL1       -0.1810
     26 C           6.9324   -1.7914   30.0499 C.ar    1  UNL1        0.2216
     27 N           6.0266   -0.8117   30.7352 N.ar    1  UNL1       -0.1808
     28 C           5.2708   -1.2220   31.9642 C.ar    1  UNL1        0.2250
     29 N           5.4209   -2.6119   32.5080 N.ar    1  UNL1       -0.1808
     30 C           7.2262   -6.0170   31.5816 C.3     1  UNL1        0.1108
     31 N           6.4768   -4.9815   32.3664 N.pl3   1  UNL1       -0.3012
     32 H           6.0834   -5.2140   33.2384 H       1  UNL1        0.1497
     33 N           4.3650   -0.2422   32.6496 N.pl3   1  UNL1       -0.2749
     34 C           3.0646    0.1493   32.0127 C.3     1  UNL1        0.1151
     35 C           4.7595    0.3458   33.9719 C.3     1  UNL1        0.1110
     36 C           4.6547   -0.4786   35.2206 C.3     1  UNL1        0.0939
     37 N           5.2430    0.0268   36.5046 N.3     1  UNL1       -0.2688
     38 C           6.6977   -0.1899   36.7995 C.3     1  UNL1        0.0897
     39 C           4.3767    0.7488   37.4935 C.3     1  UNL1        0.0897
@<TRIPOS>BOND
     1    30    31    1
     2    31    24    1
     3    24    25   ar
     4    25    26   ar
     5    26    22    1
     6    22     1    1
     7     1     2    1
     8     2     3    1
     9     3     4    1
    10     4     7    1
    11     7     8    2
    12     7     9   am
    13     9    11    1
    14    11    12    1
    15    12    13   ar
    16    13    14   ar
    17    14    15   ar
    18    15    16   ar
    19    16    17   ar
    20    17    18    1
    21    18    19    1
    22    18    20    1
    23    18    21    1
    24     4     5    1
    25     5     6    1
    26    26    27   ar
    27    27    28   ar
    28    28    33    1
    29    33    34    1
    30    33    35    1
    31    35    36    1
    32    36    37    1
    33    37    38    1
    34    37    39    1
    35    28    29   ar
    36    29    24   ar
    37     6     1    1
    38    17    12   ar
    39    31    32    1
    40    22    23    1
    41     9    10    1
@<TRIPOS>MOLECULE
*****
 39 41 0 0 0
SMALL
GASTEIGER

@<TRIPOS>ATOM
      1 C           4.6873    0.1599   27.9238 C.3     1  UNL1        0.0718
      2 C           4.3537   -1.2630   27.5857 C.3     1  UNL1        0.0201
      3 C           4.5413   -1.7646   26.1845 C.3     1  UNL1        0.0108
      4 C           5.0625   -0.8434   25.1215 C.3     1  UNL1        0.0766
      5 C           5.3960    0.5794   25.4598 C.3     1  UNL1        0.0108
      6 C           5.2084    1.0810   26.8609 C.3     1  UNL1        0.0201
      7 C           5.2500   -1.3450   23.7204 C.2     1  UNL1        0.2222
      8 O           6.5520   -1.1187   23.0108 O.2     1  UNL1       -0.2751
      9 N           4.1355   -2.0729   23.0289 N.am    1  UNL1       -0.3004
     10 H           3.2810   -2.2214   23.4947 H       1  UNL1        0.1497
     11 C           4.3231   -2.5745   21.6278 C.3     1  UNL1        0.1163
     12 C           4.0148   -1.6805   20.4635 C.ar    1  UNL1        0.0013
     13 C           3.6440   -0.2459   20.6971 C.ar    1  UNL1       -0.0027
     14 C           3.3357    0.6482   19.5328 C.ar    1  UNL1       -0.0003
     15 C           3.3982    0.1078   18.1349 C.ar    1  UNL1       -0.0001
     16 C           3.7690   -1.3269   17.9014 C.ar    1  UNL1        0.0036
     17 C           4.0773   -2.2209   19.0656 C.ar    1  UNL1        0.0691
     18 C           4.4481   -3.6554   18.8320 C.3     1  UNL1        0.4183
     19 F           4.8190   -5.0900   18.5984 F       1  UNL1       -0.1659
     20 F           3.0057   -4.0482   18.9543 F       1  UNL1       -0.1659
     21 F           5.8906   -3.2627   18.7098 F       1  UNL1       -0.1659
     22 N           4.4998    0.6615   29.3250 N.pl3   1  UNL1       -0.3045
     23 H           5.2828    0.8176   29.9009 H       1  UNL1        0.1496
     24 C           1.5501    1.6779   31.7778 C.ar    1  UNL1        0.2217
     25 N           2.9307    1.4142   31.2541 N.ar    1  UNL1       -0.1810
     26 C           3.1191    0.9252   29.8486 C.ar    1  UNL1        0.2216
     27 N           1.9268    0.6999   28.9668 N.ar    1  UNL1       -0.1808
     28 C           0.5461    0.9637   29.4905 C.ar    1  UNL1        0.2250
     29 N           0.3578    1.4527   30.8960 N.ar    1  UNL1       -0.1808
     30 C           2.5132    2.1483   34.1445 C.3     1  UNL1        0.1108
     31 N           1.3618    2.1670   33.1833 N.pl3   1  UNL1       -0.3012
     32 H           0.4825    2.5001   33.4749 H       1  UNL1        0.1497
     33 N          -0.6463    0.7384   28.6087 N.pl3   1  UNL1       -0.2749
     34 C          -1.4316   -0.5347   28.7201 C.3     1  UNL1        0.1151
     35 C          -1.0532    1.7862   27.6155 C.3     1  UNL1        0.1110
     36 C          -0.5361    1.7273   26.2087 C.3     1  UNL1        0.0939
     37 N           0.9132    1.9960   25.9305 N.3     1  UNL1       -0.2688
     38 C           1.7405    0.9738   25.2090 C.3     1  UNL1        0.0897
     39 C           1.5351    3.2870   26.3738 C.3     1  UNL1        0.0897
@<TRIPOS>BOND
     1    30    31    1
     2    31    24    1
     3    24    25   ar
     4    25    26   ar
     5    26    22    1
     6    22     1    1
     7     1     2    1
     8     2     3    1
     9     3     4    1
    10     4     7    1
    11     7     8    2
    12     7     9   am
    13     9    11    1
    14    11    12    1
    15    12    13   ar
    16    13    14   ar
    17    14    15   ar
    18    15    16   ar
    19    16    17   ar
    20    17    18    1
    21    18    19    1
    22    18    20    1
    23    18    21    1
    24     4     5    1
    25     5     6    1
    26    26    27   ar
    27    27    28   ar
    28    28    33    1
    29    33    34    1
    30    33    35    1
    31    35    36    1
    32    36    37    1
    33    37    38    1
    34    37    39    1
    35    28    29   ar
    36    29    24   ar
    37     6     1    1
    38    17    12   ar
    39    31    32    1
    40    22    23    1
    41     9    10    1
@<TRIPOS>MOLECULE
*****
 39 41 0 0 0
SMALL
GASTEIGER

@<TRIPOS>ATOM
      1 C           1.0035    0.4222   28.5473 C.3     1  UNL1        0.0718
      2 C          -0.4911    0.5473   28.5193 C.3     1  UNL1        0.0201
      3 C          -1.1404    1.5901   27.6585 C.3     1  UNL1        0.0108
      4 C          -0.2952    2.5078   26.8256 C.3     1  UNL1        0.0766
      5 C           1.1993    2.3826   26.8536 C.3     1  UNL1        0.0108
      6 C           1.8486    1.3398   27.7145 C.3     1  UNL1        0.0201
      7 C          -0.9445    3.5505   25.9648 C.2     1  UNL1        0.2222
      8 O          -0.6331    5.0018   26.1810 O.2     1  UNL1       -0.2751
      9 N          -1.9053    3.1420   24.8877 N.am    1  UNL1       -0.3004
     10 H          -2.1096    2.1894   24.7458 H       1  UNL1        0.1497
     11 C          -2.5546    4.1848   24.0269 C.3     1  UNL1        0.1163
     12 C          -4.0496    4.2460   23.9219 C.ar    1  UNL1        0.0013
     13 C          -4.7302    3.8249   22.6533 C.ar    1  UNL1       -0.0027
     14 C          -6.2253    3.8862   22.5483 C.ar    1  UNL1       -0.0003
     15 C          -7.0397    4.3686   23.7119 C.ar    1  UNL1       -0.0001
     16 C          -6.3590    4.7898   24.9806 C.ar    1  UNL1        0.0036
     17 C          -4.8640    4.7285   25.0855 C.ar    1  UNL1        0.0691
     18 C          -4.1834    5.1496   26.3541 C.3     1  UNL1        0.4183
     19 F          -3.5027    5.5709   27.6227 F       1  UNL1       -0.1659
     20 F          -4.3311    3.7585   26.8952 F       1  UNL1       -0.1659
     21 F          -4.0356    6.5408   25.8130 F       1  UNL1       -0.1659
     22 N           1.6528   -0.6206   29.4081 N.pl3   1  UNL1       -0.3045
     23 H           1.6370   -1.5657   29.1329 H       1  UNL1        0.1496
     24 C           2.4972    1.3553   32.7447 C.ar    1  UNL1        0.2217
     25 N           1.8240    0.9580   31.4646 N.ar    1  UNL1       -0.1810
     26 C           2.3261   -0.2233   30.6883 C.ar    1  UNL1        0.2216
     27 N           3.5013   -1.0073   31.1923 N.ar    1  UNL1       -0.1808
     28 C           4.1745   -0.6101   32.4725 C.ar    1  UNL1        0.2250
     29 N           3.6725    0.5712   33.2487 N.ar    1  UNL1       -0.1808
     30 C           2.4012    2.7203   34.9532 C.3     1  UNL1        0.1108
     31 N           1.9952    2.5365   33.5210 N.pl3   1  UNL1       -0.3012
     32 H           1.3992    3.1912   33.0904 H       1  UNL1        0.1497
     33 N           5.3499   -1.3941   32.9765 N.pl3   1  UNL1       -0.2749
     34 C           6.3936   -0.7227   33.8190 C.3     1  UNL1        0.1151
     35 C           5.4814   -2.8495   32.6380 C.3     1  UNL1        0.1110
     36 C           6.8149   -3.4095   32.2407 C.3     1  UNL1        0.0939
     37 N           6.9125   -4.3741   31.0961 N.3     1  UNL1       -0.2688
     38 C           6.7865   -3.8795   29.6856 C.3     1  UNL1        0.0897
     39 C           7.1360   -5.8333   31.3620 C.3     1  UNL1        0.0897
@<TRIPOS>BOND
     1    30    31    1
     2    31    24    1
     3    24    25   ar
     4    25    26   ar
     5    26    22    1
     6    22     1    1
     7     1     2    1
     8     2     3    1
     9     3     4    1
    10     4     7    1
    11     7     8    2
    12     7     9   am
    13     9    11    1
    14    11    12    1
    15    12    13   ar
    16    13    14   ar
    17    14    15   ar
    18    15    16   ar
    19    16    17   ar
    20    17    18    1
    21    18    19    1
    22    18    20    1
    23    18    21    1
    24     4     5    1
    25     5     6    1
    26    26    27   ar
    27    27    28   ar
    28    28    33    1
    29    33    34    1
    30    33    35    1
    31    35    36    1
    32    36    37    1
    33    37    38    1
    34    37    39    1
    35    28    29   ar
    36    29    24   ar
    37     6     1    1
    38    17    12   ar
    39    31    32    1
    40    22    23    1
    41     9    10    1
@<TRIPOS>MOLECULE
*****
 39 41 0 0 0
SMALL
GASTEIGER

@<TRIPOS>ATOM
      1 C           6.7261   -2.9751   29.5546 C.3     1  UNL1        0.0718
      2 C           6.6668   -4.3927   29.0677 C.3     1  UNL1        0.0201
      3 C           6.5358   -4.6769   27.6007 C.3     1  UNL1        0.0108
      4 C           6.4641   -3.5436   26.6207 C.3     1  UNL1        0.0766
      5 C           6.5234   -2.1261   27.1076 C.3     1  UNL1        0.0108
      6 C           6.6544   -1.8418   28.5746 C.3     1  UNL1        0.0201
      7 C           6.3331   -3.8278   25.1537 C.2     1  UNL1        0.2222
      8 O           7.2046   -4.8651   24.5099 O.2     1  UNL1       -0.2751
      9 N           5.3304   -3.0747   24.3304 N.am    1  UNL1       -0.3004
     10 H           4.7584   -2.3940   24.7529 H       1  UNL1        0.1497
     11 C           5.1994   -3.3590   22.8634 C.3     1  UNL1        0.1163
     12 C           4.2503   -2.5547   22.0255 C.ar    1  UNL1        0.0013
     13 C           3.5211   -1.3900   22.6268 C.ar    1  UNL1       -0.0027
     14 C           2.5719   -0.5857   21.7889 C.ar    1  UNL1       -0.0003
     15 C           2.3519   -0.9462   20.3496 C.ar    1  UNL1       -0.0001
     16 C           3.0811   -2.1110   19.7482 C.ar    1  UNL1        0.0036
     17 C           4.0302   -2.9152   20.5862 C.ar    1  UNL1        0.0691
     18 C           4.7594   -4.0800   19.9848 C.3     1  UNL1        0.4183
     19 F           5.4886   -5.2448   19.3834 F       1  UNL1       -0.1659
     20 F           3.6372   -4.9903   20.3873 F       1  UNL1       -0.1659
     21 F           5.8816   -3.1697   19.5823 F       1  UNL1       -0.1659
     22 N           6.8571   -2.6908   31.0216 N.pl3   1  UNL1       -0.3045
     23 H           7.6569   -2.9900   31.5115 H       1  UNL1        0.1496
     24 C           4.6889   -1.1387   33.9611 C.ar    1  UNL1        0.2217
     25 N           5.7766   -1.8788   33.2405 N.ar    1  UNL1       -0.1810
     26 C           5.7694   -1.9507   31.7422 C.ar    1  UNL1        0.2216
     27 N           4.6745   -1.2825   30.9645 N.ar    1  UNL1       -0.1808
     28 C           3.5869   -0.5424   31.6851 C.ar    1  UNL1        0.2250
     29 N           3.5941   -0.4705   33.1834 N.ar    1  UNL1       -0.1808
     30 C           5.7643   -0.2877   36.1677 C.3     1  UNL1        0.1108
     31 N           4.6961   -1.0669   35.4593 N.pl3   1  UNL1       -0.3012
     32 H           3.9998   -1.5311   35.9778 H       1  UNL1        0.1497
     33 N           2.4920    0.1259   30.9075 N.pl3   1  UNL1       -0.2749
     34 C           1.8445    1.3693   31.4410 C.3     1  UNL1        0.1151
     35 C           2.0447   -0.4493   29.5963 C.3     1  UNL1        0.1110
     36 C           0.8102    0.0789   28.9278 C.3     1  UNL1        0.0939
     37 N           0.9305    0.9740   27.7301 N.3     1  UNL1       -0.2688
     38 C           2.2283    1.6681   27.4399 C.3     1  UNL1        0.0897
     39 C          -0.2469    1.1751   26.8228 C.3     1  UNL1        0.0897
@<TRIPOS>BOND
     1    30    31    1
     2    31    24    1
     3    24    25   ar
     4    25    26   ar
     5    26    22    1
     6    22     1    1
     7     1     2    1
     8     2     3    1
     9     3     4    1
    10     4     7    1
    11     7     8    2
    12     7     9   am
    13     9    11    1
    14    11    12    1
    15    12    13   ar
    16    13    14   ar
    17    14    15   ar
    18    15    16   ar
    19    16    17   ar
    20    17    18    1
    21    18    19    1
    22    18    20    1
    23    18    21    1
    24     4     5    1
    25     5     6    1
    26    26    27   ar
    27    27    28   ar
    28    28    33    1
    29    33    34    1
    30    33    35    1
    31    35    36    1
    32    36    37    1
    33    37    38    1
    34    37    39    1
    35    28    29   ar
    36    29    24   ar
    37     6     1    1
    38    17    12   ar
    39    31    32    1
    40    22    23    1
    41     9    10    1
@<TRIPOS>MOLECULE
*****
 39 41 0 0 0
SMALL
GASTEIGER

@<TRIPOS>ATOM
      1 C           0.1973    1.2768   28.4787 C.3     1  UNL1        0.0718
      2 C          -0.7944    1.5812   27.3951 C.3     1  UNL1        0.0201
      3 C          -0.3712    1.5355   25.9567 C.3     1  UNL1        0.0108
      4 C           1.0436    1.1854   25.6020 C.3     1  UNL1        0.0766
      5 C           2.0352    0.8810   26.6855 C.3     1  UNL1        0.0108
      6 C           1.6120    0.9267   28.1239 C.3     1  UNL1        0.0201
      7 C           1.4668    1.1397   24.1636 C.2     1  UNL1        0.2222
      8 O           0.9271    2.1457   23.1907 O.2     1  UNL1       -0.2751
      9 N           2.4298    0.0879   23.6982 N.am    1  UNL1       -0.3004
     10 H           2.7840   -0.5724   24.3368 H       1  UNL1        0.1497
     11 C           2.8530    0.0422   22.2599 C.3     1  UNL1        0.1163
     12 C           3.3069   -1.2520   21.6524 C.ar    1  UNL1        0.0013
     13 C           4.1088   -2.2226   22.4677 C.ar    1  UNL1       -0.0027
     14 C           4.5627   -3.5169   21.8603 C.ar    1  UNL1       -0.0003
     15 C           4.2148   -3.8404   20.4375 C.ar    1  UNL1       -0.0001
     16 C           3.4129   -2.8696   19.6222 C.ar    1  UNL1        0.0036
     17 C           2.9589   -1.5755   20.2296 C.ar    1  UNL1        0.0691
     18 C           2.1571   -0.6048   19.4143 C.3     1  UNL1        0.4183
     19 F           1.3552    0.3659   18.5990 F       1  UNL1       -0.1659
     20 F           0.8929   -1.1460   20.0134 F       1  UNL1       -0.1659
     21 F           3.4212   -0.0636   18.8153 F       1  UNL1       -0.1659
     22 N          -0.2259    1.3225   29.9170 N.pl3   1  UNL1       -0.3045
     23 H          -1.0358    0.8439   30.2073 H       1  UNL1        0.1496
     24 C           1.2352    4.3602   32.0117 C.ar    1  UNL1        0.2217
     25 N           0.4244    3.5853   31.0157 N.ar    1  UNL1       -0.1810
     26 C           0.5849    2.0975   30.9131 C.ar    1  UNL1        0.2216
     27 N           1.5562    1.3845   31.8065 N.ar    1  UNL1       -0.1808
     28 C           2.3670    2.1594   32.8025 C.ar    1  UNL1        0.2250
     29 N           2.2065    3.6473   32.9051 N.ar    1  UNL1       -0.1808
     30 C           1.9912    6.6422   32.9970 C.3     1  UNL1        0.1108
     31 N           1.0747    5.8481   32.1142 N.pl3   1  UNL1       -0.3012
     32 H           0.3678    6.3034   31.6022 H       1  UNL1        0.1497
     33 N           3.3383    1.4465   33.6960 N.pl3   1  UNL1       -0.2749
     34 C           3.7382    0.0330   33.3926 C.3     1  UNL1        0.1151
     35 C           3.9098    2.1471   34.8930 C.3     1  UNL1        0.1110
     36 C           3.1808    2.1088   36.2033 C.3     1  UNL1        0.0939
     37 N           3.6176    1.1567   37.2770 N.3     1  UNL1       -0.2688
     38 C           4.8279    0.2953   37.0686 C.3     1  UNL1        0.0897
     39 C           2.8442    1.0659   38.5590 C.3     1  UNL1        0.0897
@<TRIPOS>BOND
     1    30    31    1
     2    31    24    1
     3    24    25   ar
     4    25    26   ar
     5    26    22    1
     6    22     1    1
     7     1     2    1
     8     2     3    1
     9     3     4    1
    10     4     7    1
    11     7     8    2
    12     7     9   am
    13     9    11    1
    14    11    12    1
    15    12    13   ar
    16    13    14   ar
    17    14    15   ar
    18    15    16   ar
    19    16    17   ar
    20    17    18    1
    21    18    19    1
    22    18    20    1
    23    18    21    1
    24     4     5    1
    25     5     6    1
    26    26    27   ar
    27    27    28   ar
    28    28    33    1
    29    33    34    1
    30    33    35    1
    31    35    36    1
    32    36    37    1
    33    37    38    1
    34    37    39    1
    35    28    29   ar
    36    29    24   ar
    37     6     1    1
    38    17    12   ar
    39    31    32    1
    40    22    23    1
    41     9    10    1
