@<TRIPOS>MOLECULE
*****
 23 25 0 0 0
SMALL
GASTEIGER

@<TRIPOS>ATOM
      1 O          -9.2169  -19.1783   21.5336 O.3     1  UNL1       -0.3826
      2 C          -8.8300  -18.1927   22.5961 C.3     1  UNL1        0.1082
      3 H          -8.4269  -19.6509   21.2280 H       1  UNL1        0.2107
      4 C          -8.4432  -17.2071   23.6586 C.ar    1  UNL1        0.0018
      5 C          -7.4797  -16.1020   23.3415 C.ar    1  UNL1       -0.0020
      6 C          -7.0929  -15.1164   24.4040 C.ar    1  UNL1       -0.0002
      7 C          -7.6695  -15.2359   25.7836 C.ar    1  UNL1       -0.0000
      8 C          -8.6329  -16.3410   26.1007 C.ar    1  UNL1       -0.0002
      9 C          -9.0198  -17.3266   25.0382 C.ar    1  UNL1       -0.0020
     10 C         -10.2625  -17.7660   22.7218 C.3     1  UNL1        0.0286
     11 C         -11.2609  -18.6740   23.3766 C.3     1  UNL1        0.0027
     12 C         -12.6934  -18.2473   23.5023 C.3     1  UNL1        0.0001
     13 C         -13.1276  -16.9125   22.9732 C.3     1  UNL1        0.0000
     14 C         -12.1291  -16.0045   22.3184 C.3     1  UNL1        0.0001
     15 C         -10.6967  -16.4312   22.1927 C.3     1  UNL1        0.0027
     16 C          -7.3975  -18.6195   22.4704 C.3     1  UNL1        0.0484
     17 C          -6.7949  -18.8331   21.1135 C.3     1  UNL1        0.0748
     18 N          -5.3093  -18.9816   20.9675 N.3     1  UNL1       -0.2726
     19 C          -4.6862  -18.9831   19.6031 C.3     1  UNL1        0.0721
     20 C          -3.2008  -19.1316   19.4572 C.3     1  UNL1        0.0174
     21 C          -2.3385  -19.2787   20.6757 C.3     1  UNL1        0.0029
     22 C          -2.9616  -19.2772   22.0401 C.3     1  UNL1        0.0174
     23 C          -4.4470  -19.1287   22.1860 C.3     1  UNL1        0.0721
@<TRIPOS>BOND
     1     1     2    1
     2     2    16    1
     3    16    17    1
     4    17    18    1
     5    18    19    1
     6    19    20    1
     7    20    21    1
     8    21    22    1
     9    22    23    1
    10     2     4    1
    11     4     5   ar
    12     5     6   ar
    13     6     7   ar
    14     7     8   ar
    15     8     9   ar
    16     2    10    1
    17    10    11    1
    18    11    12    1
    19    12    13    1
    20    13    14    1
    21    14    15    1
    22    23    18    1
    23     9     4   ar
    24    15    10    1
    25     1     3    1
@<TRIPOS>MOLECULE
*****
 23 25 0 0 0
SMALL
GASTEIGER

@<TRIPOS>ATOM
      1 O          -9.1257  -19.2369   21.4327 O.3     1  UNL1       -0.3826
      2 C          -8.7529  -18.2388   22.4885 C.3     1  UNL1        0.1082
      3 H          -8.3329  -19.7180   21.1483 H       1  UNL1        0.2107
      4 C          -8.3801  -17.2407   23.5443 C.ar    1  UNL1        0.0018
      5 C          -7.3705  -16.1728   23.2438 C.ar    1  UNL1       -0.0020
      6 C          -6.9977  -15.1747   24.2996 C.ar    1  UNL1       -0.0002
      7 C          -7.6346  -15.2444   25.6559 C.ar    1  UNL1       -0.0000
      8 C          -8.6442  -16.3122   25.9564 C.ar    1  UNL1       -0.0002
      9 C          -9.0170  -17.3104   24.9006 C.ar    1  UNL1       -0.0020
     10 C         -10.1850  -17.8025   22.5817 C.3     1  UNL1        0.0286
     11 C         -10.5974  -16.4633   22.0466 C.3     1  UNL1        0.0027
     12 C         -12.0295  -16.0270   22.1398 C.3     1  UNL1        0.0001
     13 C         -13.0493  -16.9300   22.7681 C.3     1  UNL1        0.0000
     14 C         -12.6368  -18.2693   23.3032 C.3     1  UNL1        0.0001
     15 C         -11.2047  -18.7055   23.2100 C.3     1  UNL1        0.0027
     16 C          -7.3207  -18.6751   22.3952 C.3     1  UNL1        0.0484
     17 C          -6.6992  -18.9265   21.0535 C.3     1  UNL1        0.0748
     18 N          -5.2074  -19.0137   20.9224 N.3     1  UNL1       -0.2726
     19 C          -4.3560  -19.1881   22.1449 C.3     1  UNL1        0.0721
     20 C          -2.8643  -19.2753   22.0138 C.3     1  UNL1        0.0174
     21 C          -2.2240  -19.1879   20.6602 C.3     1  UNL1        0.0029
     22 C          -3.0754  -19.0135   19.4376 C.3     1  UNL1        0.0174
     23 C          -4.5671  -18.9263   19.5687 C.3     1  UNL1        0.0721
@<TRIPOS>BOND
     1     1     2    1
     2     2    16    1
     3    16    17    1
     4    17    18    1
     5    18    19    1
     6    19    20    1
     7    20    21    1
     8    21    22    1
     9    22    23    1
    10     2     4    1
    11     4     5   ar
    12     5     6   ar
    13     6     7   ar
    14     7     8   ar
    15     8     9   ar
    16     2    10    1
    17    10    11    1
    18    11    12    1
    19    12    13    1
    20    13    14    1
    21    14    15    1
    22    23    18    1
    23     9     4   ar
    24    15    10    1
    25     1     3    1
@<TRIPOS>MOLECULE
*****
 23 25 0 0 0
SMALL
GASTEIGER

@<TRIPOS>ATOM
      1 O          -8.0166  -16.1896   21.3940 O.3     1  UNL1       -0.3826
      2 C          -9.2338  -16.7473   22.0703 C.3     1  UNL1        0.1082
      3 H          -7.7483  -15.3690   21.8362 H       1  UNL1        0.2107
      4 C         -10.4509  -17.3049   22.7466 C.ar    1  UNL1        0.0018
      5 C         -11.8055  -16.7385   22.4393 C.ar    1  UNL1       -0.0020
      6 C         -13.0227  -17.2961   23.1156 C.ar    1  UNL1       -0.0002
      7 C         -12.8854  -18.4202   24.0993 C.ar    1  UNL1       -0.0000
      8 C         -11.5309  -18.9866   24.4066 C.ar    1  UNL1       -0.0002
      9 C         -10.3137  -18.4290   23.7303 C.ar    1  UNL1       -0.0020
     10 C          -9.2434  -17.8960   21.1058 C.3     1  UNL1        0.0286
     11 C         -10.4784  -18.1961   20.3092 C.3     1  UNL1        0.0027
     12 C         -10.4881  -19.3448   19.3446 C.3     1  UNL1        0.0001
     13 C          -9.2627  -20.1935   19.1768 C.3     1  UNL1        0.0000
     14 C          -8.0276  -19.8934   19.9735 C.3     1  UNL1        0.0001
     15 C          -8.0180  -18.7447   20.9380 C.3     1  UNL1        0.0027
     16 C          -9.2241  -15.5985   23.0348 C.3     1  UNL1        0.0484
     17 C          -7.9203  -15.0373   23.5198 C.3     1  UNL1        0.0748
     18 N          -7.4341  -15.3570   24.9023 N.3     1  UNL1       -0.2726
     19 C          -5.9633  -15.3668   25.1965 C.3     1  UNL1        0.0721
     20 C          -5.4771  -15.6865   26.5790 C.3     1  UNL1        0.0174
     21 C          -6.4618  -15.9963   27.6674 C.3     1  UNL1        0.0029
     22 C          -7.9326  -15.9865   27.3732 C.3     1  UNL1        0.0174
     23 C          -8.4187  -15.6668   25.9907 C.3     1  UNL1        0.0721
@<TRIPOS>BOND
     1     1     2    1
     2     2    16    1
     3    16    17    1
     4    17    18    1
     5    18    19    1
     6    19    20    1
     7    20    21    1
     8    21    22    1
     9    22    23    1
    10     2     4    1
    11     4     5   ar
    12     5     6   ar
    13     6     7   ar
    14     7     8   ar
    15     8     9   ar
    16     2    10    1
    17    10    11    1
    18    11    12    1
    19    12    13    1
    20    13    14    1
    21    14    15    1
    22    23    18    1
    23     9     4   ar
    24    15    10    1
    25     1     3    1
@<TRIPOS>MOLECULE
*****
 23 25 0 0 0
SMALL
GASTEIGER

@<TRIPOS>ATOM
      1 O          -6.0082  -17.7236   22.4201 O.3     1  UNL1       -0.3826
      2 C          -7.4537  -17.9606   22.0971 C.3     1  UNL1        0.1082
      3 H          -5.4524  -18.2021   21.7853 H       1  UNL1        0.2107
      4 C          -8.8992  -18.1975   21.7740 C.ar    1  UNL1        0.0018
      5 C          -9.7566  -17.0633   21.2960 C.ar    1  UNL1       -0.0020
      6 C         -11.2021  -17.3003   20.9730 C.ar    1  UNL1       -0.0002
      7 C         -11.7902  -18.6715   21.1279 C.ar    1  UNL1       -0.0000
      8 C         -10.9328  -19.8057   21.6058 C.ar    1  UNL1       -0.0002
      9 C          -9.4873  -19.5687   21.9289 C.ar    1  UNL1       -0.0020
     10 C          -7.8543  -17.0920   23.2524 C.3     1  UNL1        0.0286
     11 C          -8.7915  -17.6198   24.2979 C.3     1  UNL1        0.0027
     12 C          -9.1922  -16.7511   25.4534 C.3     1  UNL1        0.0001
     13 C          -8.6556  -15.3547   25.5633 C.3     1  UNL1        0.0000
     14 C          -7.7184  -14.8269   24.5178 C.3     1  UNL1        0.0001
     15 C          -7.3177  -15.6955   23.3624 C.3     1  UNL1        0.0027
     16 C          -7.0530  -18.8292   20.9416 C.3     1  UNL1        0.0484
     17 C          -5.9696  -19.8524   21.1129 C.3     1  UNL1        0.0748
     18 N          -4.5427  -19.4890   20.8267 N.3     1  UNL1       -0.2726
     19 C          -3.4848  -19.7316   21.8621 C.3     1  UNL1        0.0721
     20 C          -2.0580  -19.3682   21.5759 C.3     1  UNL1        0.0174
     21 C          -1.6890  -18.7622   20.2543 C.3     1  UNL1        0.0029
     22 C          -2.7468  -18.5195   19.2189 C.3     1  UNL1        0.0174
     23 C          -4.1737  -18.8830   19.5051 C.3     1  UNL1        0.0721
@<TRIPOS>BOND
     1     1     2    1
     2     2    16    1
     3    16    17    1
     4    17    18    1
     5    18    19    1
     6    19    20    1
     7    20    21    1
     8    21    22    1
     9    22    23    1
    10     2     4    1
    11     4     5   ar
    12     5     6   ar
    13     6     7   ar
    14     7     8   ar
    15     8     9   ar
    16     2    10    1
    17    10    11    1
    18    11    12    1
    19    12    13    1
    20    13    14    1
    21    14    15    1
    22    23    18    1
    23     9     4   ar
    24    15    10    1
    25     1     3    1
@<TRIPOS>MOLECULE
*****
 23 25 0 0 0
SMALL
GASTEIGER

@<TRIPOS>ATOM
      1 O          -6.4027  -16.0507   22.8786 O.3     1  UNL1       -0.3826
      2 C          -7.7223  -16.6700   23.2324 C.3     1  UNL1        0.1082
      3 H          -6.2003  -16.2309   21.9473 H       1  UNL1        0.2107
      4 C          -9.0419  -17.2892   23.5862 C.ar    1  UNL1        0.0018
      5 C         -10.3056  -16.7642   22.9717 C.ar    1  UNL1       -0.0020
      6 C         -11.6251  -17.3835   23.3255 C.ar    1  UNL1       -0.0002
      7 C         -11.6811  -18.5277   24.2937 C.ar    1  UNL1       -0.0000
      8 C         -10.4175  -19.0528   24.9082 C.ar    1  UNL1       -0.0002
      9 C          -9.0978  -18.4335   24.5544 C.ar    1  UNL1       -0.0020
     10 C          -7.5878  -16.1554   24.6349 C.3     1  UNL1        0.0286
     11 C          -6.2328  -16.0562   25.2706 C.3     1  UNL1        0.0027
     12 C          -6.0982  -15.5417   26.6732 C.3     1  UNL1        0.0001
     13 C          -7.3186  -15.1264   27.4400 C.3     1  UNL1        0.0000
     14 C          -8.6737  -15.2256   26.8043 C.3     1  UNL1        0.0001
     15 C          -8.8082  -15.7401   25.4018 C.3     1  UNL1        0.0027
     16 C          -7.8568  -17.1845   21.8298 C.3     1  UNL1        0.0484
     17 C          -7.3993  -18.5727   21.4931 C.3     1  UNL1        0.0748
     18 N          -5.9421  -18.8483   21.2679 N.3     1  UNL1       -0.2726
     19 C          -5.4012  -18.9295   19.8712 C.3     1  UNL1        0.0721
     20 C          -3.9441  -19.2051   19.6461 C.3     1  UNL1        0.0174
     21 C          -3.0278  -19.3993   20.8177 C.3     1  UNL1        0.0029
     22 C          -3.5686  -19.3181   22.2144 C.3     1  UNL1        0.0174
     23 C          -5.0258  -19.0425   22.4395 C.3     1  UNL1        0.0721
@<TRIPOS>BOND
     1     1     2    1
     2     2    16    1
     3    16    17    1
     4    17    18    1
     5    18    19    1
     6    19    20    1
     7    20    21    1
     8    21    22    1
     9    22    23    1
    10     2     4    1
    11     4     5   ar
    12     5     6   ar
    13     6     7   ar
    14     7     8   ar
    15     8     9   ar
    16     2    10    1
    17    10    11    1
    18    11    12    1
    19    12    13    1
    20    13    14    1
    21    14    15    1
    22    23    18    1
    23     9     4   ar
    24    15    10    1
    25     1     3    1
@<TRIPOS>MOLECULE
*****
 23 25 0 0 0
SMALL
GASTEIGER

@<TRIPOS>ATOM
      1 O          -6.6472  -16.6308   22.1152 O.3     1  UNL1       -0.3826
      2 C          -7.8319  -17.5496   22.0682 C.3     1  UNL1        0.1082
      3 H          -6.9240  -15.7631   22.4489 H       1  UNL1        0.2107
      4 C          -9.0166  -18.4684   22.0212 C.ar    1  UNL1        0.0018
      5 C          -9.2498  -19.4489   23.1322 C.ar    1  UNL1       -0.0020
      6 C         -10.4345  -20.3678   23.0853 C.ar    1  UNL1       -0.0002
      7 C         -11.3860  -20.3061   21.9273 C.ar    1  UNL1       -0.0000
      8 C         -11.1528  -19.3257   20.8163 C.ar    1  UNL1       -0.0002
      9 C          -9.9681  -18.4068   20.8633 C.ar    1  UNL1       -0.0020
     10 C          -6.9590  -18.6479   21.5375 C.3     1  UNL1        0.0286
     11 C          -7.4217  -19.4797   20.3782 C.3     1  UNL1        0.0027
     12 C          -6.5488  -20.5781   19.8474 C.3     1  UNL1        0.0001
     13 C          -5.2132  -20.8446   20.4760 C.3     1  UNL1        0.0000
     14 C          -4.7505  -20.0128   21.6353 C.3     1  UNL1        0.0001
     15 C          -5.6234  -18.9145   22.1660 C.3     1  UNL1        0.0027
     16 C          -8.7048  -16.4512   22.5989 C.3     1  UNL1        0.0484
     17 C          -8.0859  -15.2483   23.2469 C.3     1  UNL1        0.0748
     18 N          -7.6301  -15.3165   24.6744 N.3     1  UNL1       -0.2726
     19 C          -8.6304  -15.5294   25.7717 C.3     1  UNL1        0.0721
     20 C          -8.1746  -15.5976   27.1991 C.3     1  UNL1        0.0174
     21 C          -6.7185  -15.4528   27.5292 C.3     1  UNL1        0.0029
     22 C          -5.7183  -15.2399   26.4319 C.3     1  UNL1        0.0174
     23 C          -6.1741  -15.1717   25.0045 C.3     1  UNL1        0.0721
@<TRIPOS>BOND
     1     1     2    1
     2     2    16    1
     3    16    17    1
     4    17    18    1
     5    18    19    1
     6    19    20    1
     7    20    21    1
     8    21    22    1
     9    22    23    1
    10     2     4    1
    11     4     5   ar
    12     5     6   ar
    13     6     7   ar
    14     7     8   ar
    15     8     9   ar
    16     2    10    1
    17    10    11    1
    18    11    12    1
    19    12    13    1
    20    13    14    1
    21    14    15    1
    22    23    18    1
    23     9     4   ar
    24    15    10    1
    25     1     3    1
@<TRIPOS>MOLECULE
*****
 23 25 0 0 0
SMALL
GASTEIGER

@<TRIPOS>ATOM
      1 O         -12.4632   -7.9413   17.9709 O.3     1  UNL1       -0.3826
      2 C         -13.0250   -6.6401   18.4617 C.3     1  UNL1        0.1082
      3 H         -13.0975   -8.6540   18.1460 H       1  UNL1        0.2107
      4 C         -13.5869   -5.3388   18.9526 C.ar    1  UNL1        0.0018
      5 C         -13.6386   -5.0516   20.4240 C.ar    1  UNL1       -0.0020
      6 C         -14.2005   -3.7503   20.9148 C.ar    1  UNL1       -0.0002
      7 C         -14.7107   -2.7363   19.9343 C.ar    1  UNL1       -0.0000
      8 C         -14.6591   -3.0234   18.4630 C.ar    1  UNL1       -0.0002
      9 C         -14.0972   -4.3248   17.9721 C.ar    1  UNL1       -0.0020
     10 C         -11.7860   -5.9313   18.0009 C.3     1  UNL1        0.0286
     11 C         -10.7836   -5.4440   19.0047 C.3     1  UNL1        0.0027
     12 C          -9.5445   -4.7351   18.5439 C.3     1  UNL1        0.0001
     13 C          -9.3079   -4.5136   17.0793 C.3     1  UNL1        0.0000
     14 C         -10.3105   -5.0009   16.0756 C.3     1  UNL1        0.0001
     15 C         -11.5495   -5.7097   16.5364 C.3     1  UNL1        0.0027
     16 C         -14.2641   -7.3490   18.9225 C.3     1  UNL1        0.0484
     17 C         -14.6081   -8.6979   18.3639 C.3     1  UNL1        0.0748
     18 N         -16.0191   -9.0033   17.9564 N.3     1  UNL1       -0.2726
     19 C         -16.7438   -8.0856   17.0170 C.3     1  UNL1        0.0721
     20 C         -18.1547   -8.3911   16.6096 C.3     1  UNL1        0.0174
     21 C         -18.8408   -9.6143   17.1415 C.3     1  UNL1        0.0029
     22 C         -18.1161  -10.5320   18.0809 C.3     1  UNL1        0.0174
     23 C         -16.7052  -10.2266   18.4883 C.3     1  UNL1        0.0721
@<TRIPOS>BOND
     1     1     2    1
     2     2    16    1
     3    16    17    1
     4    17    18    1
     5    18    19    1
     6    19    20    1
     7    20    21    1
     8    21    22    1
     9    22    23    1
    10     2     4    1
    11     4     5   ar
    12     5     6   ar
    13     6     7   ar
    14     7     8   ar
    15     8     9   ar
    16     2    10    1
    17    10    11    1
    18    11    12    1
    19    12    13    1
    20    13    14    1
    21    14    15    1
    22    23    18    1
    23     9     4   ar
    24    15    10    1
    25     1     3    1
@<TRIPOS>MOLECULE
*****
 23 25 0 0 0
SMALL
GASTEIGER

@<TRIPOS>ATOM
      1 O         -12.6638   -7.8149   18.2176 O.3     1  UNL1       -0.3826
      2 C         -13.1136   -6.4522   18.6542 C.3     1  UNL1        0.1082
      3 H         -13.3394   -8.4696   18.4540 H       1  UNL1        0.2107
      4 C         -13.5635   -5.0895   19.0907 C.ar    1  UNL1        0.0018
      5 C         -13.8990   -4.0465   18.0662 C.ar    1  UNL1       -0.0020
      6 C         -14.3489   -2.6838   18.5027 C.ar    1  UNL1       -0.0002
      7 C         -14.4632   -2.3640   19.9637 C.ar    1  UNL1       -0.0000
      8 C         -14.1276   -3.4069   20.9882 C.ar    1  UNL1       -0.0002
      9 C         -13.6778   -4.7697   20.5517 C.ar    1  UNL1       -0.0020
     10 C         -11.8464   -5.8603   18.1122 C.3     1  UNL1        0.0286
     11 C         -11.6374   -5.7645   16.6299 C.3     1  UNL1        0.0027
     12 C         -10.3702   -5.1725   16.0879 C.3     1  UNL1        0.0001
     13 C          -9.3120   -4.6764   17.0281 C.3     1  UNL1        0.0000
     14 C          -9.5210   -4.7722   18.5105 C.3     1  UNL1        0.0001
     15 C         -10.7882   -5.3641   19.0524 C.3     1  UNL1        0.0027
     16 C         -14.3809   -7.0442   19.1962 C.3     1  UNL1        0.0484
     17 C         -15.0363   -8.1915   18.4862 C.3     1  UNL1        0.0748
     18 N         -16.4567   -8.5561   18.8021 N.3     1  UNL1       -0.2726
     19 C         -17.1136   -9.7005   18.0889 C.3     1  UNL1        0.0721
     20 C         -18.5339  -10.0651   18.4048 C.3     1  UNL1        0.0174
     21 C         -19.2972   -9.2852   19.4339 C.3     1  UNL1        0.0029
     22 C         -18.6403   -8.1408   20.1471 C.3     1  UNL1        0.0174
     23 C         -17.2200   -7.7763   19.8312 C.3     1  UNL1        0.0721
@<TRIPOS>BOND
     1     1     2    1
     2     2    16    1
     3    16    17    1
     4    17    18    1
     5    18    19    1
     6    19    20    1
     7    20    21    1
     8    21    22    1
     9    22    23    1
    10     2     4    1
    11     4     5   ar
    12     5     6   ar
    13     6     7   ar
    14     7     8   ar
    15     8     9   ar
    16     2    10    1
    17    10    11    1
    18    11    12    1
    19    12    13    1
    20    13    14    1
    21    14    15    1
    22    23    18    1
    23     9     4   ar
    24    15    10    1
    25     1     3    1
@<TRIPOS>MOLECULE
*****
 23 25 0 0 0
SMALL
GASTEIGER

@<TRIPOS>ATOM
      1 O          -6.6672  -17.6613   21.0172 O.3     1  UNL1       -0.3826
      2 C          -8.0916  -17.9922   21.3512 C.3     1  UNL1        0.1082
      3 H          -6.3985  -16.8645   21.5008 H       1  UNL1        0.2107
      4 C          -9.5160  -18.3231   21.6852 C.ar    1  UNL1        0.0018
      5 C         -10.6287  -17.4682   21.1550 C.ar    1  UNL1       -0.0020
      6 C         -12.0531  -17.7991   21.4890 C.ar    1  UNL1       -0.0002
      7 C         -12.3648  -18.9849   22.3532 C.ar    1  UNL1       -0.0000
      8 C         -11.2522  -19.8397   22.8834 C.ar    1  UNL1       -0.0002
      9 C          -9.8277  -19.5088   22.5494 C.ar    1  UNL1       -0.0020
     10 C          -8.0289  -19.1820   20.4401 C.3     1  UNL1        0.0286
     11 C          -6.9098  -20.1717   20.5749 C.3     1  UNL1        0.0027
     12 C          -6.8470  -21.3617   19.6637 C.3     1  UNL1        0.0001
     13 C          -7.9033  -21.5618   18.6177 C.3     1  UNL1        0.0000
     14 C          -9.0224  -20.5720   18.4829 C.3     1  UNL1        0.0001
     15 C          -9.0851  -19.3822   19.3940 C.3     1  UNL1        0.0027
     16 C          -8.1543  -16.8023   22.2625 C.3     1  UNL1        0.0484
     17 C          -6.9218  -16.3450   22.9848 C.3     1  UNL1        0.0748
     18 N          -6.9903  -16.0057   24.4444 N.3     1  UNL1       -0.2726
     19 C          -8.2889  -16.1341   25.1841 C.3     1  UNL1        0.0721
     20 C          -8.3573  -15.7948   26.6436 C.3     1  UNL1        0.0174
     21 C          -7.1272  -15.3271   27.3633 C.3     1  UNL1        0.0029
     22 C          -5.8287  -15.1986   26.6236 C.3     1  UNL1        0.0174
     23 C          -5.7602  -15.5380   25.1641 C.3     1  UNL1        0.0721
@<TRIPOS>BOND
     1     1     2    1
     2     2    16    1
     3    16    17    1
     4    17    18    1
     5    18    19    1
     6    19    20    1
     7    20    21    1
     8    21    22    1
     9    22    23    1
    10     2     4    1
    11     4     5   ar
    12     5     6   ar
    13     6     7   ar
    14     7     8   ar
    15     8     9   ar
    16     2    10    1
    17    10    11    1
    18    11    12    1
    19    12    13    1
    20    13    14    1
    21    14    15    1
    22    23    18    1
    23     9     4   ar
    24    15    10    1
    25     1     3    1
