@<TRIPOS>MOLECULE
*****
 34 37 0 0 0
SMALL
GASTEIGER

@<TRIPOS>ATOM
      1 C           1.2069    0.7345   20.9707 C.ar    1  UNL1        0.0154
      2 C           0.1305    1.4039   20.1687 C.ar    1  UNL1        0.0985
      3 N          -0.8273    2.3451   20.8370 N.ar    1  UNL1       -0.2423
      4 C          -0.7088    2.6169   22.3074 C.ar    1  UNL1        0.0985
      5 C           0.3676    1.9475   23.1095 C.ar    1  UNL1        0.0152
      6 C           1.3255    1.0063   22.4411 C.ar    1  UNL1       -0.0188
      7 C           2.4019    0.3368   23.2432 C.3     1  UNL1        0.0311
      8 C           3.6878   -2.3095   20.3966 C.ar    1  UNL1        0.1452
      9 C           2.7300   -1.3683   21.0649 C.ar    1  UNL1        0.0372
     10 C           2.1647   -0.2068   20.3023 C.ar    1  UNL1        0.0064
     11 C           2.5572    0.0134   18.8715 C.ar    1  UNL1        0.0300
     12 C           3.5150   -0.9278   18.2032 C.ar    1  UNL1        0.1474
     13 F           3.9076   -0.7076   16.7723 F       1  UNL1       -0.2039
     14 C           4.0803   -2.0892   18.9657 C.ar    1  UNL1        0.1144
     15 C           5.0381   -3.0305   18.2973 C.2     1  UNL1        0.2479
     16 N           4.7796   -4.5078   18.3240 N.am    1  UNL1       -0.3252
     17 O           6.2545   -2.4944   17.6023 O.2     1  UNL1       -0.2702
     18 H           3.9812   -4.8596   18.7802 H       1  UNL1        0.1453
     19 H           5.4082   -5.1256   17.8853 H       1  UNL1        0.1453
     20 C           4.5761   -3.3254   22.6166 C.3     1  UNL1        0.2525
     21 O           4.2531   -3.4709   21.1591 O.3     1  UNL1       -0.4712
     22 C           0.4862    2.2193   24.5799 C.ar    1  UNL1        0.0013
     23 C          -0.2603    1.3668   25.5627 C.ar    1  UNL1        0.0013
     24 C          -0.1417    1.6386   27.0331 C.ar    1  UNL1        0.0145
     25 C           0.7233    2.7629   27.5207 C.ar    1  UNL1        0.0479
     26 C           1.4698    3.6154   26.5378 C.ar    1  UNL1        0.0145
     27 C           1.3513    3.3436   25.0674 C.ar    1  UNL1        0.0013
     28 N           0.8419    3.0347   28.9910 N.pl3   1  UNL1       -0.3046
     29 C           1.1863    4.4125   29.4736 C.3     1  UNL1        0.1081
     30 C           1.3048    4.6844   30.9441 C.3     1  UNL1        0.0938
     31 N           1.0791    3.5783   31.9318 N.3     1  UNL1       -0.2686
     32 C           1.1977    3.8501   33.4022 C.3     1  UNL1        0.0897
     33 C           0.7347    2.2004   31.4492 C.3     1  UNL1        0.0938
     34 C           0.6162    1.9286   29.9788 C.3     1  UNL1        0.1081
@<TRIPOS>BOND
     1    20    21    1
     2    21     8    1
     3     8     9   ar
     4     9    10   ar
     5    10     1    1
     6     1     2   ar
     7     2     3   ar
     8     3     4   ar
     9     4     5   ar
    10     5    22    1
    11    22    23   ar
    12    23    24   ar
    13    24    25   ar
    14    25    28    1
    15    28    29    1
    16    29    30    1
    17    30    31    1
    18    31    32    1
    19    31    33    1
    20    33    34    1
    21    25    26   ar
    22    26    27   ar
    23     5     6   ar
    24     6     7    1
    25    10    11   ar
    26    11    12   ar
    27    12    13    1
    28    12    14   ar
    29    14    15    1
    30    15    16   am
    31    15    17    2
    32    14     8   ar
    33     6     1   ar
    34    27    22   ar
    35    34    28    1
    36    16    18    1
    37    16    19    1
@<TRIPOS>MOLECULE
*****
 34 37 0 0 0
SMALL
GASTEIGER

@<TRIPOS>ATOM
      1 C           3.2479    1.2030   22.4231 C.ar    1  UNL1        0.0154
      2 C           4.2997    2.1291   22.9581 C.ar    1  UNL1        0.0985
      3 N           3.8999    3.4016   23.6441 N.ar    1  UNL1       -0.2423
      4 C           2.4483    3.7482   23.7952 C.ar    1  UNL1        0.0985
      5 C           1.3965    2.8222   23.2601 C.ar    1  UNL1        0.0152
      6 C           1.7964    1.5496   22.5741 C.ar    1  UNL1       -0.0188
      7 C           0.7446    0.6235   22.0391 C.3     1  UNL1        0.0311
      8 C           4.3464   -1.3399   19.5811 C.ar    1  UNL1        0.1452
      9 C           3.9465   -0.0673   20.2671 C.ar    1  UNL1        0.0372
     10 C           3.6478   -0.0696   21.7371 C.ar    1  UNL1        0.0064
     11 C           3.7489   -1.3444   22.5210 C.ar    1  UNL1        0.0300
     12 C           4.1488   -2.6170   21.8349 C.ar    1  UNL1        0.1474
     13 F           4.2499   -3.8919   22.6188 F       1  UNL1       -0.2039
     14 C           4.4475   -2.6147   20.3650 C.ar    1  UNL1        0.1144
     15 C           4.8474   -3.8873   19.6789 C.2     1  UNL1        0.2479
     16 N           4.0671   -4.3787   18.4958 N.am    1  UNL1       -0.3252
     17 O           6.0275   -4.6685   20.1760 O.2     1  UNL1       -0.2702
     18 H           3.2926   -3.8660   18.1696 H       1  UNL1        0.1453
     19 H           4.3295   -5.2139   18.0455 H       1  UNL1        0.1453
     20 C           3.6858   -0.6977   17.1518 C.3     1  UNL1        0.2525
     21 O           4.6451   -1.3376   18.1111 O.3     1  UNL1       -0.4712
     22 C          -0.0550    3.1687   23.4111 C.ar    1  UNL1        0.0013
     23 C          -0.8078    3.7639   22.2583 C.ar    1  UNL1        0.0013
     24 C          -2.2595    4.1105   22.4093 C.ar    1  UNL1        0.0145
     25 C          -2.9582    3.8618   23.7131 C.ar    1  UNL1        0.0479
     26 C          -2.2054    3.2666   24.8659 C.ar    1  UNL1        0.0145
     27 C          -0.7538    2.9200   24.7149 C.ar    1  UNL1        0.0013
     28 N          -4.4098    4.2084   23.8641 N.pl3   1  UNL1       -0.3046
     29 C          -4.8858    4.9251   25.0927 C.3     1  UNL1        0.1081
     30 C          -6.3375    5.2716   25.2438 C.3     1  UNL1        0.0938
     31 N          -7.3130    4.9015   24.1661 N.3     1  UNL1       -0.2686
     32 C          -8.7645    5.2480   24.3171 C.3     1  UNL1        0.0897
     33 C          -6.8369    4.1847   22.9374 C.3     1  UNL1        0.0938
     34 C          -5.3853    3.8382   22.7864 C.3     1  UNL1        0.1081
@<TRIPOS>BOND
     1    20    21    1
     2    21     8    1
     3     8     9   ar
     4     9    10   ar
     5    10     1    1
     6     1     2   ar
     7     2     3   ar
     8     3     4   ar
     9     4     5   ar
    10     5    22    1
    11    22    23   ar
    12    23    24   ar
    13    24    25   ar
    14    25    28    1
    15    28    29    1
    16    29    30    1
    17    30    31    1
    18    31    32    1
    19    31    33    1
    20    33    34    1
    21    25    26   ar
    22    26    27   ar
    23     5     6   ar
    24     6     7    1
    25    10    11   ar
    26    11    12   ar
    27    12    13    1
    28    12    14   ar
    29    14    15    1
    30    15    16   am
    31    15    17    2
    32    14     8   ar
    33     6     1   ar
    34    27    22   ar
    35    34    28    1
    36    16    18    1
    37    16    19    1
@<TRIPOS>MOLECULE
*****
 34 37 0 0 0
SMALL
GASTEIGER

@<TRIPOS>ATOM
      1 C           3.7620   -0.3763   23.6161 C.ar    1  UNL1        0.0154
      2 C           4.5921   -1.0305   24.6806 C.ar    1  UNL1        0.0985
      3 N           4.2994   -0.7666   26.1279 N.ar    1  UNL1       -0.2423
      4 C           3.1765    0.1514   26.5108 C.ar    1  UNL1        0.0985
      5 C           2.3464    0.8055   25.4463 C.ar    1  UNL1        0.0152
      6 C           2.6392    0.5416   23.9990 C.ar    1  UNL1       -0.0188
      7 C           1.8091    1.1957   22.9345 C.3     1  UNL1        0.0311
      8 C           3.7152   -2.0755   20.0299 C.ar    1  UNL1        0.1452
      9 C           3.4225   -1.8116   21.4772 C.ar    1  UNL1        0.0372
     10 C           4.0547   -0.6402   22.1688 C.ar    1  UNL1        0.0064
     11 C           4.9796    0.2671   21.4131 C.ar    1  UNL1        0.0300
     12 C           5.2723    0.0032   19.9658 C.ar    1  UNL1        0.1474
     13 F           6.1973    0.9106   19.2101 F       1  UNL1       -0.2039
     14 C           4.6401   -1.1681   19.2742 C.ar    1  UNL1        0.1144
     15 C           4.9328   -1.4320   17.8269 C.2     1  UNL1        0.2479
     16 N           3.8264   -1.3761   16.8156 N.am    1  UNL1       -0.3252
     17 O           6.3320   -1.7517   17.3909 O.2     1  UNL1       -0.2702
     18 H           2.9081   -1.1663   17.1018 H       1  UNL1        0.1453
     19 H           4.0185   -1.5493   15.8657 H       1  UNL1        0.1453
     20 C           3.7752   -4.5775   19.3326 C.3     1  UNL1        0.2525
     21 O           3.0829   -3.2468   19.3383 O.3     1  UNL1       -0.4712
     22 C           1.2236    1.7235   25.8291 C.ar    1  UNL1        0.0013
     23 C           1.4802    3.1914   26.0000 C.ar    1  UNL1        0.0013
     24 C           0.3573    4.1095   26.3829 C.ar    1  UNL1        0.0145
     25 C          -1.0220    3.5595   26.5948 C.ar    1  UNL1        0.0479
     26 C          -1.2785    2.0914   26.4239 C.ar    1  UNL1        0.0145
     27 C          -0.1557    1.1735   26.0411 C.ar    1  UNL1        0.0013
     28 N          -2.1448    4.4774   26.9776 N.pl3   1  UNL1       -0.3046
     29 C          -3.5581    4.1225   26.6221 C.3     1  UNL1        0.1081
     30 C          -4.6810    5.0404   27.0049 C.3     1  UNL1        0.0938
     31 N          -4.3905    6.3134   27.7433 N.3     1  UNL1       -0.2686
     32 C          -5.5133    7.2313   28.1261 C.3     1  UNL1        0.0897
     33 C          -2.9771    6.6683   28.0989 C.3     1  UNL1        0.0938
     34 C          -1.8543    5.7504   27.7160 C.3     1  UNL1        0.1081
@<TRIPOS>BOND
     1    20    21    1
     2    21     8    1
     3     8     9   ar
     4     9    10   ar
     5    10     1    1
     6     1     2   ar
     7     2     3   ar
     8     3     4   ar
     9     4     5   ar
    10     5    22    1
    11    22    23   ar
    12    23    24   ar
    13    24    25   ar
    14    25    28    1
    15    28    29    1
    16    29    30    1
    17    30    31    1
    18    31    32    1
    19    31    33    1
    20    33    34    1
    21    25    26   ar
    22    26    27   ar
    23     5     6   ar
    24     6     7    1
    25    10    11   ar
    26    11    12   ar
    27    12    13    1
    28    12    14   ar
    29    14    15    1
    30    15    16   am
    31    15    17    2
    32    14     8   ar
    33     6     1   ar
    34    27    22   ar
    35    34    28    1
    36    16    18    1
    37    16    19    1
@<TRIPOS>MOLECULE
*****
 34 37 0 0 0
SMALL
GASTEIGER

@<TRIPOS>ATOM
      1 C           3.4014    1.7667   34.9307 C.ar    1  UNL1        0.0154
      2 C           2.2737    2.3663   34.1441 C.ar    1  UNL1        0.0985
      3 N           1.9526    1.8431   32.7755 N.ar    1  UNL1       -0.2423
      4 C           2.7592    0.7203   32.1935 C.ar    1  UNL1        0.0985
      5 C           3.8869    0.1207   32.9801 C.ar    1  UNL1        0.0152
      6 C           4.2080    0.6439   34.3487 C.ar    1  UNL1       -0.0188
      7 C           5.3357    0.0444   35.1354 C.3     1  UNL1        0.0311
      8 C           3.0359    2.6924   38.7726 C.ar    1  UNL1        0.1452
      9 C           2.7149    2.1692   37.4040 C.ar    1  UNL1        0.0372
     10 C           3.7225    2.2899   36.2994 C.ar    1  UNL1        0.0064
     11 C           5.0512    2.9339   36.5635 C.ar    1  UNL1        0.0300
     12 C           5.3723    3.4571   37.9321 C.ar    1  UNL1        0.1474
     13 F           6.7011    4.1011   38.1962 F       1  UNL1       -0.2039
     14 C           4.3646    3.3363   39.0367 C.ar    1  UNL1        0.1144
     15 C           4.6857    3.8596   40.4053 C.2     1  UNL1        0.2479
     16 N           3.9802    5.0758   40.9279 N.am    1  UNL1       -0.3252
     17 O           5.7123    3.1666   41.2514 O.2     1  UNL1       -0.2702
     18 H           3.3064    5.5306   40.3725 H       1  UNL1        0.1453
     19 H           4.1909    5.4192   41.8261 H       1  UNL1        0.1453
     20 C           0.6265    2.1355   39.5692 C.3     1  UNL1        0.2525
     21 O           2.0282    2.5716   39.8771 O.3     1  UNL1       -0.4712
     22 C           4.6935   -1.0020   32.3981 C.ar    1  UNL1        0.0013
     23 C           5.3881   -0.8222   31.0808 C.ar    1  UNL1        0.0013
     24 C           6.1947   -1.9450   30.4988 C.ar    1  UNL1        0.0145
     25 C           6.3067   -3.2476   31.2340 C.ar    1  UNL1        0.0479
     26 C           5.6121   -3.4274   32.5513 C.ar    1  UNL1        0.0145
     27 C           4.8055   -2.3047   33.1333 C.ar    1  UNL1        0.0013
     28 N           7.1133   -4.3704   30.6520 N.pl3   1  UNL1       -0.3046
     29 C           6.6934   -5.0036   29.3587 C.3     1  UNL1        0.1081
     30 C           7.5000   -6.1264   28.7766 C.3     1  UNL1        0.0938
     31 N           8.7265   -6.6160   29.4879 N.3     1  UNL1       -0.2686
     32 C           9.5331   -7.7387   28.9059 C.3     1  UNL1        0.0897
     33 C           9.1464   -5.9827   30.7813 C.3     1  UNL1        0.0938
     34 C           8.3398   -4.8599   31.3633 C.3     1  UNL1        0.1081
@<TRIPOS>BOND
     1    20    21    1
     2    21     8    1
     3     8     9   ar
     4     9    10   ar
     5    10     1    1
     6     1     2   ar
     7     2     3   ar
     8     3     4   ar
     9     4     5   ar
    10     5    22    1
    11    22    23   ar
    12    23    24   ar
    13    24    25   ar
    14    25    28    1
    15    28    29    1
    16    29    30    1
    17    30    31    1
    18    31    32    1
    19    31    33    1
    20    33    34    1
    21    25    26   ar
    22    26    27   ar
    23     5     6   ar
    24     6     7    1
    25    10    11   ar
    26    11    12   ar
    27    12    13    1
    28    12    14   ar
    29    14    15    1
    30    15    16   am
    31    15    17    2
    32    14     8   ar
    33     6     1   ar
    34    27    22   ar
    35    34    28    1
    36    16    18    1
    37    16    19    1
@<TRIPOS>MOLECULE
*****
 34 37 0 0 0
SMALL
GASTEIGER

@<TRIPOS>ATOM
      1 C           7.8941   -5.2373   23.7200 C.ar    1  UNL1        0.0154
      2 C           8.8132   -5.9439   22.7680 C.ar    1  UNL1        0.0985
      3 N           8.7512   -5.6396   21.3006 N.ar    1  UNL1       -0.2423
      4 C           7.7702   -4.6286   20.7850 C.ar    1  UNL1        0.0985
      5 C           6.8512   -3.9221   21.7369 C.ar    1  UNL1        0.0152
      6 C           6.9132   -4.2265   23.2044 C.ar    1  UNL1       -0.0188
      7 C           5.9942   -3.5199   24.1564 C.3     1  UNL1        0.0311
      8 C           8.2425   -4.7388   27.6417 C.ar    1  UNL1        0.1452
      9 C           8.1805   -4.4345   26.1743 C.ar    1  UNL1        0.0372
     10 C           7.9561   -5.5417   25.1875 C.ar    1  UNL1        0.0064
     11 C           7.7938   -6.9533   25.6682 C.ar    1  UNL1        0.0300
     12 C           7.8557   -7.2576   27.1357 C.ar    1  UNL1        0.1474
     13 F           7.6934   -8.6692   27.6165 F       1  UNL1       -0.2039
     14 C           8.0801   -6.1503   28.1224 C.ar    1  UNL1        0.1144
     15 C           8.1421   -6.4547   29.5900 C.2     1  UNL1        0.2479
     16 N           7.1168   -5.8766   30.5198 N.am    1  UNL1       -0.3252
     17 O           9.2294   -7.3371   30.1276 O.2     1  UNL1       -0.2702
     18 H           6.4031   -5.2975   30.1669 H       1  UNL1        0.1453
     19 H           7.1574   -6.0764   31.4829 H       1  UNL1        0.1453
     20 C           7.4001   -2.6018   28.8556 C.3     1  UNL1        0.2525
     21 O           8.4668   -3.6316   28.6285 O.3     1  UNL1       -0.4712
     22 C           5.8703   -2.9112   21.2214 C.ar    1  UNL1        0.0013
     23 C           6.2525   -1.4624   21.1529 C.ar    1  UNL1        0.0013
     24 C           5.2715   -0.4514   20.6374 C.ar    1  UNL1        0.0145
     25 C           3.9083   -0.8894   20.1903 C.ar    1  UNL1        0.0479
     26 C           3.5261   -2.3383   20.2588 C.ar    1  UNL1        0.0145
     27 C           4.5070   -3.3492   20.7744 C.ar    1  UNL1        0.0013
     28 N           2.9274    0.1215   19.6748 N.pl3   1  UNL1       -0.3046
     29 C           1.4571   -0.0821   19.8912 C.3     1  UNL1        0.1081
     30 C           0.4761    0.9288   19.3757 C.3     1  UNL1        0.0938
     31 N           0.9654    2.1433   18.6438 N.3     1  UNL1       -0.2686
     32 C          -0.0156    3.1542   18.1283 C.3     1  UNL1        0.0897
     33 C           2.4357    2.3469   18.4274 C.3     1  UNL1        0.0938
     34 C           3.4167    1.3360   18.9429 C.3     1  UNL1        0.1081
@<TRIPOS>BOND
     1    20    21    1
     2    21     8    1
     3     8     9   ar
     4     9    10   ar
     5    10     1    1
     6     1     2   ar
     7     2     3   ar
     8     3     4   ar
     9     4     5   ar
    10     5    22    1
    11    22    23   ar
    12    23    24   ar
    13    24    25   ar
    14    25    28    1
    15    28    29    1
    16    29    30    1
    17    30    31    1
    18    31    32    1
    19    31    33    1
    20    33    34    1
    21    25    26   ar
    22    26    27   ar
    23     5     6   ar
    24     6     7    1
    25    10    11   ar
    26    11    12   ar
    27    12    13    1
    28    12    14   ar
    29    14    15    1
    30    15    16   am
    31    15    17    2
    32    14     8   ar
    33     6     1   ar
    34    27    22   ar
    35    34    28    1
    36    16    18    1
    37    16    19    1
@<TRIPOS>MOLECULE
*****
 34 37 0 0 0
SMALL
GASTEIGER

@<TRIPOS>ATOM
      1 C           2.8192    1.2621   22.5180 C.ar    1  UNL1        0.0154
      2 C           3.8651    1.9339   23.3575 C.ar    1  UNL1        0.0985
      3 N           3.4724    3.0107   24.3251 N.ar    1  UNL1       -0.2423
      4 C           2.0337    3.4158   24.4531 C.ar    1  UNL1        0.0985
      5 C           0.9878    2.7440   23.6136 C.ar    1  UNL1        0.0152
      6 C           1.3806    1.6671   22.6460 C.ar    1  UNL1       -0.0188
      7 C           0.3347    0.9953   21.8065 C.3     1  UNL1        0.0311
      8 C           3.9540   -2.2609   21.0859 C.ar    1  UNL1        0.1452
      9 C           3.5612   -1.1841   22.0534 C.ar    1  UNL1        0.0372
     10 C           3.2119    0.1852   21.5504 C.ar    1  UNL1        0.0064
     11 C           3.2554    0.4777   20.0798 C.ar    1  UNL1        0.0300
     12 C           3.6481   -0.5992   19.1123 C.ar    1  UNL1        0.1474
     13 F           3.6916   -0.3067   17.6417 F       1  UNL1       -0.2039
     14 C           3.9974   -1.9684   19.6154 C.ar    1  UNL1        0.1144
     15 C           4.3902   -3.0453   18.6478 C.2     1  UNL1        0.2479
     16 N           3.6561   -4.3534   18.6429 N.am    1  UNL1       -0.3252
     17 O           5.5170   -2.8141   17.6851 O.2     1  UNL1       -0.2702
     18 H           2.9165   -4.5052   19.2748 H       1  UNL1        0.1453
     19 H           3.9138   -5.0602   18.0079 H       1  UNL1        0.1453
     20 C           5.2133   -3.7853   22.7711 C.3     1  UNL1        0.2525
     21 O           4.3032   -3.6302   21.5889 O.3     1  UNL1       -0.4712
     22 C          -0.4507    3.1490   23.7416 C.ar    1  UNL1        0.0013
     23 C          -1.1377    3.8459   22.6048 C.ar    1  UNL1        0.0013
     24 C          -2.5763    4.2509   22.7328 C.ar    1  UNL1        0.0145
     25 C          -3.3279    3.9590   23.9977 C.ar    1  UNL1        0.0479
     26 C          -2.6409    3.2621   25.1345 C.ar    1  UNL1        0.0145
     27 C          -1.2024    2.8571   25.0065 C.ar    1  UNL1        0.0013
     28 N          -4.7665    4.3640   24.1257 N.pl3   1  UNL1       -0.3046
     29 C          -5.7542    3.9673   23.0688 C.3     1  UNL1        0.1081
     30 C          -7.1929    4.3723   23.1968 C.3     1  UNL1        0.0938
     31 N          -7.6438    5.1740   24.3817 N.3     1  UNL1       -0.2686
     32 C          -9.0823    5.5790   24.5098 C.3     1  UNL1        0.0897
     33 C          -6.6560    5.5707   25.4386 C.3     1  UNL1        0.0938
     34 C          -5.2174    5.1657   25.3106 C.3     1  UNL1        0.1081
@<TRIPOS>BOND
     1    20    21    1
     2    21     8    1
     3     8     9   ar
     4     9    10   ar
     5    10     1    1
     6     1     2   ar
     7     2     3   ar
     8     3     4   ar
     9     4     5   ar
    10     5    22    1
    11    22    23   ar
    12    23    24   ar
    13    24    25   ar
    14    25    28    1
    15    28    29    1
    16    29    30    1
    17    30    31    1
    18    31    32    1
    19    31    33    1
    20    33    34    1
    21    25    26   ar
    22    26    27   ar
    23     5     6   ar
    24     6     7    1
    25    10    11   ar
    26    11    12   ar
    27    12    13    1
    28    12    14   ar
    29    14    15    1
    30    15    16   am
    31    15    17    2
    32    14     8   ar
    33     6     1   ar
    34    27    22   ar
    35    34    28    1
    36    16    18    1
    37    16    19    1
@<TRIPOS>MOLECULE
*****
 34 37 0 0 0
SMALL
GASTEIGER

@<TRIPOS>ATOM
      1 C           7.7822   -5.1461   23.7926 C.ar    1  UNL1        0.0154
      2 C           8.7105   -5.8556   22.8520 C.ar    1  UNL1        0.0985
      3 N           8.6624   -5.5565   21.3829 N.ar    1  UNL1       -0.2423
      4 C           7.6858   -4.5480   20.8544 C.ar    1  UNL1        0.0985
      5 C           6.7575   -3.8385   21.7951 C.ar    1  UNL1        0.0152
      6 C           6.8057   -4.1376   23.2642 C.ar    1  UNL1       -0.0188
      7 C           5.8773   -3.4281   24.2049 C.3     1  UNL1        0.0311
      8 C           7.8957   -7.1668   27.2064 C.ar    1  UNL1        0.1452
      9 C           7.8474   -6.8677   25.7374 C.ar    1  UNL1        0.0372
     10 C           7.8304   -5.4452   25.2618 C.ar    1  UNL1        0.0064
     11 C           7.8616   -4.3218   26.2552 C.ar    1  UNL1        0.0300
     12 C           7.9098   -4.6209   27.7243 C.ar    1  UNL1        0.1474
     13 F           7.9409   -3.4975   28.7178 F       1  UNL1       -0.2039
     14 C           7.9268   -6.0434   28.1999 C.ar    1  UNL1        0.1144
     15 C           7.9750   -6.3425   29.6690 C.2     1  UNL1        0.2479
     16 N           9.2022   -6.9630   30.2682 N.am    1  UNL1       -0.3252
     17 O           6.7961   -6.0211   30.5389 O.2     1  UNL1       -0.2702
     18 H           9.9760   -7.1739   29.6972 H       1  UNL1        0.1453
     19 H           9.2339   -7.1593   31.2324 H       1  UNL1        0.1453
     20 C           9.1715   -9.3988   27.5813 C.3     1  UNL1        0.2525
     21 O           7.9127   -8.5893   27.6820 O.3     1  UNL1       -0.4712
     22 C           5.7809   -2.8300   21.2666 C.ar    1  UNL1        0.0013
     23 C           6.1074   -1.3672   21.3263 C.ar    1  UNL1        0.0013
     24 C           5.1309   -0.3586   20.7978 C.ar    1  UNL1        0.0145
     25 C           3.8279   -0.8129   20.2098 C.ar    1  UNL1        0.0479
     26 C           3.5014   -2.2757   20.1502 C.ar    1  UNL1        0.0145
     27 C           4.4779   -3.2843   20.6786 C.ar    1  UNL1        0.0013
     28 N           2.8514    0.1957   19.6814 N.pl3   1  UNL1       -0.3046
     29 C           1.3860    0.0386   19.9608 C.3     1  UNL1        0.1081
     30 C           0.4094    1.0472   19.4324 C.3     1  UNL1        0.0938
     31 N           0.8982    2.2127   18.6246 N.3     1  UNL1       -0.2686
     32 C          -0.0783    3.2212   18.0961 C.3     1  UNL1        0.0897
     33 C           2.3636    2.3697   18.3452 C.3     1  UNL1        0.0938
     34 C           3.3402    1.3612   18.8736 C.3     1  UNL1        0.1081
@<TRIPOS>BOND
     1    20    21    1
     2    21     8    1
     3     8     9   ar
     4     9    10   ar
     5    10     1    1
     6     1     2   ar
     7     2     3   ar
     8     3     4   ar
     9     4     5   ar
    10     5    22    1
    11    22    23   ar
    12    23    24   ar
    13    24    25   ar
    14    25    28    1
    15    28    29    1
    16    29    30    1
    17    30    31    1
    18    31    32    1
    19    31    33    1
    20    33    34    1
    21    25    26   ar
    22    26    27   ar
    23     5     6   ar
    24     6     7    1
    25    10    11   ar
    26    11    12   ar
    27    12    13    1
    28    12    14   ar
    29    14    15    1
    30    15    16   am
    31    15    17    2
    32    14     8   ar
    33     6     1   ar
    34    27    22   ar
    35    34    28    1
    36    16    18    1
    37    16    19    1
@<TRIPOS>MOLECULE
*****
 34 37 0 0 0
SMALL
GASTEIGER

@<TRIPOS>ATOM
      1 C           7.2647   -4.0139   23.0143 C.ar    1  UNL1        0.0154
      2 C           8.2801   -4.3629   21.9668 C.ar    1  UNL1        0.0985
      3 N           8.1647   -3.7838   20.5880 N.ar    1  UNL1       -0.2423
      4 C           7.0339   -2.8556   20.2565 C.ar    1  UNL1        0.0985
      5 C           6.0185   -2.5066   21.3040 C.ar    1  UNL1        0.0152
      6 C           6.1340   -3.0858   22.6829 C.ar    1  UNL1       -0.0188
      7 C           5.1186   -2.7367   23.7304 C.3     1  UNL1        0.0311
      8 C           7.5959   -4.2634   26.9612 C.ar    1  UNL1        0.1452
      9 C           7.4804   -3.6843   25.5824 C.ar    1  UNL1        0.0372
     10 C           7.3802   -4.5931   24.3932 C.ar    1  UNL1        0.0064
     11 C           7.3954   -6.0809   24.5829 C.ar    1  UNL1        0.0300
     12 C           7.5109   -6.6600   25.9617 C.ar    1  UNL1        0.1474
     13 F           7.5261   -8.1479   26.1515 F       1  UNL1       -0.2039
     14 C           7.6111   -5.7512   27.1509 C.ar    1  UNL1        0.1144
     15 C           7.7265   -6.3304   28.5298 C.2     1  UNL1        0.2479
     16 N           6.7605   -5.9170   29.6002 N.am    1  UNL1       -0.3252
     17 O           8.8080   -7.3230   28.8382 O.2     1  UNL1       -0.2702
     18 H           6.0507   -5.2655   29.3977 H       1  UNL1        0.1453
     19 H           6.8362   -6.2971   30.5052 H       1  UNL1        0.1453
     20 C           8.8617   -2.4200   28.2839 C.3     1  UNL1        0.2525
     21 O           7.6961   -3.3546   28.1504 O.3     1  UNL1       -0.4712
     22 C           4.8877   -1.5785   20.9726 C.ar    1  UNL1        0.0013
     23 C           5.0598   -0.0976   21.1384 C.ar    1  UNL1        0.0013
     24 C           3.9289    0.8306   20.8071 C.ar    1  UNL1        0.0145
     25 C           2.6261    0.2779   20.3099 C.ar    1  UNL1        0.0479
     26 C           2.4541   -1.2030   20.1441 C.ar    1  UNL1        0.0145
     27 C           3.5849   -2.1311   20.4754 C.ar    1  UNL1        0.0013
     28 N           1.4953    1.2060   19.9785 N.pl3   1  UNL1       -0.3046
     29 C           0.4873    1.5652   21.0296 C.3     1  UNL1        0.1081
     30 C          -0.6435    2.4934   20.6983 C.3     1  UNL1        0.0938
     31 N          -0.7663    3.0623   19.3158 N.3     1  UNL1       -0.2686
     32 C          -1.8971    3.9905   18.9844 C.3     1  UNL1        0.0897
     33 C           0.2418    2.7031   18.2647 C.3     1  UNL1        0.0938
     34 C           1.3726    1.7750   18.5960 C.3     1  UNL1        0.1081
@<TRIPOS>BOND
     1    20    21    1
     2    21     8    1
     3     8     9   ar
     4     9    10   ar
     5    10     1    1
     6     1     2   ar
     7     2     3   ar
     8     3     4   ar
     9     4     5   ar
    10     5    22    1
    11    22    23   ar
    12    23    24   ar
    13    24    25   ar
    14    25    28    1
    15    28    29    1
    16    29    30    1
    17    30    31    1
    18    31    32    1
    19    31    33    1
    20    33    34    1
    21    25    26   ar
    22    26    27   ar
    23     5     6   ar
    24     6     7    1
    25    10    11   ar
    26    11    12   ar
    27    12    13    1
    28    12    14   ar
    29    14    15    1
    30    15    16   am
    31    15    17    2
    32    14     8   ar
    33     6     1   ar
    34    27    22   ar
    35    34    28    1
    36    16    18    1
    37    16    19    1
@<TRIPOS>MOLECULE
*****
 34 37 0 0 0
SMALL
GASTEIGER

@<TRIPOS>ATOM
      1 C           1.3673    1.0661   21.2129 C.ar    1  UNL1        0.0154
      2 C           0.2195    1.5346   20.3684 C.ar    1  UNL1        0.0985
      3 N          -0.8878    2.3361   20.9860 N.ar    1  UNL1       -0.2423
      4 C          -0.8474    2.6691   22.4480 C.ar    1  UNL1        0.0985
      5 C           0.3004    2.2006   23.2925 C.ar    1  UNL1        0.0152
      6 C           1.4078    1.3991   22.6748 C.ar    1  UNL1       -0.0188
      7 C           2.5556    0.9306   23.5193 C.3     1  UNL1        0.0311
      8 C           4.8250    0.1496   19.4939 C.ar    1  UNL1        0.1452
      9 C           3.7176    0.9510   20.1115 C.ar    1  UNL1        0.0372
     10 C           2.4747    0.2646   20.5952 C.ar    1  UNL1        0.0064
     11 C           2.3391   -1.2232   20.4614 C.ar    1  UNL1        0.0300
     12 C           3.4464   -2.0247   19.8438 C.ar    1  UNL1        0.1474
     13 F           3.3109   -3.5126   19.7099 F       1  UNL1       -0.2039
     14 C           4.6894   -1.3383   19.3601 C.ar    1  UNL1        0.1144
     15 C           5.7967   -2.1398   18.7424 C.2     1  UNL1        0.2479
     16 N           7.1844   -2.0607   19.3064 N.am    1  UNL1       -0.3252
     17 O           5.5164   -3.0203   17.5609 O.2     1  UNL1       -0.2702
     18 H           7.3684   -1.4828   20.0819 H       1  UNL1        0.1453
     19 H           7.9112   -2.5867   18.9011 H       1  UNL1        0.1453
     20 C           6.1430    1.3464   17.6017 C.3     1  UNL1        0.2525
     21 O           6.0679    0.8359   19.0102 O.3     1  UNL1       -0.4712
     22 C           0.3408    2.5336   24.7544 C.ar    1  UNL1        0.0013
     23 C          -0.2687    1.5961   25.7542 C.ar    1  UNL1        0.0013
     24 C          -0.2283    1.9291   27.2163 C.ar    1  UNL1        0.0145
     25 C           0.4217    3.1995   27.6785 C.ar    1  UNL1        0.0479
     26 C           1.0313    4.1369   26.6786 C.ar    1  UNL1        0.0145
     27 C           0.9908    3.8040   25.2166 C.ar    1  UNL1        0.0013
     28 N           0.4622    3.5324   29.1405 N.pl3   1  UNL1       -0.3046
     29 C           0.4006    4.9635   29.5857 C.3     1  UNL1        0.1081
     30 C           0.4411    5.2965   31.0478 C.3     1  UNL1        0.0938
     31 N           0.5431    4.1985   32.0645 N.3     1  UNL1       -0.2686
     32 C           0.5836    4.5314   33.5265 C.3     1  UNL1        0.0897
     33 C           0.6047    2.7673   31.6192 C.3     1  UNL1        0.0938
     34 C           0.5642    2.4344   30.1573 C.3     1  UNL1        0.1081
@<TRIPOS>BOND
     1    20    21    1
     2    21     8    1
     3     8     9   ar
     4     9    10   ar
     5    10     1    1
     6     1     2   ar
     7     2     3   ar
     8     3     4   ar
     9     4     5   ar
    10     5    22    1
    11    22    23   ar
    12    23    24   ar
    13    24    25   ar
    14    25    28    1
    15    28    29    1
    16    29    30    1
    17    30    31    1
    18    31    32    1
    19    31    33    1
    20    33    34    1
    21    25    26   ar
    22    26    27   ar
    23     5     6   ar
    24     6     7    1
    25    10    11   ar
    26    11    12   ar
    27    12    13    1
    28    12    14   ar
    29    14    15    1
    30    15    16   am
    31    15    17    2
    32    14     8   ar
    33     6     1   ar
    34    27    22   ar
    35    34    28    1
    36    16    18    1
    37    16    19    1
