@<TRIPOS>MOLECULE
*****
 31 34 0 0 0
SMALL
GASTEIGER

@<TRIPOS>ATOM
      1 N          -8.0032  -16.8591   24.6692 N.ar    1  UNL1       -0.3288
      2 C          -7.5068  -15.8673   25.6792 C.ar    1  UNL1        0.0335
      3 C          -8.3173  -15.2485   26.7793 C.3     1  UNL1        0.0497
      4 C          -6.0577  -15.6031   25.3959 C.ar    1  UNL1       -0.0086
      5 C          -5.1646  -14.6736   26.1630 C.3     1  UNL1        0.0322
      6 C          -5.6585  -16.4315   24.2108 C.ar    1  UNL1        0.0187
      7 C          -4.3554  -16.5793   23.4827 C.ar    1  UNL1        0.0388
      8 C          -4.2548  -17.5033   22.3054 C.ar    1  UNL1        0.1515
      9 N          -5.4572  -18.2796   21.8563 N.ar    1  UNL1       -0.2119
     10 C          -6.7602  -18.1318   22.5844 C.ar    1  UNL1        0.1462
     11 C          -6.8608  -17.2078   23.7617 C.ar    1  UNL1        0.0913
     12 N          -2.9517  -17.6511   21.5772 N.ar    1  UNL1       -0.2577
     13 C          -2.1296  -16.4380   21.2572 C.ar    1  UNL1        0.0844
     14 C          -0.8266  -16.5858   20.5291 C.ar    1  UNL1        0.0193
     15 C          -0.3456  -17.9467   20.1209 C.ar    1  UNL1        0.0064
     16 C          -1.1677  -19.1599   20.4409 C.ar    1  UNL1        0.0612
     17 C          -2.4708  -19.0120   21.1691 C.ar    1  UNL1        0.2659
     18 O          -3.2929  -20.2252   21.4892 O.2     1  UNL1       -0.2666
     19 C          -9.7487  -18.6799   25.2919 C.3     1  UNL1        0.0265
     20 C          -9.3971  -17.4061   24.5820 C.3     1  UNL1        0.1059
     21 N          -7.9626  -18.9080   22.1353 N.pl3   1  UNL1       -0.3133
     22 H          -8.1480  -19.7949   22.5205 H       1  UNL1        0.1485
     23 C          -8.8824  -18.3331   21.0994 C.3     1  UNL1        0.1148
     24 C         -10.2241  -17.7969   21.5023 C.ar    1  UNL1       -0.0105
     25 C         -10.4239  -16.3189   21.6623 C.ar    1  UNL1       -0.0245
     26 C          -9.2820  -15.3771   21.4193 C.3     1  UNL1        0.0307
     27 C         -11.7656  -15.7827   22.0653 C.ar    1  UNL1       -0.0045
     28 C         -12.9075  -16.7246   22.3083 C.ar    1  UNL1       -0.0007
     29 C         -12.7077  -18.2025   22.1483 C.ar    1  UNL1       -0.0045
     30 C         -11.3660  -18.7387   21.7454 C.ar    1  UNL1       -0.0245
     31 C         -11.1662  -20.2167   21.5854 C.3     1  UNL1        0.0307
@<TRIPOS>BOND
     1    19    20    1
     2    20     1    1
     3     1     2   ar
     4     2     3    1
     5     2     4   ar
     6     4     5    1
     7     4     6   ar
     8     6     7   ar
     9     7     8   ar
    10     8    12    1
    11    12    13   ar
    12    13    14   ar
    13    14    15   ar
    14    15    16   ar
    15    16    17   ar
    16    17    18    2
    17     8     9   ar
    18     9    10   ar
    19    10    21    1
    20    21    23    1
    21    23    24    1
    22    24    25   ar
    23    25    26    1
    24    25    27   ar
    25    27    28   ar
    26    28    29   ar
    27    29    30   ar
    28    30    31    1
    29    10    11   ar
    30    11     1   ar
    31    11     6   ar
    32    17    12   ar
    33    30    24   ar
    34    21    22    1
@<TRIPOS>MOLECULE
*****
 31 34 0 0 0
SMALL
GASTEIGER

@<TRIPOS>ATOM
      1 N          -8.0033  -16.8588   24.6692 N.ar    1  UNL1       -0.3288
      2 C          -7.5076  -15.8669   25.6793 C.ar    1  UNL1        0.0335
      3 C          -8.3186  -15.2481   26.7790 C.3     1  UNL1        0.0497
      4 C          -6.0585  -15.6023   25.3965 C.ar    1  UNL1       -0.0086
      5 C          -5.1658  -14.6725   26.1638 C.3     1  UNL1        0.0322
      6 C          -5.6586  -16.4307   24.2117 C.ar    1  UNL1        0.0187
      7 C          -4.3552  -16.5783   23.4840 C.ar    1  UNL1        0.0388
      8 C          -4.2539  -17.5024   22.3069 C.ar    1  UNL1        0.1515
      9 N          -5.4560  -18.2790   21.8574 N.ar    1  UNL1       -0.2119
     10 C          -6.7593  -18.1315   22.5851 C.ar    1  UNL1        0.1462
     11 C          -6.8606  -17.2073   23.7622 C.ar    1  UNL1        0.0913
     12 N          -2.9506  -17.6499   21.5792 N.ar    1  UNL1       -0.2577
     13 C          -2.1282  -16.4367   21.2601 C.ar    1  UNL1        0.0844
     14 C          -0.8249  -16.5842   20.5325 C.ar    1  UNL1        0.0193
     15 C          -0.3439  -17.9450   20.1238 C.ar    1  UNL1        0.0064
     16 C          -1.1662  -19.1583   20.4428 C.ar    1  UNL1        0.0612
     17 C          -2.4696  -19.0107   21.1705 C.ar    1  UNL1        0.2659
     18 O          -3.2920  -20.2239   21.4895 O.2     1  UNL1       -0.2666
     19 C          -9.7478  -18.6819   25.2886 C.3     1  UNL1        0.0265
     20 C          -9.3971  -17.4062   24.5816 C.3     1  UNL1        0.1059
     21 N          -7.9613  -18.9081   22.1356 N.pl3   1  UNL1       -0.3133
     22 H          -8.1470  -19.7946   22.5212 H       1  UNL1        0.1485
     23 C          -8.8804  -18.3339   21.0985 C.3     1  UNL1        0.1148
     24 C         -10.2218  -17.7962   21.5003 C.ar    1  UNL1       -0.0105
     25 C         -11.3649  -18.7368   21.7428 C.ar    1  UNL1       -0.0245
     26 C         -11.1665  -20.2150   21.5835 C.3     1  UNL1        0.0307
     27 C         -12.7064  -18.1991   22.1446 C.ar    1  UNL1       -0.0045
     28 C         -12.9047  -16.7207   22.3039 C.ar    1  UNL1       -0.0007
     29 C         -11.7617  -15.7802   22.0614 C.ar    1  UNL1       -0.0045
     30 C         -10.4202  -16.3179   21.6596 C.ar    1  UNL1       -0.0245
     31 C          -9.2772  -15.3774   21.4171 C.3     1  UNL1        0.0307
@<TRIPOS>BOND
     1    19    20    1
     2    20     1    1
     3     1     2   ar
     4     2     3    1
     5     2     4   ar
     6     4     5    1
     7     4     6   ar
     8     6     7   ar
     9     7     8   ar
    10     8    12    1
    11    12    13   ar
    12    13    14   ar
    13    14    15   ar
    14    15    16   ar
    15    16    17   ar
    16    17    18    2
    17     8     9   ar
    18     9    10   ar
    19    10    21    1
    20    21    23    1
    21    23    24    1
    22    24    25   ar
    23    25    26    1
    24    25    27   ar
    25    27    28   ar
    26    28    29   ar
    27    29    30   ar
    28    30    31    1
    29    10    11   ar
    30    11     1   ar
    31    11     6   ar
    32    17    12   ar
    33    30    24   ar
    34    21    22    1
@<TRIPOS>MOLECULE
*****
 31 34 0 0 0
SMALL
GASTEIGER

@<TRIPOS>ATOM
      1 N          -4.4494  -19.2032   21.2120 N.ar    1  UNL1       -0.3288
      2 C          -4.6179  -20.3792   20.2962 C.ar    1  UNL1        0.0335
      3 C          -3.5145  -21.1213   19.6021 C.3     1  UNL1        0.0497
      4 C          -6.0834  -20.6828   20.1966 C.ar    1  UNL1       -0.0086
      5 C          -6.7029  -21.7819   19.3852 C.3     1  UNL1        0.0322
      6 C          -6.8207  -19.6945   21.0507 C.ar    1  UNL1        0.0187
      7 C          -8.2812  -19.5091   21.3380 C.ar    1  UNL1        0.0388
      8 C          -8.7318  -18.4091   22.2529 C.ar    1  UNL1        0.1515
      9 N          -7.7219  -17.4946   22.8805 N.ar    1  UNL1       -0.2119
     10 C          -6.2614  -17.6801   22.5931 C.ar    1  UNL1        0.1462
     11 C          -5.8109  -18.7800   21.6782 C.ar    1  UNL1        0.0913
     12 N         -10.1923  -18.2237   22.5403 N.ar    1  UNL1       -0.2577
     13 C         -10.7530  -18.6334   23.8699 C.ar    1  UNL1        0.0844
     14 C         -12.2134  -18.4479   24.1574 C.ar    1  UNL1        0.0193
     15 C         -13.1133  -17.8528   23.1152 C.ar    1  UNL1        0.0064
     16 C         -12.5526  -17.4431   21.7856 C.ar    1  UNL1        0.0612
     17 C         -11.0921  -17.6285   21.4982 C.ar    1  UNL1        0.2659
     18 O         -10.5314  -17.2188   20.1686 O.2     1  UNL1       -0.2666
     19 C          -2.4120  -17.7101   20.6036 C.3     1  UNL1        0.0265
     20 C          -3.1480  -18.5628   21.5943 C.3     1  UNL1        0.1059
     21 N          -5.2515  -16.7656   23.2207 N.pl3   1  UNL1       -0.3133
     22 H          -4.2964  -17.0040   23.2078 H       1  UNL1        0.1485
     23 C          -5.6968  -15.4878   23.8680 C.3     1  UNL1        0.1148
     24 C          -6.5327  -15.5293   25.1128 C.ar    1  UNL1       -0.0105
     25 C          -7.9874  -15.1682   25.0517 C.ar    1  UNL1       -0.0245
     26 C          -8.6061  -14.7658   23.7459 C.3     1  UNL1        0.0307
     27 C          -8.8233  -15.2097   26.2965 C.ar    1  UNL1       -0.0045
     28 C          -8.2046  -15.6122   27.6024 C.ar    1  UNL1       -0.0007
     29 C          -6.7500  -15.9732   27.6634 C.ar    1  UNL1       -0.0045
     30 C          -5.9141  -15.9317   26.4186 C.ar    1  UNL1       -0.0245
     31 C          -4.4595  -16.2927   26.4796 C.3     1  UNL1        0.0307
@<TRIPOS>BOND
     1    19    20    1
     2    20     1    1
     3     1     2   ar
     4     2     3    1
     5     2     4   ar
     6     4     5    1
     7     4     6   ar
     8     6     7   ar
     9     7     8   ar
    10     8    12    1
    11    12    13   ar
    12    13    14   ar
    13    14    15   ar
    14    15    16   ar
    15    16    17   ar
    16    17    18    2
    17     8     9   ar
    18     9    10   ar
    19    10    21    1
    20    21    23    1
    21    23    24    1
    22    24    25   ar
    23    25    26    1
    24    25    27   ar
    25    27    28   ar
    26    28    29   ar
    27    29    30   ar
    28    30    31    1
    29    10    11   ar
    30    11     1   ar
    31    11     6   ar
    32    17    12   ar
    33    30    24   ar
    34    21    22    1
@<TRIPOS>MOLECULE
*****
 31 34 0 0 0
SMALL
GASTEIGER

@<TRIPOS>ATOM
      1 N          -4.4497  -19.2162   21.2167 N.ar    1  UNL1       -0.3288
      2 C          -4.6233  -20.3936   20.3037 C.ar    1  UNL1        0.0335
      3 C          -3.5235  -21.1392   19.6077 C.3     1  UNL1        0.0497
      4 C          -6.0897  -20.6943   20.2089 C.ar    1  UNL1       -0.0086
      5 C          -6.7139  -21.7936   19.4014 C.3     1  UNL1        0.0322
      6 C          -6.8225  -19.7028   21.0633 C.ar    1  UNL1        0.0187
      7 C          -8.2817  -19.5138   21.3546 C.ar    1  UNL1        0.0388
      8 C          -8.7273  -18.4113   22.2688 C.ar    1  UNL1        0.1515
      9 N          -7.7137  -17.4977   22.8917 N.ar    1  UNL1       -0.2119
     10 C          -6.2545  -17.6867   22.6004 C.ar    1  UNL1        0.1462
     11 C          -5.8089  -18.7893   21.6862 C.ar    1  UNL1        0.0913
     12 N         -10.1866  -18.2222   22.5601 N.ar    1  UNL1       -0.2577
     13 C         -10.7517  -18.6637   23.8777 C.ar    1  UNL1        0.0844
     14 C         -12.2109  -18.4747   24.1690 C.ar    1  UNL1        0.0193
     15 C         -13.1051  -17.8442   23.1429 C.ar    1  UNL1        0.0064
     16 C         -12.5400  -17.4028   21.8253 C.ar    1  UNL1        0.0612
     17 C         -11.0807  -17.5918   21.5340 C.ar    1  UNL1        0.2659
     18 O         -10.5157  -17.1504   20.2165 O.2     1  UNL1       -0.2666
     19 C          -2.4134  -17.7246   20.6012 C.3     1  UNL1        0.0265
     20 C          -3.1458  -18.5778   21.5941 C.3     1  UNL1        0.1059
     21 N          -5.2408  -16.7732   23.2233 N.pl3   1  UNL1       -0.3133
     22 H          -4.2859  -17.0121   23.2052 H       1  UNL1        0.1485
     23 C          -5.6821  -15.4956   23.8737 C.3     1  UNL1        0.1148
     24 C          -6.5274  -15.5375   25.1121 C.ar    1  UNL1       -0.0105
     25 C          -5.9191  -15.9426   26.4221 C.ar    1  UNL1       -0.0245
     26 C          -4.4655  -16.3058   26.4936 C.3     1  UNL1        0.0307
     27 C          -6.7645  -15.9844   27.6605 C.ar    1  UNL1       -0.0045
     28 C          -8.2181  -15.6212   27.5889 C.ar    1  UNL1       -0.0007
     29 C          -8.8264  -15.2162   26.2790 C.ar    1  UNL1       -0.0045
     30 C          -7.9810  -15.1743   25.0406 C.ar    1  UNL1       -0.0245
     31 C          -8.5892  -14.7693   23.7307 C.3     1  UNL1        0.0307
@<TRIPOS>BOND
     1    19    20    1
     2    20     1    1
     3     1     2   ar
     4     2     3    1
     5     2     4   ar
     6     4     5    1
     7     4     6   ar
     8     6     7   ar
     9     7     8   ar
    10     8    12    1
    11    12    13   ar
    12    13    14   ar
    13    14    15   ar
    14    15    16   ar
    15    16    17   ar
    16    17    18    2
    17     8     9   ar
    18     9    10   ar
    19    10    21    1
    20    21    23    1
    21    23    24    1
    22    24    25   ar
    23    25    26    1
    24    25    27   ar
    25    27    28   ar
    26    28    29   ar
    27    29    30   ar
    28    30    31    1
    29    10    11   ar
    30    11     1   ar
    31    11     6   ar
    32    17    12   ar
    33    30    24   ar
    34    21    22    1
@<TRIPOS>MOLECULE
*****
 31 34 0 0 0
SMALL
GASTEIGER

@<TRIPOS>ATOM
      1 N          -3.0711  -18.2364   21.7005 N.ar    1  UNL1       -0.3288
      2 C          -2.5972  -19.3592   20.8260 C.ar    1  UNL1        0.0335
      3 C          -1.1701  -19.6649   20.4795 C.3     1  UNL1        0.0497
      4 C          -3.8009  -20.1227   20.3590 C.ar    1  UNL1       -0.0086
      5 C          -3.7889  -21.3259   19.4635 C.3     1  UNL1        0.0322
      6 C          -5.0187  -19.4717   20.9448 C.ar    1  UNL1        0.0187
      7 C          -6.4801  -19.7899   20.8304 C.ar    1  UNL1        0.0388
      8 C          -7.4904  -18.9423   21.5451 C.ar    1  UNL1        0.1515
      9 N          -7.0393  -17.7765   22.3741 N.ar    1  UNL1       -0.2119
     10 C          -5.5780  -17.4582   22.4885 C.ar    1  UNL1        0.1462
     11 C          -4.5677  -18.3059   21.7739 C.ar    1  UNL1        0.0913
     12 N          -8.9518  -19.2605   21.4307 N.ar    1  UNL1       -0.2577
     13 C          -9.6893  -18.9527   20.1612 C.ar    1  UNL1        0.0844
     14 C         -11.1506  -19.2709   20.0468 C.ar    1  UNL1        0.0193
     15 C         -11.8746  -19.8968   21.2018 C.ar    1  UNL1        0.0064
     16 C         -11.1372  -20.2046   22.4713 C.ar    1  UNL1        0.0612
     17 C          -9.6758  -19.8864   22.5857 C.ar    1  UNL1        0.2659
     18 O          -8.9383  -20.1942   23.8551 O.2     1  UNL1       -0.2666
     19 C          -1.8002  -15.9706   21.6583 C.3     1  UNL1        0.0265
     20 C          -2.2011  -17.2220   22.3819 C.3     1  UNL1        0.1059
     21 N          -5.1269  -16.2924   23.3176 N.pl3   1  UNL1       -0.3133
     22 H          -4.1797  -16.2063   23.5718 H       1  UNL1        0.1485
     23 C          -6.1190  -15.2577   23.7593 C.3     1  UNL1        0.1148
     24 C          -6.8433  -15.4213   25.0626 C.ar    1  UNL1       -0.0105
     25 C          -6.1086  -15.2365   26.3573 C.ar    1  UNL1       -0.0245
     26 C          -4.6497  -14.8880   26.3487 C.3     1  UNL1        0.0307
     27 C          -6.8330  -15.4001   27.6606 C.ar    1  UNL1       -0.0045
     28 C          -8.2920  -15.7486   27.6692 C.ar    1  UNL1       -0.0007
     29 C          -9.0265  -15.9334   26.3745 C.ar    1  UNL1       -0.0045
     30 C          -8.3022  -15.7698   25.0713 C.ar    1  UNL1       -0.0245
     31 C          -9.0368  -15.9546   23.7766 C.3     1  UNL1        0.0307
@<TRIPOS>BOND
     1    19    20    1
     2    20     1    1
     3     1     2   ar
     4     2     3    1
     5     2     4   ar
     6     4     5    1
     7     4     6   ar
     8     6     7   ar
     9     7     8   ar
    10     8    12    1
    11    12    13   ar
    12    13    14   ar
    13    14    15   ar
    14    15    16   ar
    15    16    17   ar
    16    17    18    2
    17     8     9   ar
    18     9    10   ar
    19    10    21    1
    20    21    23    1
    21    23    24    1
    22    24    25   ar
    23    25    26    1
    24    25    27   ar
    25    27    28   ar
    26    28    29   ar
    27    29    30   ar
    28    30    31    1
    29    10    11   ar
    30    11     1   ar
    31    11     6   ar
    32    17    12   ar
    33    30    24   ar
    34    21    22    1
@<TRIPOS>MOLECULE
*****
 31 34 0 0 0
SMALL
GASTEIGER

@<TRIPOS>ATOM
      1 N          -8.4051  -16.2958   24.4133 N.ar    1  UNL1       -0.3288
      2 C          -7.7636  -15.6512   25.6061 C.ar    1  UNL1        0.0335
      3 C          -8.4819  -14.9707   26.7335 C.3     1  UNL1        0.0497
      4 C          -6.2776  -15.8066   25.4737 C.ar    1  UNL1       -0.0086
      5 C          -5.2489  -15.3088   26.4453 C.3     1  UNL1        0.0322
      6 C          -6.0007  -16.5473   24.1990 C.ar    1  UNL1        0.0187
      7 C          -4.7212  -16.9855   23.5504 C.ar    1  UNL1        0.0388
      8 C          -4.7566  -17.7260   22.2465 C.ar    1  UNL1        0.1515
      9 N          -6.0715  -18.0284   21.5911 N.ar    1  UNL1       -0.2119
     10 C          -7.3511  -17.5902   22.2397 C.ar    1  UNL1        0.1462
     11 C          -7.3157  -16.8496   23.5436 C.ar    1  UNL1        0.0913
     12 N          -3.4770  -18.1642   21.5978 N.ar    1  UNL1       -0.2577
     13 C          -3.2667  -19.6092   21.2544 C.ar    1  UNL1        0.0844
     14 C          -1.9872  -20.0474   20.6058 C.ar    1  UNL1        0.0193
     15 C          -0.9179  -19.0407   20.3005 C.ar    1  UNL1        0.0064
     16 C          -1.1282  -17.5957   20.6439 C.ar    1  UNL1        0.0612
     17 C          -2.4077  -17.1575   21.2925 C.ar    1  UNL1        0.2659
     18 O          -2.6180  -15.7125   21.6359 O.2     1  UNL1       -0.2666
     19 C         -10.5125  -15.4130   23.1764 C.3     1  UNL1        0.0265
     20 C          -9.8777  -16.3731   24.1384 C.3     1  UNL1        0.1059
     21 N          -8.6660  -17.8925   21.5844 N.pl3   1  UNL1       -0.3133
     22 H          -8.9804  -17.3392   20.8333 H       1  UNL1        0.1485
     23 C          -9.5019  -19.0380   22.0734 C.3     1  UNL1        0.1148
     24 C         -10.8624  -18.7810   22.6505 C.ar    1  UNL1       -0.0105
     25 C         -11.9270  -18.1448   21.8067 C.ar    1  UNL1       -0.0245
     26 C         -11.6312  -17.7658   20.3859 C.3     1  UNL1        0.0307
     27 C         -13.2875  -17.8878   22.3838 C.ar    1  UNL1       -0.0045
     28 C         -13.5833  -18.2669   23.8047 C.ar    1  UNL1       -0.0007
     29 C         -12.5187  -18.9030   24.6484 C.ar    1  UNL1       -0.0045
     30 C         -11.1582  -19.1600   24.0713 C.ar    1  UNL1       -0.0245
     31 C         -10.0935  -19.7961   24.9150 C.3     1  UNL1        0.0307
@<TRIPOS>BOND
     1    19    20    1
     2    20     1    1
     3     1     2   ar
     4     2     3    1
     5     2     4   ar
     6     4     5    1
     7     4     6   ar
     8     6     7   ar
     9     7     8   ar
    10     8    12    1
    11    12    13   ar
    12    13    14   ar
    13    14    15   ar
    14    15    16   ar
    15    16    17   ar
    16    17    18    2
    17     8     9   ar
    18     9    10   ar
    19    10    21    1
    20    21    23    1
    21    23    24    1
    22    24    25   ar
    23    25    26    1
    24    25    27   ar
    25    27    28   ar
    26    28    29   ar
    27    29    30   ar
    28    30    31    1
    29    10    11   ar
    30    11     1   ar
    31    11     6   ar
    32    17    12   ar
    33    30    24   ar
    34    21    22    1
@<TRIPOS>MOLECULE
*****
 31 34 0 0 0
SMALL
GASTEIGER

@<TRIPOS>ATOM
      1 N         -18.5882   -5.4805   19.3358 N.ar    1  UNL1       -0.3288
      2 C         -19.0632   -6.8367   19.7661 C.ar    1  UNL1        0.0335
      3 C         -20.4570   -7.1875   20.1954 C.3     1  UNL1        0.0497
      4 C         -17.8997   -7.7804   19.6917 C.ar    1  UNL1       -0.0086
      5 C         -17.9257   -9.2407   20.0336 C.3     1  UNL1        0.0322
      6 C         -16.7056   -7.0076   19.2155 C.ar    1  UNL1        0.0187
      7 C         -15.2858   -7.4145   18.9537 C.ar    1  UNL1        0.0388
      8 C         -14.2916   -6.3999   18.4719 C.ar    1  UNL1        0.1515
      9 N         -14.7171   -4.9785   18.2520 N.ar    1  UNL1       -0.2119
     10 C         -16.1369   -4.5716   18.5137 C.ar    1  UNL1        0.1462
     11 C         -17.1312   -5.5861   18.9955 C.ar    1  UNL1        0.0913
     12 N         -12.8717   -6.8068   18.2101 N.ar    1  UNL1       -0.2577
     13 C         -11.7914   -6.4245   19.1780 C.ar    1  UNL1        0.0844
     14 C         -10.3716   -6.8314   18.9162 C.ar    1  UNL1        0.0193
     15 C         -10.0320   -7.6206   17.6866 C.ar    1  UNL1        0.0064
     16 C         -11.1124   -8.0029   16.7187 C.ar    1  UNL1        0.0612
     17 C         -12.5322   -7.5960   16.9806 C.ar    1  UNL1        0.2659
     18 O         -13.6126   -7.9783   16.0127 O.2     1  UNL1       -0.2666
     19 C         -19.3012   -3.1846   20.3212 C.3     1  UNL1        0.0265
     20 C         -19.4236   -4.2370   19.2593 C.3     1  UNL1        0.1059
     21 N         -16.5624   -3.1501   18.2938 N.pl3   1  UNL1       -0.3133
     22 H         -17.2945   -2.9467   17.6677 H       1  UNL1        0.1485
     23 C         -15.8726   -2.0386   19.0276 C.3     1  UNL1        0.1148
     24 C         -14.4780   -1.6398   18.6455 C.ar    1  UNL1       -0.0105
     25 C         -14.2488   -0.7707   17.4445 C.ar    1  UNL1       -0.0245
     26 C         -15.4143   -0.3005   16.6257 C.3     1  UNL1        0.0307
     27 C         -12.8542   -0.3719   17.0625 C.ar    1  UNL1       -0.0045
     28 C         -11.6887   -0.8422   17.8814 C.ar    1  UNL1       -0.0007
     29 C         -11.9179   -1.7112   19.0823 C.ar    1  UNL1       -0.0045
     30 C         -13.3125   -2.1100   19.4644 C.ar    1  UNL1       -0.0245
     31 C         -13.5417   -2.9790   20.6653 C.3     1  UNL1        0.0307
@<TRIPOS>BOND
     1    19    20    1
     2    20     1    1
     3     1     2   ar
     4     2     3    1
     5     2     4   ar
     6     4     5    1
     7     4     6   ar
     8     6     7   ar
     9     7     8   ar
    10     8    12    1
    11    12    13   ar
    12    13    14   ar
    13    14    15   ar
    14    15    16   ar
    15    16    17   ar
    16    17    18    2
    17     8     9   ar
    18     9    10   ar
    19    10    21    1
    20    21    23    1
    21    23    24    1
    22    24    25   ar
    23    25    26    1
    24    25    27   ar
    25    27    28   ar
    26    28    29   ar
    27    29    30   ar
    28    30    31    1
    29    10    11   ar
    30    11     1   ar
    31    11     6   ar
    32    17    12   ar
    33    30    24   ar
    34    21    22    1
@<TRIPOS>MOLECULE
*****
 31 34 0 0 0
SMALL
GASTEIGER

@<TRIPOS>ATOM
      1 N           3.2723   -0.5061   26.4370 N.ar    1  UNL1       -0.3288
      2 C           2.2661    0.5523   26.0946 C.ar    1  UNL1        0.0335
      3 C           1.5211    1.4104   27.0737 C.3     1  UNL1        0.0497
      4 C           2.1357    0.6020   24.6011 C.ar    1  UNL1       -0.0086
      5 C           1.2374    1.5185   23.8245 C.3     1  UNL1        0.0322
      6 C           3.0613   -0.4257   24.0205 C.ar    1  UNL1        0.0187
      7 C           3.3552   -0.8264   22.6052 C.ar    1  UNL1        0.0388
      8 C           4.3516   -1.9120   22.3247 C.ar    1  UNL1        0.1515
      9 N           5.0541   -2.5968   23.4594 N.ar    1  UNL1       -0.2119
     10 C           4.7601   -2.1961   24.8746 C.ar    1  UNL1        0.1462
     11 C           3.7638   -1.1106   25.1552 C.ar    1  UNL1        0.0913
     12 N           4.6455   -2.3127   20.9093 N.ar    1  UNL1       -0.2577
     13 C           5.0268   -1.2717   19.8989 C.ar    1  UNL1        0.0844
     14 C           5.3207   -1.6724   18.4836 C.ar    1  UNL1        0.0193
     15 C           5.2334   -3.1142   18.0788 C.ar    1  UNL1        0.0064
     16 C           4.8522   -4.1551   19.0892 C.ar    1  UNL1        0.0612
     17 C           4.5582   -3.7544   20.5045 C.ar    1  UNL1        0.2659
     18 O           4.1770   -4.7954   21.5150 O.2     1  UNL1       -0.2666
     19 C           4.6874   -0.0319   28.5638 C.3     1  UNL1        0.0265
     20 C           3.7102   -0.8923   27.8187 C.3     1  UNL1        0.1059
     21 N           5.4626   -2.8810   26.0093 N.pl3   1  UNL1       -0.3133
     22 H           4.9867   -3.0458   26.8552 H       1  UNL1        0.1485
     23 C           6.8902   -3.3147   25.8552 C.3     1  UNL1        0.1148
     24 C           7.2132   -4.7595   25.6135 C.ar    1  UNL1       -0.0105
     25 C           6.9137   -5.7818   26.6696 C.ar    1  UNL1       -0.0245
     26 C           6.2913   -5.3593   27.9673 C.3     1  UNL1        0.0307
     27 C           7.2367   -7.2265   26.4279 C.ar    1  UNL1       -0.0045
     28 C           7.8592   -7.6490   25.1301 C.ar    1  UNL1       -0.0007
     29 C           8.1586   -6.6267   24.0741 C.ar    1  UNL1       -0.0045
     30 C           7.8356   -5.1819   24.3158 C.ar    1  UNL1       -0.0245
     31 C           8.1351   -4.1596   23.2598 C.3     1  UNL1        0.0307
@<TRIPOS>BOND
     1    19    20    1
     2    20     1    1
     3     1     2   ar
     4     2     3    1
     5     2     4   ar
     6     4     5    1
     7     4     6   ar
     8     6     7   ar
     9     7     8   ar
    10     8    12    1
    11    12    13   ar
    12    13    14   ar
    13    14    15   ar
    14    15    16   ar
    15    16    17   ar
    16    17    18    2
    17     8     9   ar
    18     9    10   ar
    19    10    21    1
    20    21    23    1
    21    23    24    1
    22    24    25   ar
    23    25    26    1
    24    25    27   ar
    25    27    28   ar
    26    28    29   ar
    27    29    30   ar
    28    30    31    1
    29    10    11   ar
    30    11     1   ar
    31    11     6   ar
    32    17    12   ar
    33    30    24   ar
    34    21    22    1
@<TRIPOS>MOLECULE
*****
 31 34 0 0 0
SMALL
GASTEIGER

@<TRIPOS>ATOM
      1 N         -18.1259   -4.9891   19.4518 N.ar    1  UNL1       -0.3288
      2 C         -18.5666   -6.4023   19.6939 C.ar    1  UNL1        0.0335
      3 C         -19.9715   -6.8541   19.9620 C.3     1  UNL1        0.0497
      4 C         -17.3555   -7.2844   19.6208 C.ar    1  UNL1       -0.0086
      5 C         -17.3369   -8.7732   19.8030 C.3     1  UNL1        0.0322
      6 C         -16.1664   -6.4164   19.3335 C.ar    1  UNL1        0.0187
      7 C         -14.7116   -6.7345   19.1535 C.ar    1  UNL1        0.0388
      8 C         -13.7330   -5.6339   18.8691 C.ar    1  UNL1        0.1515
      9 N         -14.2091   -4.2153   18.7647 N.ar    1  UNL1       -0.2119
     10 C         -15.6638   -3.8973   18.9447 C.ar    1  UNL1        0.1462
     11 C         -16.6425   -4.9978   19.2291 C.ar    1  UNL1        0.0913
     12 N         -12.2781   -5.9519   18.6891 N.ar    1  UNL1       -0.2577
     13 C         -11.8608   -7.3133   18.2174 C.ar    1  UNL1        0.0844
     14 C         -10.4060   -7.6314   18.0374 C.ar    1  UNL1        0.0193
     15 C          -9.3685   -6.5880   18.3292 C.ar    1  UNL1        0.0064
     16 C          -9.7858   -5.2267   18.8009 C.ar    1  UNL1        0.0612
     17 C         -11.2407   -4.9086   18.9809 C.ar    1  UNL1        0.2659
     18 O         -11.6580   -3.5473   19.4526 O.2     1  UNL1       -0.2666
     19 C         -19.0958   -2.8939   20.6432 C.3     1  UNL1        0.0265
     20 C         -19.0128   -3.7795   19.4353 C.3     1  UNL1        0.1059
     21 N         -16.1399   -2.4787   18.8402 N.pl3   1  UNL1       -0.3133
     22 H         -16.7817   -2.2252   18.1380 H       1  UNL1        0.1485
     23 C         -15.6382   -1.4462   19.8057 C.3     1  UNL1        0.1148
     24 C         -15.4809   -0.0210   19.3651 C.ar    1  UNL1       -0.0105
     25 C         -14.3268    0.3706   18.4906 C.ar    1  UNL1       -0.0245
     26 C         -13.3301   -0.6629   18.0567 C.3     1  UNL1        0.0307
     27 C         -14.1696    1.7958   18.0500 C.ar    1  UNL1       -0.0045
     28 C         -15.1664    2.8294   18.4840 C.ar    1  UNL1       -0.0007
     29 C         -16.3204    2.4377   19.3585 C.ar    1  UNL1       -0.0045
     30 C         -16.4776    1.0125   19.7991 C.ar    1  UNL1       -0.0245
     31 C         -17.6316    0.6209   20.6736 C.3     1  UNL1        0.0307
@<TRIPOS>BOND
     1    19    20    1
     2    20     1    1
     3     1     2   ar
     4     2     3    1
     5     2     4   ar
     6     4     5    1
     7     4     6   ar
     8     6     7   ar
     9     7     8   ar
    10     8    12    1
    11    12    13   ar
    12    13    14   ar
    13    14    15   ar
    14    15    16   ar
    15    16    17   ar
    16    17    18    2
    17     8     9   ar
    18     9    10   ar
    19    10    21    1
    20    21    23    1
    21    23    24    1
    22    24    25   ar
    23    25    26    1
    24    25    27   ar
    25    27    28   ar
    26    28    29   ar
    27    29    30   ar
    28    30    31    1
    29    10    11   ar
    30    11     1   ar
    31    11     6   ar
    32    17    12   ar
    33    30    24   ar
    34    21    22    1
