@<TRIPOS>MOLECULE
*****
 23 25 0 0 0
SMALL
GASTEIGER

@<TRIPOS>ATOM
      1 O          -9.4242  -19.6332   20.9559 O.2     1  UNL1       -0.2522
      2 C          -8.4702  -18.9430   21.8851 C.2     1  UNL1        0.3098
      3 N          -8.9933  -18.0362   22.9593 N.am    1  UNL1       -0.2381
      4 N          -6.9930  -19.1596   21.7400 N.am    1  UNL1       -0.2639
      5 C          -6.4699  -20.0664   20.6658 C.3     1  UNL1        0.0950
      6 C          -4.9927  -20.2830   20.5208 C.3     1  UNL1        0.0220
      7 C          -4.0387  -19.5928   21.4500 C.3     1  UNL1        0.0093
      8 C          -4.5618  -18.6860   22.5242 C.3     1  UNL1        0.0220
      9 C          -6.0390  -18.4694   22.6692 C.3     1  UNL1        0.0950
     10 H          -8.3672  -17.5832   23.5692 H       1  UNL1        0.1593
     11 C         -10.4705  -17.8196   23.1044 C.ar    1  UNL1        0.2239
     12 N         -11.1528  -16.7461   22.3094 N.ar    1  UNL1       -0.2119
     13 C         -12.6299  -16.5295   22.4545 C.ar    1  UNL1        0.1034
     14 C         -13.4248  -17.3865   23.3946 C.ar    1  UNL1        0.0414
     15 C         -12.7426  -18.4600   24.1896 C.ar    1  UNL1        0.1034
     16 N         -11.2655  -18.6766   24.0445 N.ar    1  UNL1       -0.2119
     17 C          -2.5615  -19.8094   21.3049 C.3     1  UNL1        0.0453
     18 C          -1.7456  -18.8747   20.4619 C.ar    1  UNL1        0.0541
     19 C          -1.9961  -18.5405   19.0212 C.ar    1  UNL1        0.1131
     20 N          -0.9413  -17.5693   18.5805 N.ar    1  UNL1       -0.2229
     21 C          -0.0389  -17.3033   19.7488 C.ar    1  UNL1        0.1748
     22 N          -0.5360  -18.1101   20.9115 N.ar    1  UNL1       -0.3382
     23 H          -0.1382  -18.1336   21.8118 H       1  UNL1        0.1672
@<TRIPOS>BOND
     1     1     2    2
     2     2     3   am
     3     3    11    1
     4    11    12   ar
     5    12    13   ar
     6    13    14   ar
     7    14    15   ar
     8    15    16   ar
     9     2     4   am
    10     4     5    1
    11     5     6    1
    12     6     7    1
    13     7    17    1
    14    17    18    1
    15    18    19   ar
    16    19    20   ar
    17    20    21   ar
    18    21    22   ar
    19     7     8    1
    20     8     9    1
    21    16    11   ar
    22     9     4    1
    23    22    18   ar
    24     3    10    1
    25    22    23    1
@<TRIPOS>MOLECULE
*****
 23 25 0 0 0
SMALL
GASTEIGER

@<TRIPOS>ATOM
      1 O          -6.0756  -17.1068   22.6935 O.2     1  UNL1       -0.2522
      2 C          -6.9414  -17.9905   21.8453 C.2     1  UNL1        0.3098
      3 N          -6.3147  -18.9324   20.8604 N.am    1  UNL1       -0.2381
      4 N          -8.4341  -17.9322   21.9820 N.am    1  UNL1       -0.2639
      5 C          -9.0609  -16.9904   22.9668 C.3     1  UNL1        0.0950
      6 C         -10.5534  -16.9322   23.1035 C.3     1  UNL1        0.0220
      7 C         -11.4193  -17.8159   22.2553 C.3     1  UNL1        0.0093
      8 C         -10.7925  -18.7577   21.2705 C.3     1  UNL1        0.0220
      9 C          -9.2999  -18.8159   21.1338 C.3     1  UNL1        0.0950
     10 H          -6.8829  -19.5123   20.3037 H       1  UNL1        0.1593
     11 C          -4.8220  -18.9906   20.7237 C.ar    1  UNL1        0.2239
     12 N          -4.1592  -18.4395   19.4962 N.ar    1  UNL1       -0.2119
     13 C          -2.6666  -18.4977   19.3595 C.ar    1  UNL1        0.1034
     14 C          -1.8368  -19.1071   20.4504 C.ar    1  UNL1        0.0414
     15 C          -2.4996  -19.6582   21.6780 C.ar    1  UNL1        0.1034
     16 N          -3.9922  -19.5999   21.8146 N.ar    1  UNL1       -0.2119
     17 C         -12.9120  -17.7576   22.3920 C.3     1  UNL1        0.0453
     18 C         -13.5608  -18.1256   23.6933 C.ar    1  UNL1        0.0541
     19 C         -12.8490  -18.5305   24.9500 C.ar    1  UNL1        0.1131
     20 N         -13.8837  -18.8085   25.9999 N.ar    1  UNL1       -0.2229
     21 C         -15.2351  -18.5753   25.3920 C.ar    1  UNL1        0.1748
     22 N         -15.0355  -18.1533   23.9665 N.ar    1  UNL1       -0.3382
     23 H         -15.7474  -17.9331   23.3231 H       1  UNL1        0.1672
@<TRIPOS>BOND
     1     1     2    2
     2     2     3   am
     3     3    11    1
     4    11    12   ar
     5    12    13   ar
     6    13    14   ar
     7    14    15   ar
     8    15    16   ar
     9     2     4   am
    10     4     5    1
    11     5     6    1
    12     6     7    1
    13     7    17    1
    14    17    18    1
    15    18    19   ar
    16    19    20   ar
    17    20    21   ar
    18    21    22   ar
    19     7     8    1
    20     8     9    1
    21    16    11   ar
    22     9     4    1
    23    22    18   ar
    24     3    10    1
    25    22    23    1
@<TRIPOS>MOLECULE
*****
 23 25 0 0 0
SMALL
GASTEIGER

@<TRIPOS>ATOM
      1 O          -4.9064  -18.6677   19.0197 O.2     1  UNL1       -0.2522
      2 C          -5.2471  -18.7166   20.4797 C.2     1  UNL1        0.3098
      3 N          -4.1879  -18.4449   21.5065 N.am    1  UNL1       -0.2381
      4 N          -6.6469  -19.0374   20.9129 N.am    1  UNL1       -0.2639
      5 C          -7.7061  -19.3091   19.8861 C.3     1  UNL1        0.0950
      6 C          -9.1058  -19.6298   20.3193 C.3     1  UNL1        0.0220
      7 C          -9.4465  -19.6788   21.7792 C.3     1  UNL1        0.0093
      8 C          -8.3874  -19.4071   22.8060 C.3     1  UNL1        0.0220
      9 C          -6.9876  -19.0864   22.3729 C.3     1  UNL1        0.0950
     10 H          -4.4115  -18.4771   22.4647 H       1  UNL1        0.1593
     11 C          -2.7881  -18.1242   21.0733 C.ar    1  UNL1        0.2239
     12 N          -2.3136  -16.7012   21.0630 N.ar    1  UNL1       -0.2119
     13 C          -0.9138  -16.3806   20.6298 C.ar    1  UNL1        0.1034
     14 C           0.0115  -17.4828   20.2071 C.ar    1  UNL1        0.0414
     15 C          -0.4629  -18.9057   20.2174 C.ar    1  UNL1        0.1034
     16 N          -1.8627  -19.2264   20.6506 N.ar    1  UNL1       -0.2119
     17 C         -10.8464  -19.9996   22.2124 C.3     1  UNL1        0.0453
     18 C         -11.7926  -18.8925   22.5716 C.ar    1  UNL1        0.0541
     19 C         -12.2225  -17.7730   21.6706 C.ar    1  UNL1        0.1131
     20 N         -13.1706  -16.8991   22.4370 N.ar    1  UNL1       -0.2229
     21 C         -13.3266  -17.4785   23.8118 C.ar    1  UNL1        0.1748
     22 N         -12.4749  -18.7105   23.8950 N.ar    1  UNL1       -0.3382
     23 H         -12.3804  -19.2967   24.6803 H       1  UNL1        0.1672
@<TRIPOS>BOND
     1     1     2    2
     2     2     3   am
     3     3    11    1
     4    11    12   ar
     5    12    13   ar
     6    13    14   ar
     7    14    15   ar
     8    15    16   ar
     9     2     4   am
    10     4     5    1
    11     5     6    1
    12     6     7    1
    13     7    17    1
    14    17    18    1
    15    18    19   ar
    16    19    20   ar
    17    20    21   ar
    18    21    22   ar
    19     7     8    1
    20     8     9    1
    21    16    11   ar
    22     9     4    1
    23    22    18   ar
    24     3    10    1
    25    22    23    1
@<TRIPOS>MOLECULE
*****
 23 25 0 0 0
SMALL
GASTEIGER

@<TRIPOS>ATOM
      1 O         -15.2926   -9.1860   18.9429 O.2     1  UNL1       -0.2522
      2 C         -15.4144   -7.6953   19.0576 C.2     1  UNL1        0.3098
      3 N         -16.7644   -7.0639   19.2266 N.am    1  UNL1       -0.2381
      4 N         -14.1860   -6.8361   19.0032 N.am    1  UNL1       -0.2639
      5 C         -12.8360   -7.4675   18.8341 C.3     1  UNL1        0.0950
      6 C         -11.6077   -6.6083   18.7797 C.3     1  UNL1        0.0220
      7 C         -11.7295   -5.1176   18.8944 C.3     1  UNL1        0.0093
      8 C         -13.0795   -4.4862   19.0634 C.3     1  UNL1        0.0220
      9 C         -14.3078   -5.3455   19.1178 C.3     1  UNL1        0.0950
     10 H         -16.8443   -6.0856   19.3019 H       1  UNL1        0.1593
     11 C         -17.9928   -7.9232   19.2810 C.ar    1  UNL1        0.2239
     12 N         -18.4163   -8.7037   18.0722 N.ar    1  UNL1       -0.2119
     13 C         -19.6446   -9.5629   18.1266 C.ar    1  UNL1        0.1034
     14 C         -20.4494   -9.6415   19.3900 C.ar    1  UNL1        0.0414
     15 C         -20.0260   -8.8610   20.5988 C.ar    1  UNL1        0.1034
     16 N         -18.7977   -8.0018   20.5444 N.ar    1  UNL1       -0.2119
     17 C         -10.5011   -4.2584   18.8399 C.3     1  UNL1        0.0453
     18 C         -10.4886   -3.0206   17.9928 C.ar    1  UNL1        0.0541
     19 C         -10.1439   -2.9537   16.5345 C.ar    1  UNL1        0.1131
     20 N         -10.2608   -1.5242   16.0957 N.ar    1  UNL1       -0.2229
     21 C         -10.6778   -0.7074   17.2828 C.ar    1  UNL1        0.1748
     22 N         -10.8186   -1.6323   18.4553 N.ar    1  UNL1       -0.3382
     23 H         -11.0814   -1.3736   19.3681 H       1  UNL1        0.1672
@<TRIPOS>BOND
     1     1     2    2
     2     2     3   am
     3     3    11    1
     4    11    12   ar
     5    12    13   ar
     6    13    14   ar
     7    14    15   ar
     8    15    16   ar
     9     2     4   am
    10     4     5    1
    11     5     6    1
    12     6     7    1
    13     7    17    1
    14    17    18    1
    15    18    19   ar
    16    19    20   ar
    17    20    21   ar
    18    21    22   ar
    19     7     8    1
    20     8     9    1
    21    16    11   ar
    22     9     4    1
    23    22    18   ar
    24     3    10    1
    25    22    23    1
@<TRIPOS>MOLECULE
*****
 23 25 0 0 0
SMALL
GASTEIGER

@<TRIPOS>ATOM
      1 O          -4.9852  -20.2485   20.7804 O.2     1  UNL1       -0.2522
      2 C          -5.3180  -18.9872   21.5210 C.2     1  UNL1        0.3098
      3 N          -4.3759  -17.8208   21.4769 N.am    1  UNL1       -0.2381
      4 N          -6.5930  -18.8924   22.3055 N.am    1  UNL1       -0.2639
      5 C          -7.5351  -20.0588   22.3496 C.3     1  UNL1        0.0950
      6 C          -8.8100  -19.9639   23.1341 C.3     1  UNL1        0.0220
      7 C          -9.1428  -18.7026   23.8746 C.3     1  UNL1        0.0093
      8 C          -8.2007  -17.5362   23.8306 C.3     1  UNL1        0.0220
      9 C          -6.9258  -17.6311   23.0461 C.3     1  UNL1        0.0950
     10 H          -4.5944  -16.9930   21.9630 H       1  UNL1        0.1593
     11 C          -3.1009  -17.9157   20.6924 C.ar    1  UNL1        0.2239
     12 N          -1.8204  -18.2799   21.3834 N.ar    1  UNL1       -0.2119
     13 C          -0.5455  -18.3748   20.5988 C.ar    1  UNL1        0.1034
     14 C          -0.5511  -18.1054   19.1232 C.ar    1  UNL1        0.0414
     15 C          -1.8317  -17.7411   18.4322 C.ar    1  UNL1        0.1034
     16 N          -3.1066  -17.6463   19.2168 N.ar    1  UNL1       -0.2119
     17 C         -10.4178  -18.6077   24.6592 C.3     1  UNL1        0.0453
     18 C         -11.7093  -18.3070   23.9581 C.ar    1  UNL1        0.0541
     19 C         -13.0834  -18.4469   24.5430 C.ar    1  UNL1        0.1131
     20 N         -14.0768  -18.0400   23.4954 N.ar    1  UNL1       -0.2229
     21 C         -13.3166  -17.6487   22.2628 C.ar    1  UNL1        0.1748
     22 N         -11.8534  -17.8138   22.5488 N.ar    1  UNL1       -0.3382
     23 H         -11.1169  -17.6305   21.9217 H       1  UNL1        0.1672
@<TRIPOS>BOND
     1     1     2    2
     2     2     3   am
     3     3    11    1
     4    11    12   ar
     5    12    13   ar
     6    13    14   ar
     7    14    15   ar
     8    15    16   ar
     9     2     4   am
    10     4     5    1
    11     5     6    1
    12     6     7    1
    13     7    17    1
    14    17    18    1
    15    18    19   ar
    16    19    20   ar
    17    20    21   ar
    18    21    22   ar
    19     7     8    1
    20     8     9    1
    21    16    11   ar
    22     9     4    1
    23    22    18   ar
    24     3    10    1
    25    22    23    1
@<TRIPOS>MOLECULE
*****
 23 25 0 0 0
SMALL
GASTEIGER

@<TRIPOS>ATOM
      1 O          -0.2043    3.8747   19.2334 O.2     1  UNL1       -0.2522
      2 C          -0.2440    2.5240   19.8847 C.2     1  UNL1        0.3098
      3 N          -1.3358    2.1927   20.8584 N.am    1  UNL1       -0.2381
      4 N           0.8082    1.5047   19.5623 N.am    1  UNL1       -0.2639
      5 C           1.9000    1.8360   18.5886 C.3     1  UNL1        0.0950
      6 C           2.9522    0.8167   18.2662 C.3     1  UNL1        0.0220
      7 C           2.9125   -0.5339   18.9176 C.3     1  UNL1        0.0093
      8 C           1.8207   -0.8652   19.8912 C.3     1  UNL1        0.0220
      9 C           0.7685    0.1541   20.2136 C.3     1  UNL1        0.0950
     10 H          -1.3619    1.3063   21.2858 H       1  UNL1        0.1593
     11 C          -2.3880    3.2121   21.1808 C.ar    1  UNL1        0.2239
     12 N          -2.0466    4.3990   22.0319 N.ar    1  UNL1       -0.2119
     13 C          -3.0988    5.4183   22.3543 C.ar    1  UNL1        0.1034
     14 C          -4.4924    5.2506   21.8255 C.ar    1  UNL1        0.0414
     15 C          -4.8339    4.0636   20.9743 C.ar    1  UNL1        0.1034
     16 N          -3.7817    3.0444   20.6520 N.ar    1  UNL1       -0.2119
     17 C           3.9647   -1.5533   18.5952 C.3     1  UNL1        0.0453
     18 C           3.9446   -2.8917   19.2720 C.ar    1  UNL1        0.0541
     19 C           4.5410   -3.2118   20.6106 C.ar    1  UNL1        0.1131
     20 N           4.2896   -4.6630   20.8949 N.ar    1  UNL1       -0.2229
     21 C           3.5379   -5.2398   19.7320 C.ar    1  UNL1        0.1748
     22 N           3.3247   -4.1451   18.7290 N.ar    1  UNL1       -0.3382
     23 H           2.8596   -4.2336   17.8658 H       1  UNL1        0.1672
@<TRIPOS>BOND
     1     1     2    2
     2     2     3   am
     3     3    11    1
     4    11    12   ar
     5    12    13   ar
     6    13    14   ar
     7    14    15   ar
     8    15    16   ar
     9     2     4   am
    10     4     5    1
    11     5     6    1
    12     6     7    1
    13     7    17    1
    14    17    18    1
    15    18    19   ar
    16    19    20   ar
    17    20    21   ar
    18    21    22   ar
    19     7     8    1
    20     8     9    1
    21    16    11   ar
    22     9     4    1
    23    22    18   ar
    24     3    10    1
    25    22    23    1
@<TRIPOS>MOLECULE
*****
 23 25 0 0 0
SMALL
GASTEIGER

@<TRIPOS>ATOM
      1 O         -15.1771    0.1120   18.7874 O.2     1  UNL1       -0.2522
      2 C         -15.1829   -1.2774   19.3525 C.2     1  UNL1        0.3098
      3 N         -16.4197   -1.8149   20.0091 N.am    1  UNL1       -0.2381
      4 N         -13.9516   -2.1294   19.2609 N.am    1  UNL1       -0.2639
      5 C         -12.7148   -1.5919   18.6043 C.3     1  UNL1        0.0950
      6 C         -11.4837   -2.4439   18.5127 C.3     1  UNL1        0.0220
      7 C         -11.4894   -3.8333   19.0778 C.3     1  UNL1        0.0093
      8 C         -12.7262   -4.3708   19.7345 C.3     1  UNL1        0.0220
      9 C         -13.9574   -3.5189   19.8260 C.3     1  UNL1        0.0950
     10 H         -16.4235   -2.7269   20.3800 H       1  UNL1        0.1593
     11 C         -17.6509   -0.9630   20.1007 C.ar    1  UNL1        0.2239
     12 N         -18.9095   -1.3862   19.4029 N.ar    1  UNL1       -0.2119
     13 C         -20.1406   -0.5342   19.4945 C.ar    1  UNL1        0.1034
     14 C         -20.1132    0.7410   20.2839 C.ar    1  UNL1        0.0414
     15 C         -18.8547    1.1642   20.9817 C.ar    1  UNL1        0.1034
     16 N         -17.6235    0.3122   20.8901 N.ar    1  UNL1       -0.2119
     17 C         -10.2582   -4.6853   18.9862 C.3     1  UNL1        0.0453
     18 C         -10.3320   -6.0448   18.3568 C.ar    1  UNL1        0.0541
     19 C          -9.5119   -7.2403   18.7417 C.ar    1  UNL1        0.1131
     20 N          -9.9119   -8.3819   17.8548 N.ar    1  UNL1       -0.2229
     21 C         -10.9793   -7.8920   16.9216 C.ar    1  UNL1        0.1748
     22 N         -11.2389   -6.4476   17.2319 N.ar    1  UNL1       -0.3382
     23 H         -11.8902   -5.8660   16.7771 H       1  UNL1        0.1672
@<TRIPOS>BOND
     1     1     2    2
     2     2     3   am
     3     3    11    1
     4    11    12   ar
     5    12    13   ar
     6    13    14   ar
     7    14    15   ar
     8    15    16   ar
     9     2     4   am
    10     4     5    1
    11     5     6    1
    12     6     7    1
    13     7    17    1
    14    17    18    1
    15    18    19   ar
    16    19    20   ar
    17    20    21   ar
    18    21    22   ar
    19     7     8    1
    20     8     9    1
    21    16    11   ar
    22     9     4    1
    23    22    18   ar
    24     3    10    1
    25    22    23    1
@<TRIPOS>MOLECULE
*****
 23 25 0 0 0
SMALL
GASTEIGER

@<TRIPOS>ATOM
      1 O          -0.1466    2.7461   22.9202 O.2     1  UNL1       -0.2522
      2 C          -0.2130    2.0066   21.6169 C.2     1  UNL1        0.3098
      3 N          -1.2956    2.3245   20.6285 N.am    1  UNL1       -0.2381
      4 N           0.8031    0.9490   21.3020 N.am    1  UNL1       -0.2639
      5 C           1.8856    0.6310   22.2904 C.3     1  UNL1        0.0950
      6 C           2.9017   -0.4265   21.9755 C.3     1  UNL1        0.0220
      7 C           2.8352   -1.1661   20.6722 C.3     1  UNL1        0.0093
      8 C           1.7527   -0.8481   19.6838 C.3     1  UNL1        0.0220
      9 C           0.7366    0.2094   19.9987 C.3     1  UNL1        0.0950
     10 H          -1.3392    1.8391   19.7731 H       1  UNL1        0.1593
     11 C          -2.3117    3.3821   20.9433 C.ar    1  UNL1        0.2239
     12 N          -1.9247    4.8307   20.8998 N.ar    1  UNL1       -0.2119
     13 C          -2.9408    5.8882   21.2146 C.ar    1  UNL1        0.1034
     14 C          -4.3439    5.4971   21.5731 C.ar    1  UNL1        0.0414
     15 C          -4.7309    4.0486   21.6166 C.ar    1  UNL1        0.1034
     16 N          -3.7148    2.9911   21.3018 N.ar    1  UNL1       -0.2119
     17 C           3.8513   -2.2237   20.3573 C.3     1  UNL1        0.0453
     18 C           4.9110   -1.9629   19.3283 C.ar    1  UNL1        0.0541
     19 C           5.4662   -2.9657   18.3607 C.ar    1  UNL1        0.1131
     20 N           6.4999   -2.2761   17.5206 N.ar    1  UNL1       -0.2229
     21 C           6.5836   -0.8471   17.9689 C.ar    1  UNL1        0.1748
     22 N           5.6016   -0.6535   19.0861 N.ar    1  UNL1       -0.3382
     23 H           5.4389    0.1856   19.5746 H       1  UNL1        0.1672
@<TRIPOS>BOND
     1     1     2    2
     2     2     3   am
     3     3    11    1
     4    11    12   ar
     5    12    13   ar
     6    13    14   ar
     7    14    15   ar
     8    15    16   ar
     9     2     4   am
    10     4     5    1
    11     5     6    1
    12     6     7    1
    13     7    17    1
    14    17    18    1
    15    18    19   ar
    16    19    20   ar
    17    20    21   ar
    18    21    22   ar
    19     7     8    1
    20     8     9    1
    21    16    11   ar
    22     9     4    1
    23    22    18   ar
    24     3    10    1
    25    22    23    1
@<TRIPOS>MOLECULE
*****
 23 25 0 0 0
SMALL
GASTEIGER

@<TRIPOS>ATOM
      1 O           8.5094   -4.2456   24.9337 O.2     1  UNL1       -0.2522
      2 C           7.0573   -4.0068   24.6433 C.2     1  UNL1        0.3098
      3 N           6.0876   -3.8189   25.7721 N.am    1  UNL1       -0.2381
      4 N           6.5749   -3.9558   23.2238 N.am    1  UNL1       -0.2639
      5 C           7.5445   -4.1436   22.0949 C.3     1  UNL1        0.0950
      6 C           7.0621   -4.0927   20.6756 C.3     1  UNL1        0.0220
      7 C           5.6100   -3.8539   20.3851 C.3     1  UNL1        0.0093
      8 C           4.6403   -3.6660   21.5140 C.3     1  UNL1        0.0220
      9 C           5.1228   -3.7170   22.9333 C.3     1  UNL1        0.0950
     10 H           5.1346   -3.6622   25.5815 H       1  UNL1        0.1593
     11 C           6.5700   -3.8699   27.1916 C.ar    1  UNL1        0.2239
     12 N           6.2624   -5.0638   28.0459 N.ar    1  UNL1       -0.2119
     13 C           6.7448   -5.1147   29.4652 C.ar    1  UNL1        0.1034
     14 C           7.5349   -3.9717   30.0303 C.ar    1  UNL1        0.0414
     15 C           7.8425   -2.7778   29.1760 C.ar    1  UNL1        0.1034
     16 N           7.3601   -2.7269   27.7567 N.ar    1  UNL1       -0.2119
     17 C           5.1276   -3.8029   18.9657 C.3     1  UNL1        0.0453
     18 C           5.1618   -2.5089   18.2079 C.ar    1  UNL1        0.0541
     19 C           6.3840   -1.6889   17.9182 C.ar    1  UNL1        0.1131
     20 N           5.9575   -0.4809   17.1380 N.ar    1  UNL1       -0.2229
     21 C           4.4717   -0.5542   16.9455 C.ar    1  UNL1        0.1748
     22 N           3.9800   -1.8076   17.6067 N.ar    1  UNL1       -0.3382
     23 H           3.0456   -2.1158   17.6403 H       1  UNL1        0.1672
@<TRIPOS>BOND
     1     1     2    2
     2     2     3   am
     3     3    11    1
     4    11    12   ar
     5    12    13   ar
     6    13    14   ar
     7    14    15   ar
     8    15    16   ar
     9     2     4   am
    10     4     5    1
    11     5     6    1
    12     6     7    1
    13     7    17    1
    14    17    18    1
    15    18    19   ar
    16    19    20   ar
    17    20    21   ar
    18    21    22   ar
    19     7     8    1
    20     8     9    1
    21    16    11   ar
    22     9     4    1
    23    22    18   ar
    24     3    10    1
    25    22    23    1
