@<TRIPOS>MOLECULE
*****
 38 41 0 0 0
SMALL
GASTEIGER

@<TRIPOS>ATOM
      1 C          -9.6325  -19.1583   19.8066 C.ar    1  UNL1        0.0611
      2 C         -10.3303  -20.1293   18.9009 C.ar    1  UNL1        0.1037
      3 N          -9.3176  -21.1275   18.4233 N.ar    1  UNL1       -0.2269
      4 C          -7.9940  -20.7734   19.0338 C.ar    1  UNL1        0.1407
      5 N          -6.6367  -21.4020   18.9217 N.ar    1  UNL1       -0.3374
      6 C          -5.4740  -20.8135   19.6645 C.ar    1  UNL1        0.0734
      7 C          -5.6686  -19.5964   20.5194 C.ar    1  UNL1        0.0172
      8 C          -7.0259  -18.9679   20.6316 C.ar    1  UNL1        0.0046
      9 C          -8.1886  -19.5564   19.8888 C.ar    1  UNL1        0.0386
     10 H          -6.5090  -22.2008   18.3606 H       1  UNL1        0.1674
     11 C          -4.5059  -19.0079   21.2623 C.ar    1  UNL1        0.0027
     12 C          -4.5979  -18.7827   22.7424 C.ar    1  UNL1        0.0001
     13 C          -3.4351  -18.1942   23.4852 C.ar    1  UNL1        0.0013
     14 C          -2.1804  -17.8310   22.7478 C.ar    1  UNL1        0.0183
     15 C          -2.0884  -18.0562   21.2677 C.ar    1  UNL1        0.1057
     16 C          -3.2511  -18.6447   20.5249 C.ar    1  UNL1        0.0184
     17 S          -0.8337  -17.6930   20.5303 S.O2    1  UNL1        0.0104
     18 C           0.4210  -17.3297   19.7929 C.3     1  UNL1        0.1816
     19 O          -0.6563  -19.1265   20.1259 O.2     1  UNL1       -0.1686
     20 O          -1.0111  -16.2594   20.9347 O.2     1  UNL1       -0.1686
     21 C         -10.2672  -17.9937   20.5072 C.2     1  UNL1        0.2015
     22 O         -10.9799  -16.9389   19.7139 O.2     1  UNL1       -0.2864
     23 C          -9.5573  -16.5319   24.1279 C.ar    1  UNL1        0.0920
     24 C         -10.0331  -17.6642   24.9890 C.ar    1  UNL1        0.0204
     25 C         -10.5869  -18.9063   24.3562 C.ar    1  UNL1        0.0312
     26 C         -10.6649  -19.0162   22.8623 C.ar    1  UNL1        0.1454
     27 F         -11.2187  -20.2583   22.2295 F       1  UNL1       -0.2040
     28 C         -10.1891  -17.8839   22.0012 C.ar    1  UNL1        0.0951
     29 C          -9.6353  -16.6418   22.6340 C.ar    1  UNL1        0.1598
     30 F          -9.1596  -15.5095   21.7728 F       1  UNL1       -0.2026
     31 N          -9.0035  -15.2898   24.7607 N.pl3   1  UNL1       -0.2166
     32 H          -9.4381  -14.4208   24.6022 H       1  UNL1        0.1734
     33 S          -7.7875  -15.3718   25.6351 S.O2    1  UNL1        0.0540
     34 O          -8.6519  -15.2192   26.8515 O.2     1  UNL1       -0.1545
     35 O          -6.9231  -15.5243   24.4188 O.2     1  UNL1       -0.1545
     36 C          -6.5714  -15.4537   26.5095 C.3     1  UNL1        0.1724
     37 C          -4.3629  -16.8200   26.4310 C.3     1  UNL1        0.0019
     38 C          -5.2257  -15.7138   25.9000 C.3     1  UNL1        0.0273
@<TRIPOS>BOND
     1    37    38    1
     2    38    36    1
     3    36    33    1
     4    33    34    2
     5    33    35    2
     6    33    31    1
     7    31    23    1
     8    23    24   ar
     9    24    25   ar
    10    25    26   ar
    11    26    27    1
    12    26    28   ar
    13    28    21    1
    14    21    22    2
    15    21     1    1
    16     1     2   ar
    17     2     3   ar
    18     3     4   ar
    19     4     5   ar
    20     5     6   ar
    21     6     7   ar
    22     7    11    1
    23    11    12   ar
    24    12    13   ar
    25    13    14   ar
    26    14    15   ar
    27    15    17    1
    28    17    18    1
    29    17    19    2
    30    17    20    2
    31    15    16   ar
    32     7     8   ar
    33     8     9   ar
    34    28    29   ar
    35    29    30    1
    36    29    23   ar
    37     9     1   ar
    38     9     4    1
    39    16    11   ar
    40    31    32    1
    41     5    10    1
@<TRIPOS>MOLECULE
*****
 38 41 0 0 0
SMALL
GASTEIGER

@<TRIPOS>ATOM
      1 C           5.5362   -2.4321   19.4341 C.ar    1  UNL1        0.0611
      2 C           6.0652   -1.5831   18.3163 C.ar    1  UNL1        0.1037
      3 N           7.5611   -1.6944   18.3178 N.ar    1  UNL1       -0.2269
      4 C           7.9566   -2.6122   19.4364 C.ar    1  UNL1        0.1407
      5 N           9.2946   -3.0917   19.9158 N.ar    1  UNL1       -0.3374
      6 C           9.3811   -4.0270   21.0853 C.ar    1  UNL1        0.0734
      7 C           8.1296   -4.4829   21.7752 C.ar    1  UNL1        0.0172
      8 C           6.7916   -4.0035   21.2957 C.ar    1  UNL1        0.0046
      9 C           6.7051   -3.0681   20.1263 C.ar    1  UNL1        0.0386
     10 H          10.1159   -2.7924   19.4630 H       1  UNL1        0.1674
     11 C           8.2162   -5.4183   22.9447 C.ar    1  UNL1        0.0027
     12 C           8.9637   -6.7124   22.8162 C.ar    1  UNL1        0.0001
     13 C           9.0502   -7.6478   23.9857 C.ar    1  UNL1        0.0013
     14 C           8.3893   -7.2891   25.2836 C.ar    1  UNL1        0.0183
     15 C           7.6417   -5.9949   25.4119 C.ar    1  UNL1        0.1057
     16 C           7.5552   -5.0596   24.2425 C.ar    1  UNL1        0.0184
     17 S           6.9807   -5.6362   26.7098 S.O2    1  UNL1        0.0104
     18 C           6.3198   -5.2774   28.0076 C.3     1  UNL1        0.1816
     19 O           6.5298   -4.3328   26.1199 O.2     1  UNL1       -0.1686
     20 O           7.4316   -6.9395   27.2997 O.2     1  UNL1       -0.1686
     21 C           4.0919   -2.6133   19.7961 C.2     1  UNL1        0.2015
     22 O           3.3615   -3.8520   19.3697 O.2     1  UNL1       -0.2864
     23 C           2.7290   -0.5075   22.8716 C.ar    1  UNL1        0.0920
     24 C           1.9500    0.5597   22.1614 C.ar    1  UNL1        0.0204
     25 C           1.8850    0.5692   20.6629 C.ar    1  UNL1        0.0312
     26 C           2.5989   -0.4884   19.8744 C.ar    1  UNL1        0.1454
     27 F           2.5339   -0.4789   18.3758 F       1  UNL1       -0.2040
     28 C           3.3779   -1.5556   20.5845 C.ar    1  UNL1        0.0951
     29 C           3.4429   -1.5651   22.0831 C.ar    1  UNL1        0.1598
     30 F           4.2220   -2.6323   22.7932 F       1  UNL1       -0.2026
     31 N           2.7940   -0.5170   24.3701 N.pl3   1  UNL1       -0.2166
     32 H           1.9740   -0.6531   24.8976 H       1  UNL1        0.1734
     33 S           4.1085   -0.3191   25.0650 S.O2    1  UNL1        0.0540
     34 O           3.9696   -1.6656   25.7113 O.2     1  UNL1       -0.1545
     35 O           4.2475    1.0273   24.4187 O.2     1  UNL1       -0.1545
     36 C           5.4230   -0.1212   25.7599 C.3     1  UNL1        0.1724
     37 C           6.9844   -1.1618   23.9627 C.3     1  UNL1        0.0019
     38 C           6.5982   -0.9815   25.4009 C.3     1  UNL1        0.0273
@<TRIPOS>BOND
     1    37    38    1
     2    38    36    1
     3    36    33    1
     4    33    34    2
     5    33    35    2
     6    33    31    1
     7    31    23    1
     8    23    24   ar
     9    24    25   ar
    10    25    26   ar
    11    26    27    1
    12    26    28   ar
    13    28    21    1
    14    21    22    2
    15    21     1    1
    16     1     2   ar
    17     2     3   ar
    18     3     4   ar
    19     4     5   ar
    20     5     6   ar
    21     6     7   ar
    22     7    11    1
    23    11    12   ar
    24    12    13   ar
    25    13    14   ar
    26    14    15   ar
    27    15    17    1
    28    17    18    1
    29    17    19    2
    30    17    20    2
    31    15    16   ar
    32     7     8   ar
    33     8     9   ar
    34    28    29   ar
    35    29    30    1
    36    29    23   ar
    37     9     1   ar
    38     9     4    1
    39    16    11   ar
    40    31    32    1
    41     5    10    1
@<TRIPOS>MOLECULE
*****
 38 41 0 0 0
SMALL
GASTEIGER

@<TRIPOS>ATOM
      1 C         -10.9037   -6.1041   18.0844 C.ar    1  UNL1        0.0611
      2 C         -10.2840   -7.3348   17.4916 C.ar    1  UNL1        0.1037
      3 N         -11.3880   -8.2909   17.1496 N.ar    1  UNL1       -0.2269
      4 C         -12.6901   -7.6512   17.5311 C.ar    1  UNL1        0.1407
      5 N         -14.1095   -8.1247   17.4270 N.ar    1  UNL1       -0.3374
      6 C         -15.2296   -7.2467   17.9006 C.ar    1  UNL1        0.0734
      7 C         -14.9303   -5.8952   18.4784 C.ar    1  UNL1        0.0172
      8 C         -13.5109   -5.4216   18.5825 C.ar    1  UNL1        0.0046
      9 C         -12.3908   -6.2996   18.1088 C.ar    1  UNL1        0.0386
     10 H         -14.3060   -9.0118   17.0478 H       1  UNL1        0.1674
     11 C         -16.0506   -5.0172   18.9520 C.ar    1  UNL1        0.0027
     12 C         -17.4043   -5.6061   19.2172 C.ar    1  UNL1        0.0001
     13 C         -18.5246   -4.7281   19.6908 C.ar    1  UNL1        0.0013
     14 C         -18.2909   -3.2612   19.8993 C.ar    1  UNL1        0.0183
     15 C         -16.9370   -2.6722   19.6341 C.ar    1  UNL1        0.1057
     16 C         -15.8169   -3.5502   19.1605 C.ar    1  UNL1        0.0184
     17 S         -16.7034   -1.2053   19.8426 S.O2    1  UNL1        0.0104
     18 C         -16.4697    0.2617   20.0511 C.3     1  UNL1        0.1816
     19 O         -15.2437   -1.4694   20.0655 O.2     1  UNL1       -0.1686
     20 O         -18.1630   -0.9411   19.6198 O.2     1  UNL1       -0.1686
     21 C         -10.1660   -4.8909   18.5679 C.2     1  UNL1        0.2015
     22 O          -9.1873   -5.0092   19.6984 O.2     1  UNL1       -0.2864
     23 C         -11.6273   -1.2659   17.8791 C.ar    1  UNL1        0.0920
     24 C         -10.8890   -0.8959   16.6269 C.ar    1  UNL1        0.0204
     25 C          -9.9097   -1.8575   16.0218 C.ar    1  UNL1        0.0312
     26 C          -9.6687   -3.1891   16.6687 C.ar    1  UNL1        0.1454
     27 F          -8.6894   -4.1508   16.0635 F       1  UNL1       -0.2040
     28 C         -10.4070   -3.5592   17.9209 C.ar    1  UNL1        0.0951
     29 C         -11.3863   -2.5975   18.5261 C.ar    1  UNL1        0.1598
     30 F         -12.1246   -2.9676   19.7783 F       1  UNL1       -0.2026
     31 N         -12.6066   -0.3043   18.4843 N.pl3   1  UNL1       -0.2166
     32 H         -12.6691   -0.2159   19.4628 H       1  UNL1        0.1734
     33 S         -13.4906    0.5227   17.5985 S.O2    1  UNL1        0.0540
     34 O         -12.7808    1.7647   18.0497 O.2     1  UNL1       -0.1545
     35 O         -14.2005   -0.7192   17.1474 O.2     1  UNL1       -0.1545
     36 C         -14.3747    1.3497   16.7128 C.3     1  UNL1        0.1724
     37 C         -16.0405    3.1436   17.5829 C.3     1  UNL1        0.0019
     38 C         -14.6786    2.7732   17.0750 C.3     1  UNL1        0.0273
@<TRIPOS>BOND
     1    37    38    1
     2    38    36    1
     3    36    33    1
     4    33    34    2
     5    33    35    2
     6    33    31    1
     7    31    23    1
     8    23    24   ar
     9    24    25   ar
    10    25    26   ar
    11    26    27    1
    12    26    28   ar
    13    28    21    1
    14    21    22    2
    15    21     1    1
    16     1     2   ar
    17     2     3   ar
    18     3     4   ar
    19     4     5   ar
    20     5     6   ar
    21     6     7   ar
    22     7    11    1
    23    11    12   ar
    24    12    13   ar
    25    13    14   ar
    26    14    15   ar
    27    15    17    1
    28    17    18    1
    29    17    19    2
    30    17    20    2
    31    15    16   ar
    32     7     8   ar
    33     8     9   ar
    34    28    29   ar
    35    29    30    1
    36    29    23   ar
    37     9     1   ar
    38     9     4    1
    39    16    11   ar
    40    31    32    1
    41     5    10    1
@<TRIPOS>MOLECULE
*****
 38 41 0 0 0
SMALL
GASTEIGER

@<TRIPOS>ATOM
      1 C           0.3720    2.2039   22.7555 C.ar    1  UNL1        0.0611
      2 C          -0.2208    3.1443   23.7627 C.ar    1  UNL1        0.1037
      3 N           0.3889    2.8373   25.0983 N.ar    1  UNL1       -0.2269
      4 C           1.3584    1.7072   24.9167 C.ar    1  UNL1        0.1407
      5 N           2.2493    0.9840   25.8827 N.ar    1  UNL1       -0.3374
      6 C           3.1298   -0.1306   25.4007 C.ar    1  UNL1        0.0734
      7 C           3.1194   -0.5220   23.9527 C.ar    1  UNL1        0.0172
      8 C           2.2284    0.2012   22.9867 C.ar    1  UNL1        0.0046
      9 C           1.3479    1.3158   23.4687 C.ar    1  UNL1        0.0386
     10 H           2.2562    1.2409   26.8330 H       1  UNL1        0.1674
     11 C           3.9999   -1.6366   23.4707 C.ar    1  UNL1        0.0027
     12 C           5.0047   -2.2532   24.3982 C.ar    1  UNL1        0.0001
     13 C           5.8853   -3.3679   23.9162 C.ar    1  UNL1        0.0013
     14 C           5.7610   -3.8659   22.5067 C.ar    1  UNL1        0.0183
     15 C           4.7562   -3.2492   21.5793 C.ar    1  UNL1        0.1057
     16 C           3.8757   -2.1347   22.0613 C.ar    1  UNL1        0.0184
     17 S           4.6319   -3.7473   20.1698 S.O2    1  UNL1        0.0104
     18 C           4.5076   -4.2453   18.7604 C.3     1  UNL1        0.1816
     19 O           5.8561   -4.5928   20.3606 O.2     1  UNL1       -0.1686
     20 O           3.4077   -2.9017   19.9790 O.2     1  UNL1       -0.1686
     21 C           0.0460    2.1595   21.2920 C.2     1  UNL1        0.2015
     22 O          -1.3838    2.0904   20.8438 O.2     1  UNL1       -0.2864
     23 C           2.7461    0.9272   18.6574 C.ar    1  UNL1        0.0920
     24 C           3.3575    2.2336   18.2460 C.ar    1  UNL1        0.0204
     25 C           2.8652    3.5154   18.8499 C.ar    1  UNL1        0.0312
     26 C           1.7613    3.4907   19.8652 C.ar    1  UNL1        0.1454
     27 F           1.2690    4.7724   20.4691 F       1  UNL1       -0.2040
     28 C           1.1499    2.1842   20.2766 C.ar    1  UNL1        0.0951
     29 C           1.6423    0.9025   19.6727 C.ar    1  UNL1        0.1598
     30 F           1.0307   -0.4039   20.0842 F       1  UNL1       -0.2026
     31 N           3.2385   -0.3546   18.0535 N.pl3   1  UNL1       -0.2166
     32 H           2.6061   -1.0857   17.8670 H       1  UNL1        0.1734
     33 S           4.6944   -0.5224   17.7339 S.O2    1  UNL1        0.0540
     34 O           5.0394   -0.2666   19.1711 O.2     1  UNL1       -0.1545
     35 O           4.3493   -0.7781   16.2967 O.2     1  UNL1       -0.1545
     36 C           6.1502   -0.6902   17.4141 C.3     1  UNL1        0.1724
     37 C           7.8134   -2.2372   18.6754 C.3     1  UNL1        0.0019
     38 C           7.1409   -0.9055   18.5196 C.3     1  UNL1        0.0273
@<TRIPOS>BOND
     1    37    38    1
     2    38    36    1
     3    36    33    1
     4    33    34    2
     5    33    35    2
     6    33    31    1
     7    31    23    1
     8    23    24   ar
     9    24    25   ar
    10    25    26   ar
    11    26    27    1
    12    26    28   ar
    13    28    21    1
    14    21    22    2
    15    21     1    1
    16     1     2   ar
    17     2     3   ar
    18     3     4   ar
    19     4     5   ar
    20     5     6   ar
    21     6     7   ar
    22     7    11    1
    23    11    12   ar
    24    12    13   ar
    25    13    14   ar
    26    14    15   ar
    27    15    17    1
    28    17    18    1
    29    17    19    2
    30    17    20    2
    31    15    16   ar
    32     7     8   ar
    33     8     9   ar
    34    28    29   ar
    35    29    30    1
    36    29    23   ar
    37     9     1   ar
    38     9     4    1
    39    16    11   ar
    40    31    32    1
    41     5    10    1
@<TRIPOS>MOLECULE
*****
 38 41 0 0 0
SMALL
GASTEIGER

@<TRIPOS>ATOM
      1 C         -11.9391   -4.3053   18.8056 C.ar    1  UNL1        0.0611
      2 C         -10.5878   -4.9254   18.6076 C.ar    1  UNL1        0.1037
      3 N         -10.7572   -6.4158   18.6076 N.ar    1  UNL1       -0.2269
      4 C         -12.2133   -6.7168   18.8056 C.ar    1  UNL1        0.1407
      5 N         -12.9684   -8.0101   18.8902 N.ar    1  UNL1       -0.3374
      6 C         -14.4539   -7.9991   19.0972 C.ar    1  UNL1        0.0734
      7 C         -15.1844   -6.6947   19.2196 C.ar    1  UNL1        0.0172
      8 C         -14.4294   -5.4014   19.1350 C.ar    1  UNL1        0.0046
      9 C         -12.9438   -5.4125   18.9279 C.ar    1  UNL1        0.0386
     10 H         -12.4889   -8.8662   18.8099 H       1  UNL1        0.1674
     11 C         -16.6701   -6.6836   19.4267 C.ar    1  UNL1        0.0027
     12 C         -17.3864   -7.9511   19.7878 C.ar    1  UNL1        0.0001
     13 C         -18.8721   -7.9400   19.9949 C.ar    1  UNL1        0.0013
     14 C         -19.6413   -6.6615   19.8407 C.ar    1  UNL1        0.0183
     15 C         -18.9249   -5.3941   19.4795 C.ar    1  UNL1        0.1057
     16 C         -17.4393   -5.4052   19.2725 C.ar    1  UNL1        0.0184
     17 S         -19.6941   -4.1156   19.3253 S.O2    1  UNL1        0.0104
     18 C         -20.4634   -2.8371   19.1712 C.3     1  UNL1        0.1816
     19 O         -20.3498   -4.6590   18.0905 O.2     1  UNL1       -0.1686
     20 O         -19.0384   -3.5722   20.5601 O.2     1  UNL1       -0.1686
     21 C         -12.2342   -2.8360   18.8699 C.2     1  UNL1        0.2015
     22 O         -11.1710   -1.8764   19.3154 O.2     1  UNL1       -0.2864
     23 C         -15.9702   -1.5314   19.1706 C.ar    1  UNL1        0.0920
     24 C         -16.3092   -1.3072   17.7267 C.ar    1  UNL1        0.0204
     25 C         -15.2898   -1.5926   16.6639 C.ar    1  UNL1        0.0312
     26 C         -13.9315   -2.1022   17.0449 C.ar    1  UNL1        0.1454
     27 F         -12.9122   -2.3876   15.9821 F       1  UNL1       -0.2040
     28 C         -13.5926   -2.3264   18.4888 C.ar    1  UNL1        0.0951
     29 C         -14.6119   -2.0410   19.5516 C.ar    1  UNL1        0.1598
     30 F         -14.2728   -2.2652   20.9955 F       1  UNL1       -0.2026
     31 N         -16.9895   -1.2460   20.2333 N.pl3   1  UNL1       -0.2166
     32 H         -17.3939   -1.9874   20.7394 H       1  UNL1        0.1734
     33 S         -17.3928    0.1690   20.5251 S.O2    1  UNL1        0.0540
     34 O         -16.0183    0.6381   20.1499 O.2     1  UNL1       -0.1545
     35 O         -18.7672   -0.3000   20.9003 O.2     1  UNL1       -0.1545
     36 C         -17.7961    1.5840   20.8169 C.3     1  UNL1        0.1724
     37 C         -17.9875    2.4181   23.2700 C.3     1  UNL1        0.0019
     38 C         -17.2076    2.3041   21.9938 C.3     1  UNL1        0.0273
@<TRIPOS>BOND
     1    37    38    1
     2    38    36    1
     3    36    33    1
     4    33    34    2
     5    33    35    2
     6    33    31    1
     7    31    23    1
     8    23    24   ar
     9    24    25   ar
    10    25    26   ar
    11    26    27    1
    12    26    28   ar
    13    28    21    1
    14    21    22    2
    15    21     1    1
    16     1     2   ar
    17     2     3   ar
    18     3     4   ar
    19     4     5   ar
    20     5     6   ar
    21     6     7   ar
    22     7    11    1
    23    11    12   ar
    24    12    13   ar
    25    13    14   ar
    26    14    15   ar
    27    15    17    1
    28    17    18    1
    29    17    19    2
    30    17    20    2
    31    15    16   ar
    32     7     8   ar
    33     8     9   ar
    34    28    29   ar
    35    29    30    1
    36    29    23   ar
    37     9     1   ar
    38     9     4    1
    39    16    11   ar
    40    31    32    1
    41     5    10    1
@<TRIPOS>MOLECULE
*****
 38 41 0 0 0
SMALL
GASTEIGER

@<TRIPOS>ATOM
      1 C           5.8542   -3.2084   23.5948 C.ar    1  UNL1        0.0611
      2 C           6.4578   -3.3769   24.9576 C.ar    1  UNL1        0.1037
      3 N           5.7639   -2.4306   25.8920 N.ar    1  UNL1       -0.2269
      4 C           4.7315   -1.6773   25.1067 C.ar    1  UNL1        0.1407
      5 N           3.7479   -0.6158   25.5010 N.ar    1  UNL1       -0.3374
      6 C           2.8200   -0.0349   24.4755 C.ar    1  UNL1        0.0734
      7 C           2.8758   -0.5156   23.0557 C.ar    1  UNL1        0.0172
      8 C           3.8595   -1.5772   22.6614 C.ar    1  UNL1        0.0046
      9 C           4.7873   -2.1580   23.6869 C.ar    1  UNL1        0.0386
     10 H           3.7113   -0.3002   26.4328 H       1  UNL1        0.1674
     11 C           1.9479    0.0653   22.0302 C.ar    1  UNL1        0.0027
     12 C           1.8720   -0.5391   20.6595 C.ar    1  UNL1        0.0001
     13 C           0.9441    0.0418   19.6339 C.ar    1  UNL1        0.0013
     14 C           0.0921    1.2271   19.9792 C.ar    1  UNL1        0.0183
     15 C           0.1680    1.8314   21.3500 C.ar    1  UNL1        0.1057
     16 C           1.0959    1.2505   22.3755 C.ar    1  UNL1        0.0184
     17 S          -0.6839    3.0167   21.6953 S.O2    1  UNL1        0.0104
     18 C          -1.5359    4.2020   22.0406 C.3     1  UNL1        0.1816
     19 O          -1.7968    2.4611   20.8570 O.2     1  UNL1       -0.1686
     20 O           0.4289    3.5724   22.5337 O.2     1  UNL1       -0.1686
     21 C           6.2483   -3.9586   22.3571 C.2     1  UNL1        0.2015
     22 O           7.2856   -5.0393   22.4334 O.2     1  UNL1       -0.2864
     23 C           5.6222   -2.3288   18.7930 C.ar    1  UNL1        0.0920
     24 C           4.3185   -2.9668   18.4147 C.ar    1  UNL1        0.0204
     25 C           3.6580   -3.9354   19.3504 C.ar    1  UNL1        0.0312
     26 C           4.3012   -4.2660   20.6645 C.ar    1  UNL1        0.1454
     27 F           3.6407   -5.2346   21.6003 F       1  UNL1       -0.2040
     28 C           5.6050   -3.6280   21.0429 C.ar    1  UNL1        0.0951
     29 C           6.2654   -2.6594   20.1071 C.ar    1  UNL1        0.1598
     30 F           7.5692   -2.0215   20.4856 F       1  UNL1       -0.2026
     31 N           6.2827   -1.3603   17.8573 N.pl3   1  UNL1       -0.2166
     32 H           7.0346   -1.6548   17.2941 H       1  UNL1        0.1734
     33 S           5.7976    0.0570   17.7797 S.O2    1  UNL1        0.0540
     34 O           4.8093   -0.3391   16.7232 O.2     1  UNL1       -0.1545
     35 O           6.7860    0.4531   18.8362 O.2     1  UNL1       -0.1545
     36 C           5.3126    1.4743   17.7021 C.3     1  UNL1        0.1724
     37 C           3.8261    2.4828   19.5792 C.3     1  UNL1        0.0019
     38 C           3.9565    1.8331   18.2336 C.3     1  UNL1        0.0273
@<TRIPOS>BOND
     1    37    38    1
     2    38    36    1
     3    36    33    1
     4    33    34    2
     5    33    35    2
     6    33    31    1
     7    31    23    1
     8    23    24   ar
     9    24    25   ar
    10    25    26   ar
    11    26    27    1
    12    26    28   ar
    13    28    21    1
    14    21    22    2
    15    21     1    1
    16     1     2   ar
    17     2     3   ar
    18     3     4   ar
    19     4     5   ar
    20     5     6   ar
    21     6     7   ar
    22     7    11    1
    23    11    12   ar
    24    12    13   ar
    25    13    14   ar
    26    14    15   ar
    27    15    17    1
    28    17    18    1
    29    17    19    2
    30    17    20    2
    31    15    16   ar
    32     7     8   ar
    33     8     9   ar
    34    28    29   ar
    35    29    30    1
    36    29    23   ar
    37     9     1   ar
    38     9     4    1
    39    16    11   ar
    40    31    32    1
    41     5    10    1
@<TRIPOS>MOLECULE
*****
 38 41 0 0 0
SMALL
GASTEIGER

@<TRIPOS>ATOM
      1 C         -11.6922   -4.1677   18.8327 C.ar    1  UNL1        0.0611
      2 C         -10.3183   -4.7411   19.0160 C.ar    1  UNL1        0.1037
      3 N         -10.4373   -6.2363   19.0232 N.ar    1  UNL1       -0.2269
      4 C         -11.8847   -6.5871   18.8444 C.ar    1  UNL1        0.1407
      5 N         -12.5966   -7.9054   18.7735 N.ar    1  UNL1       -0.3374
      6 C         -14.0842   -7.9452   18.5849 C.ar    1  UNL1        0.0734
      7 C         -14.8598   -6.6667   18.4671 C.ar    1  UNL1        0.0172
      8 C         -14.1478   -5.3484   18.5380 C.ar    1  UNL1        0.0046
      9 C         -12.6603   -5.3086   18.7266 C.ar    1  UNL1        0.0386
     10 H         -12.0876   -8.7445   18.8508 H       1  UNL1        0.1674
     11 C         -16.3474   -6.7066   18.2784 C.ar    1  UNL1        0.0027
     12 C         -16.9595   -6.1547   17.0252 C.ar    1  UNL1        0.0001
     13 C         -18.4471   -6.1946   16.8366 C.ar    1  UNL1        0.0013
     14 C         -19.3225   -6.7864   17.9012 C.ar    1  UNL1        0.0183
     15 C         -18.7103   -7.3383   19.1545 C.ar    1  UNL1        0.1057
     16 C         -17.2228   -7.2984   19.3431 C.ar    1  UNL1        0.0184
     17 S         -19.5857   -7.9302   20.2191 S.O2    1  UNL1        0.0104
     18 C         -20.4611   -8.5220   21.2838 C.3     1  UNL1        0.1816
     19 O         -20.2703   -6.6067   20.3919 O.2     1  UNL1       -0.1686
     20 O         -18.9011   -9.2536   20.0464 O.2     1  UNL1       -0.1686
     21 C         -12.0375   -2.7094   18.7670 C.2     1  UNL1        0.2015
     22 O         -10.9769   -1.6761   19.0062 O.2     1  UNL1       -0.2864
     23 C         -15.8827   -1.8510   19.2445 C.ar    1  UNL1        0.0920
     24 C         -16.2552   -1.4348   17.8523 C.ar    1  UNL1        0.0204
     25 C         -15.2218   -1.4435   16.7651 C.ar    1  UNL1        0.0312
     26 C         -13.8159   -1.8684   17.0699 C.ar    1  UNL1        0.1454
     27 F         -12.7826   -1.8770   15.9827 F       1  UNL1       -0.2040
     28 C         -13.4434   -2.2845   18.4621 C.ar    1  UNL1        0.0951
     29 C         -14.4768   -2.2759   19.5493 C.ar    1  UNL1        0.1598
     30 F         -14.1042   -2.6921   20.9414 F       1  UNL1       -0.2026
     31 N         -16.9160   -1.8423   20.3317 N.pl3   1  UNL1       -0.2166
     32 H         -16.7217   -1.4049   21.1920 H       1  UNL1        0.1734
     33 S         -18.2454   -2.5001   20.1081 S.O2    1  UNL1        0.0540
     34 O         -17.5622   -3.8253   19.9442 O.2     1  UNL1       -0.1545
     35 O         -18.9287   -1.1748   20.2720 O.2     1  UNL1       -0.1545
     36 C         -19.5749   -3.1577   19.8845 C.3     1  UNL1        0.1724
     37 C         -19.3674   -2.7130   17.3331 C.3     1  UNL1        0.0019
     38 C         -20.1498   -3.2360   18.5012 C.3     1  UNL1        0.0273
@<TRIPOS>BOND
     1    37    38    1
     2    38    36    1
     3    36    33    1
     4    33    34    2
     5    33    35    2
     6    33    31    1
     7    31    23    1
     8    23    24   ar
     9    24    25   ar
    10    25    26   ar
    11    26    27    1
    12    26    28   ar
    13    28    21    1
    14    21    22    2
    15    21     1    1
    16     1     2   ar
    17     2     3   ar
    18     3     4   ar
    19     4     5   ar
    20     5     6   ar
    21     6     7   ar
    22     7    11    1
    23    11    12   ar
    24    12    13   ar
    25    13    14   ar
    26    14    15   ar
    27    15    17    1
    28    17    18    1
    29    17    19    2
    30    17    20    2
    31    15    16   ar
    32     7     8   ar
    33     8     9   ar
    34    28    29   ar
    35    29    30    1
    36    29    23   ar
    37     9     1   ar
    38     9     4    1
    39    16    11   ar
    40    31    32    1
    41     5    10    1
@<TRIPOS>MOLECULE
*****
 38 41 0 0 0
SMALL
GASTEIGER

@<TRIPOS>ATOM
      1 C           1.1614    1.0979   22.6486 C.ar    1  UNL1        0.0611
      2 C           0.3398    1.7967   23.6910 C.ar    1  UNL1        0.1037
      3 N           0.8438    1.3734   25.0389 N.ar    1  UNL1       -0.2269
      4 C           1.9768    0.4131   24.8295 C.ar    1  UNL1        0.1407
      5 N           2.8551   -0.3284   25.7932 N.ar    1  UNL1       -0.3374
      6 C           3.9298   -1.2401   25.2796 C.ar    1  UNL1        0.0734
      7 C           4.1261   -1.4104   23.8023 C.ar    1  UNL1        0.0172
      8 C           3.2478   -0.6689   22.8386 C.ar    1  UNL1        0.0046
      9 C           2.1732    0.2428   23.3522 C.ar    1  UNL1        0.0386
     10 H           2.7263   -0.2166   26.7629 H       1  UNL1        0.1674
     11 C           5.2009   -2.3222   23.2887 C.ar    1  UNL1        0.0027
     12 C           5.7006   -2.1747   21.8822 C.ar    1  UNL1        0.0001
     13 C           6.7753   -3.0865   21.3686 C.ar    1  UNL1        0.0013
     14 C           7.3503   -4.1457   22.2616 C.ar    1  UNL1        0.0183
     15 C           6.8505   -4.2931   23.6683 C.ar    1  UNL1        0.1057
     16 C           5.7758   -3.3814   24.1818 C.ar    1  UNL1        0.0184
     17 S           7.4254   -5.3523   24.5613 S.O2    1  UNL1        0.0104
     18 C           8.0004   -6.4115   25.4544 C.3     1  UNL1        0.1816
     19 O           7.8607   -6.1322   23.3562 O.2     1  UNL1       -0.1686
     20 O           6.9902   -4.5725   25.7665 O.2     1  UNL1       -0.1686
     21 C           0.9997    1.2309   21.1633 C.2     1  UNL1        0.2015
     22 O          -0.2991    0.8557   20.5136 O.2     1  UNL1       -0.2864
     23 C           3.8936    1.3629   18.4506 C.ar    1  UNL1        0.0920
     24 C           4.4115    2.7556   18.6561 C.ar    1  UNL1        0.0204
     25 C           3.7921    3.6401   19.6973 C.ar    1  UNL1        0.0312
     26 C           2.6549    3.1319   20.5330 C.ar    1  UNL1        0.1454
     27 F           2.0355    4.0163   21.5742 F       1  UNL1       -0.2040
     28 C           2.1370    1.7392   20.3275 C.ar    1  UNL1        0.0951
     29 C           2.7564    0.8548   19.2863 C.ar    1  UNL1        0.1598
     30 F           2.2385   -0.5380   19.0808 F       1  UNL1       -0.2026
     31 N           4.5130    0.4785   17.4094 N.pl3   1  UNL1       -0.2166
     32 H           4.7072    0.8353   16.5126 H       1  UNL1        0.1734
     33 S           4.8366   -0.9496   17.7345 S.O2    1  UNL1        0.0540
     34 O           5.7601   -0.4922   18.8244 O.2     1  UNL1       -0.1545
     35 O           3.9130   -1.4070   16.6447 O.2     1  UNL1       -0.1545
     36 C           5.1601   -2.3778   18.0596 C.3     1  UNL1        0.1724
     37 C           4.3835   -4.7085   18.9050 C.3     1  UNL1        0.0019
     38 C           4.1509   -3.2332   18.7666 C.3     1  UNL1        0.0273
@<TRIPOS>BOND
     1    37    38    1
     2    38    36    1
     3    36    33    1
     4    33    34    2
     5    33    35    2
     6    33    31    1
     7    31    23    1
     8    23    24   ar
     9    24    25   ar
    10    25    26   ar
    11    26    27    1
    12    26    28   ar
    13    28    21    1
    14    21    22    2
    15    21     1    1
    16     1     2   ar
    17     2     3   ar
    18     3     4   ar
    19     4     5   ar
    20     5     6   ar
    21     6     7   ar
    22     7    11    1
    23    11    12   ar
    24    12    13   ar
    25    13    14   ar
    26    14    15   ar
    27    15    17    1
    28    17    18    1
    29    17    19    2
    30    17    20    2
    31    15    16   ar
    32     7     8   ar
    33     8     9   ar
    34    28    29   ar
    35    29    30    1
    36    29    23   ar
    37     9     1   ar
    38     9     4    1
    39    16    11   ar
    40    31    32    1
    41     5    10    1
@<TRIPOS>MOLECULE
*****
 38 41 0 0 0
SMALL
GASTEIGER

@<TRIPOS>ATOM
      1 C         -10.9574  -18.1367   20.8952 C.ar    1  UNL1        0.0611
      2 C         -12.4087  -17.8219   20.6840 C.ar    1  UNL1        0.1037
      3 N         -12.7912  -16.7337   21.6429 N.ar    1  UNL1       -0.2269
      4 C         -11.5763  -16.3760   22.4467 C.ar    1  UNL1        0.1407
      5 N         -11.3557  -15.3727   23.5397 N.ar    1  UNL1       -0.3374
      6 C         -10.0016  -15.2366   24.1706 C.ar    1  UNL1        0.0734
      7 C          -8.8683  -16.1037   23.7085 C.ar    1  UNL1        0.0172
      8 C          -9.0890  -17.1070   22.6155 C.ar    1  UNL1        0.0046
      9 C         -10.4430  -17.2431   21.9846 C.ar    1  UNL1        0.0386
     10 H         -12.0995  -14.8035   23.8430 H       1  UNL1        0.1674
     11 C          -7.5142  -15.9676   24.3394 C.ar    1  UNL1        0.0027
     12 C          -7.3931  -15.5209   25.7662 C.ar    1  UNL1        0.0001
     13 C          -6.0390  -15.3847   26.3972 C.ar    1  UNL1        0.0013
     14 C          -4.8061  -15.6953   25.6013 C.ar    1  UNL1        0.0183
     15 C          -4.9273  -16.1419   24.1744 C.ar    1  UNL1        0.1057
     16 C          -6.2813  -16.2781   23.5435 C.ar    1  UNL1        0.0184
     17 S          -3.6944  -16.4525   23.3785 S.O2    1  UNL1        0.0104
     18 C          -2.4614  -16.7630   22.5826 C.3     1  UNL1        0.1816
     19 O          -3.5369  -17.7434   24.1260 O.2     1  UNL1       -0.1686
     20 O          -3.8518  -15.1615   22.6310 O.2     1  UNL1       -0.1686
     21 C         -10.1605  -19.1647   20.1482 C.2     1  UNL1        0.2015
     22 O         -10.6770  -19.7188   18.8535 O.2     1  UNL1       -0.2864
     23 C          -6.3202  -20.1431   20.3617 C.ar    1  UNL1        0.0920
     24 C          -6.2198  -20.5867   21.7911 C.ar    1  UNL1        0.0204
     25 C          -7.4329  -20.5564   22.6728 C.ar    1  UNL1        0.0312
     26 C          -8.7464  -20.0824   22.1252 C.ar    1  UNL1        0.1454
     27 F          -9.9596  -20.0521   23.0069 F       1  UNL1       -0.2040
     28 C          -8.8469  -19.6388   20.6958 C.ar    1  UNL1        0.0951
     29 C          -7.6337  -19.6691   19.8141 C.ar    1  UNL1        0.1598
     30 F          -7.7343  -19.2254   18.3847 F       1  UNL1       -0.2026
     31 N          -5.1071  -20.1734   19.4800 N.pl3   1  UNL1       -0.2166
     32 H          -5.1469  -20.6191   18.6031 H       1  UNL1        0.1734
     33 S          -3.8333  -19.5247   19.9344 S.O2    1  UNL1        0.0540
     34 O          -3.2925  -20.8658   20.3331 O.2     1  UNL1       -0.1545
     35 O          -4.3740  -18.1836   19.5358 O.2     1  UNL1       -0.1545
     36 C          -2.5595  -18.8759   20.3888 C.3     1  UNL1        0.1724
     37 C          -0.2232  -17.9312   19.7563 C.3     1  UNL1        0.0019
     38 C          -1.6446  -18.2362   19.3868 C.3     1  UNL1        0.0273
@<TRIPOS>BOND
     1    37    38    1
     2    38    36    1
     3    36    33    1
     4    33    34    2
     5    33    35    2
     6    33    31    1
     7    31    23    1
     8    23    24   ar
     9    24    25   ar
    10    25    26   ar
    11    26    27    1
    12    26    28   ar
    13    28    21    1
    14    21    22    2
    15    21     1    1
    16     1     2   ar
    17     2     3   ar
    18     3     4   ar
    19     4     5   ar
    20     5     6   ar
    21     6     7   ar
    22     7    11    1
    23    11    12   ar
    24    12    13   ar
    25    13    14   ar
    26    14    15   ar
    27    15    17    1
    28    17    18    1
    29    17    19    2
    30    17    20    2
    31    15    16   ar
    32     7     8   ar
    33     8     9   ar
    34    28    29   ar
    35    29    30    1
    36    29    23   ar
    37     9     1   ar
    38     9     4    1
    39    16    11   ar
    40    31    32    1
    41     5    10    1
