@<TRIPOS>MOLECULE
*****
 19 21 0 0 0
SMALL
GASTEIGER

@<TRIPOS>ATOM
      1 C          -2.1882  -18.8948   20.4660 C.2     1  UNL1        0.1223
      2 C          -2.2572  -18.9147   21.9642 C.2     1  UNL1        0.0343
      3 C          -3.5893  -18.9221   22.6537 C.2     1  UNL1        0.0232
      4 C          -4.8525  -18.9095   21.8449 C.2     1  UNL1        0.0975
      5 N          -6.2989  -18.9127   22.2422 N.2     1  UNL1       -0.2200
      6 C          -7.1238  -18.8948   20.9896 C.2     1  UNL1        0.1898
      7 N          -6.1873  -18.8804   19.8180 N.2     1  UNL1       -0.2236
      8 C          -4.7835  -18.8895   20.3466 C.2     1  UNL1        0.0863
      9 C          -3.4513  -18.8821   19.6572 C.3     1  UNL1        0.1112
     10 C           0.0675  -17.7171   19.9417 C.3     1  UNL1        0.2520
     11 O          -0.8560  -18.8874   19.7765 O.2     1  UNL1       -0.4753
     12 S          -8.6223  -18.8917   20.9207 S.3     1  UNL1       -0.0757
     13 C          -9.4230  -19.5958   21.9757 C.3     1  UNL1        0.0651
     14 C         -10.7255  -19.0152   22.4410 C.3     1  UNL1        0.0112
     15 C         -11.6518  -18.3661   21.4558 C.3     1  UNL1        0.0009
     16 C         -12.9542  -17.7855   21.9210 C.3     1  UNL1        0.0000
     17 C         -13.3304  -17.8541   23.3715 C.3     1  UNL1        0.0000
     18 C         -12.4041  -18.5032   24.3567 C.3     1  UNL1        0.0000
     19 C         -11.1016  -19.0838   23.8914 C.3     1  UNL1        0.0009
@<TRIPOS>BOND
     1    10    11    1
     2    11     1    1
     3     1     2    2
     4     2     3    1
     5     3     4    2
     6     4     5    1
     7     5     6    2
     8     6    12    1
     9    12    13    1
    10    13    14    1
    11    14    15    1
    12    15    16    1
    13    16    17    1
    14    17    18    1
    15    18    19    1
    16     6     7    1
    17     7     8    2
    18     8     9    1
    19     9     1    1
    20     8     4    1
    21    19    14    1
@<TRIPOS>MOLECULE
*****
 19 21 0 0 0
SMALL
GASTEIGER

@<TRIPOS>ATOM
      1 C         -12.6545  -18.0042   23.0090 C.2     1  UNL1        0.1223
      2 C         -12.5886  -17.4685   21.6095 C.2     1  UNL1        0.0343
      3 C         -11.3368  -17.6363   20.8003 C.2     1  UNL1        0.0232
      4 C         -10.1509  -18.3400   21.3906 C.2     1  UNL1        0.0975
      5 N          -8.7919  -18.6529   20.8380 N.2     1  UNL1       -0.2200
      6 C          -8.0180  -19.3822   21.8960 C.2     1  UNL1        0.1898
      7 N          -8.8986  -19.5199   23.1025 N.2     1  UNL1       -0.2236
      8 C         -10.2168  -18.8757   22.7901 C.2     1  UNL1        0.0863
      9 C         -11.4686  -18.7079   23.5993 C.3     1  UNL1        0.1112
     10 C         -14.0055  -18.4513   25.1827 C.3     1  UNL1        0.2520
     11 O         -13.9063  -17.8364   23.8181 O.2     1  UNL1       -0.4753
     12 S          -6.6105  -19.8853   21.7696 S.3     1  UNL1       -0.0757
     13 C          -5.8443  -19.6592   20.5000 C.3     1  UNL1        0.0651
     14 C          -4.3976  -19.2672   20.5568 C.3     1  UNL1        0.0112
     15 C          -3.6502  -19.3438   21.8551 C.3     1  UNL1        0.0009
     16 C          -2.2035  -18.9518   21.9119 C.3     1  UNL1        0.0000
     17 C          -1.5040  -18.4833   20.6703 C.3     1  UNL1        0.0000
     18 C          -2.2514  -18.4068   19.3720 C.3     1  UNL1        0.0000
     19 C          -3.6982  -18.7988   19.3153 C.3     1  UNL1        0.0009
@<TRIPOS>BOND
     1    10    11    1
     2    11     1    1
     3     1     2    2
     4     2     3    1
     5     3     4    2
     6     4     5    1
     7     5     6    2
     8     6    12    1
     9    12    13    1
    10    13    14    1
    11    14    15    1
    12    15    16    1
    13    16    17    1
    14    17    18    1
    15    18    19    1
    16     6     7    1
    17     7     8    2
    18     8     9    1
    19     9     1    1
    20     8     4    1
    21    19    14    1
@<TRIPOS>MOLECULE
*****
 19 21 0 0 0
SMALL
GASTEIGER

@<TRIPOS>ATOM
      1 C          -2.8075  -19.5238   20.8328 C.2     1  UNL1        0.1223
      2 C          -3.5963  -20.5617   20.0908 C.2     1  UNL1        0.0343
      3 C          -5.0897  -20.6065   20.2248 C.2     1  UNL1        0.0232
      4 C          -5.7942  -19.6134   21.1008 C.2     1  UNL1        0.0975
      5 N          -7.2447  -19.4134   21.4261 N.2     1  UNL1       -0.2200
      6 C          -7.3525  -18.2519   22.3692 C.2     1  UNL1        0.1898
      7 N          -5.9685  -17.7341   22.6268 N.2     1  UNL1       -0.2236
      8 C          -5.0054  -18.5756   21.8428 C.2     1  UNL1        0.0863
      9 C          -3.5121  -18.5308   21.7088 C.3     1  UNL1        0.1112
     10 C          -0.6639  -18.3745   19.9197 C.3     1  UNL1        0.2520
     11 O          -1.3142  -19.4790   20.6988 O.2     1  UNL1       -0.4753
     12 S          -8.6215  -17.7044   22.9524 S.3     1  UNL1       -0.0757
     13 C          -8.6555  -16.3064   23.4948 C.3     1  UNL1        0.0651
     14 C          -8.0004  -15.9951   24.8077 C.3     1  UNL1        0.0112
     15 C          -6.6437  -15.3557   24.8360 C.3     1  UNL1        0.0009
     16 C          -5.9886  -15.0445   26.1490 C.3     1  UNL1        0.0000
     17 C          -6.6900  -15.3726   27.4337 C.3     1  UNL1        0.0000
     18 C          -8.0466  -16.0119   27.4053 C.3     1  UNL1        0.0000
     19 C          -8.7018  -16.3232   26.0923 C.3     1  UNL1        0.0009
@<TRIPOS>BOND
     1    10    11    1
     2    11     1    1
     3     1     2    2
     4     2     3    1
     5     3     4    2
     6     4     5    1
     7     5     6    2
     8     6    12    1
     9    12    13    1
    10    13    14    1
    11    14    15    1
    12    15    16    1
    13    16    17    1
    14    17    18    1
    15    18    19    1
    16     6     7    1
    17     7     8    2
    18     8     9    1
    19     9     1    1
    20     8     4    1
    21    19    14    1
@<TRIPOS>MOLECULE
*****
 19 21 0 0 0
SMALL
GASTEIGER

@<TRIPOS>ATOM
      1 C          -2.2356  -19.0694   20.8802 C.2     1  UNL1        0.1223
      2 C          -2.8377  -20.1651   20.0514 C.2     1  UNL1        0.0343
      3 C          -4.3142  -20.4236   20.1082 C.2     1  UNL1        0.0232
      4 C          -5.1886  -19.5863   20.9937 C.2     1  UNL1        0.0975
      5 N          -6.6655  -19.6070   21.2551 N.2     1  UNL1       -0.2200
      6 C          -6.9763  -18.5241   22.2454 C.2     1  UNL1        0.1898
      7 N          -5.6914  -17.8341   22.5961 N.2     1  UNL1       -0.2236
      8 C          -4.5866  -18.4906   21.8225 C.2     1  UNL1        0.0863
      9 C          -3.1101  -18.2322   21.7657 C.3     1  UNL1        0.1112
     10 C          -0.2266  -17.6839   19.9892 C.3     1  UNL1        0.2520
     11 O          -0.7592  -18.8110   20.8234 O.2     1  UNL1       -0.4753
     12 S          -8.3336  -18.1899   22.7895 S.3     1  UNL1       -0.0757
     13 C          -9.4632  -19.1653   22.6384 C.3     1  UNL1        0.0651
     14 C         -10.8638  -18.7492   22.9774 C.3     1  UNL1        0.0112
     15 C         -11.4055  -18.9915   24.3551 C.3     1  UNL1        0.0009
     16 C         -12.8061  -18.5754   24.6941 C.3     1  UNL1        0.0000
     17 C         -13.6652  -17.9170   23.6555 C.3     1  UNL1        0.0000
     18 C         -13.1235  -17.6746   22.2779 C.3     1  UNL1        0.0000
     19 C         -11.7228  -18.0908   21.9389 C.3     1  UNL1        0.0009
@<TRIPOS>BOND
     1    10    11    1
     2    11     1    1
     3     1     2    2
     4     2     3    1
     5     3     4    2
     6     4     5    1
     7     5     6    2
     8     6    12    1
     9    12    13    1
    10    13    14    1
    11    14    15    1
    12    15    16    1
    13    16    17    1
    14    17    18    1
    15    18    19    1
    16     6     7    1
    17     7     8    2
    18     8     9    1
    19     9     1    1
    20     8     4    1
    21    19    14    1
@<TRIPOS>MOLECULE
*****
 19 21 0 0 0
SMALL
GASTEIGER

@<TRIPOS>ATOM
      1 C         -11.7678  -17.4358   21.1009 C.2     1  UNL1        0.1223
      2 C         -12.1085  -18.1723   22.3624 C.2     1  UNL1        0.0343
      3 C         -11.0772  -19.0327   23.0304 C.2     1  UNL1        0.0232
      4 C          -9.7052  -19.1566   22.4369 C.2     1  UNL1        0.0975
      5 N          -8.4909  -19.9246   22.8676 N.2     1  UNL1       -0.2200
      6 C          -7.3996  -19.6627   21.8723 C.2     1  UNL1        0.1898
      7 N          -7.9395  -18.7328   20.8265 N.2     1  UNL1       -0.2236
      8 C          -9.3645  -18.4200   21.1755 C.2     1  UNL1        0.0863
      9 C         -10.3958  -17.5596   20.5075 C.3     1  UNL1        0.1112
     10 C         -12.4052  -15.6765   19.2986 C.3     1  UNL1        0.2520
     11 O         -12.7991  -16.5754   20.4329 O.2     1  UNL1       -0.4753
     12 S          -6.0121  -20.2309   21.9154 S.3     1  UNL1       -0.0757
     13 C          -5.2135  -20.3563   20.6518 C.3     1  UNL1        0.0651
     14 C          -3.9635  -19.5470   20.4712 C.3     1  UNL1        0.0112
     15 C          -3.8253  -18.6344   19.2888 C.3     1  UNL1        0.0009
     16 C          -2.5753  -17.8251   19.1082 C.3     1  UNL1        0.0000
     17 C          -1.4636  -17.9285   20.1099 C.3     1  UNL1        0.0000
     18 C          -1.6018  -18.8411   21.2922 C.3     1  UNL1        0.0000
     19 C          -2.8518  -19.6504   21.4729 C.3     1  UNL1        0.0009
@<TRIPOS>BOND
     1    10    11    1
     2    11     1    1
     3     1     2    2
     4     2     3    1
     5     3     4    2
     6     4     5    1
     7     5     6    2
     8     6    12    1
     9    12    13    1
    10    13    14    1
    11    14    15    1
    12    15    16    1
    13    16    17    1
    14    17    18    1
    15    18    19    1
    16     6     7    1
    17     7     8    2
    18     8     9    1
    19     9     1    1
    20     8     4    1
    21    19    14    1
@<TRIPOS>MOLECULE
*****
 19 21 0 0 0
SMALL
GASTEIGER

@<TRIPOS>ATOM
      1 C         -11.2599  -18.7167   22.6988 C.2     1  UNL1        0.1223
      2 C         -11.6851  -18.5284   21.2727 C.2     1  UNL1        0.0343
      3 C         -10.6937  -18.7185   20.1632 C.2     1  UNL1        0.0232
      4 C          -9.2772  -19.0969   20.4797 C.2     1  UNL1        0.0975
      5 N          -8.0865  -19.3509   19.6036 N.2     1  UNL1       -0.2200
      6 C          -6.9253  -19.6962   20.4882 C.2     1  UNL1        0.1898
      7 N          -7.3984  -19.6557   21.9110 N.2     1  UNL1       -0.2236
      8 C          -8.8520  -19.2853   21.9057 C.2     1  UNL1        0.0863
      9 C          -9.8434  -19.0952   23.0153 C.3     1  UNL1        0.1112
     10 C         -13.5309  -17.7873   23.5522 C.3     1  UNL1        0.2520
     11 O         -12.2512  -18.5267   23.8083 O.2     1  UNL1       -0.4753
     12 S          -5.5351  -20.0245   20.0303 S.3     1  UNL1       -0.0757
     13 C          -4.3988  -20.0050   21.0093 C.3     1  UNL1        0.0651
     14 C          -3.4730  -18.8259   21.0605 C.3     1  UNL1        0.0112
     15 C          -2.6288  -18.4829   19.8690 C.3     1  UNL1        0.0009
     16 C          -1.7030  -17.3038   19.9201 C.3     1  UNL1        0.0000
     17 C          -1.6214  -16.4676   21.1628 C.3     1  UNL1        0.0000
     18 C          -2.4657  -16.8106   22.3543 C.3     1  UNL1        0.0000
     19 C          -3.3915  -17.9898   22.3031 C.3     1  UNL1        0.0009
@<TRIPOS>BOND
     1    10    11    1
     2    11     1    1
     3     1     2    2
     4     2     3    1
     5     3     4    2
     6     4     5    1
     7     5     6    2
     8     6    12    1
     9    12    13    1
    10    13    14    1
    11    14    15    1
    12    15    16    1
    13    16    17    1
    14    17    18    1
    15    18    19    1
    16     6     7    1
    17     7     8    2
    18     8     9    1
    19     9     1    1
    20     8     4    1
    21    19    14    1
@<TRIPOS>MOLECULE
*****
 19 21 0 0 0
SMALL
GASTEIGER

@<TRIPOS>ATOM
      1 C          -8.7982  -15.9806   24.5067 C.2     1  UNL1        0.1223
      2 C         -10.0778  -16.2226   23.7624 C.2     1  UNL1        0.0343
      3 C         -10.0767  -17.0697   22.5245 C.2     1  UNL1        0.0232
      4 C          -8.7961  -17.6748   22.0309 C.2     1  UNL1        0.0975
      5 N          -8.4877  -18.5470   20.8501 N.2     1  UNL1       -0.2200
      6 C          -7.0174  -18.8440   20.8647 C.2     1  UNL1        0.1898
      7 N          -6.4172  -18.1554   22.0544 N.2     1  UNL1       -0.2236
      8 C          -7.5165  -17.4328   22.7752 C.2     1  UNL1        0.0863
      9 C          -7.5175  -16.5857   24.0131 C.3     1  UNL1        0.1112
     10 C          -8.1126  -15.6194   26.9865 C.3     1  UNL1        0.2520
     11 O          -8.7992  -15.1334   25.7446 O.2     1  UNL1       -0.4753
     12 S          -6.2774  -19.6825   19.8649 S.3     1  UNL1       -0.0757
     13 C          -5.0092  -20.3783   20.2619 C.3     1  UNL1        0.0651
     14 C          -3.7310  -19.6014   20.3737 C.3     1  UNL1        0.0112
     15 C          -3.1539  -18.9286   19.1636 C.3     1  UNL1        0.0009
     16 C          -1.8756  -18.1518   19.2754 C.3     1  UNL1        0.0000
     17 C          -1.1744  -18.0478   20.5974 C.3     1  UNL1        0.0000
     18 C          -1.7514  -18.7206   21.8075 C.3     1  UNL1        0.0000
     19 C          -3.0298  -19.4974   21.6956 C.3     1  UNL1        0.0009
@<TRIPOS>BOND
     1    10    11    1
     2    11     1    1
     3     1     2    2
     4     2     3    1
     5     3     4    2
     6     4     5    1
     7     5     6    2
     8     6    12    1
     9    12    13    1
    10    13    14    1
    11    14    15    1
    12    15    16    1
    13    16    17    1
    14    17    18    1
    15    18    19    1
    16     6     7    1
    17     7     8    2
    18     8     9    1
    19     9     1    1
    20     8     4    1
    21    19    14    1
@<TRIPOS>MOLECULE
*****
 19 21 0 0 0
SMALL
GASTEIGER

@<TRIPOS>ATOM
      1 C         -11.1474  -17.7232   22.1204 C.2     1  UNL1        0.1223
      2 C         -10.5308  -18.7882   21.2627 C.2     1  UNL1        0.0343
      3 C          -9.0405  -18.9549   21.2293 C.2     1  UNL1        0.0232
      4 C          -8.1667  -18.0567   22.0537 C.2     1  UNL1        0.0975
      5 N          -6.6781  -17.9841   22.2230 N.2     1  UNL1       -0.2200
      6 C          -6.3745  -16.8743   23.1854 C.2     1  UNL1        0.1898
      7 N          -7.6756  -16.2610   23.6109 N.2     1  UNL1       -0.2236
      8 C          -8.7832  -16.9918   22.9114 C.2     1  UNL1        0.0863
      9 C         -10.2736  -16.8250   22.9448 C.3     1  UNL1        0.1112
     10 C         -13.4131  -17.9824   23.3650 C.3     1  UNL1        0.2520
     11 O         -12.6377  -17.5565   22.1538 O.2     1  UNL1       -0.4753
     12 S          -5.0096  -16.4520   23.6422 S.3     1  UNL1       -0.0757
     13 C          -3.8949  -17.4540   23.7005 C.3     1  UNL1        0.0651
     14 C          -3.1110  -17.7767   22.4630 C.3     1  UNL1        0.0112
     15 C          -3.2569  -19.1200   21.8117 C.3     1  UNL1        0.0009
     16 C          -2.4730  -19.4427   20.5743 C.3     1  UNL1        0.0000
     17 C          -1.5431  -18.4221   19.9880 C.3     1  UNL1        0.0000
     18 C          -1.3972  -17.0787   20.6393 C.3     1  UNL1        0.0000
     19 C          -2.1811  -16.7561   21.8768 C.3     1  UNL1        0.0009
@<TRIPOS>BOND
     1    10    11    1
     2    11     1    1
     3     1     2    2
     4     2     3    1
     5     3     4    2
     6     4     5    1
     7     5     6    2
     8     6    12    1
     9    12    13    1
    10    13    14    1
    11    14    15    1
    12    15    16    1
    13    16    17    1
    14    17    18    1
    15    18    19    1
    16     6     7    1
    17     7     8    2
    18     8     9    1
    19     9     1    1
    20     8     4    1
    21    19    14    1
@<TRIPOS>MOLECULE
*****
 19 21 0 0 0
SMALL
GASTEIGER

@<TRIPOS>ATOM
      1 C          -5.4013  -16.2147   24.0497 C.2     1  UNL1        0.1223
      2 C          -4.3669  -17.2452   23.7064 C.2     1  UNL1        0.0343
      3 C          -4.6833  -18.3233   22.7126 C.2     1  UNL1        0.0232
      4 C          -6.0340  -18.3709   22.0622 C.2     1  UNL1        0.0975
      5 N          -6.6298  -19.3074   21.0533 N.2     1  UNL1       -0.2200
      6 C          -8.0325  -18.8557   20.7731 C.2     1  UNL1        0.1898
      7 N          -8.3036  -17.6400   21.6088 N.2     1  UNL1       -0.2236
      8 C          -7.0684  -17.3403   22.4055 C.2     1  UNL1        0.0863
      9 C          -6.7521  -16.2622   23.3993 C.3     1  UNL1        0.1112
     10 C          -5.8054  -15.0936   26.3584 C.3     1  UNL1        0.2520
     11 O          -5.0849  -15.1366   25.0435 O.2     1  UNL1       -0.4753
     12 S          -8.9950  -19.5056   19.8237 S.3     1  UNL1       -0.0757
     13 C         -10.3459  -19.9426   20.3076 C.3     1  UNL1        0.0651
     14 C         -11.1579  -19.0361   21.1844 C.3     1  UNL1        0.0112
     15 C         -11.3211  -19.3509   22.6419 C.3     1  UNL1        0.0009
     16 C         -12.1331  -18.4443   23.5186 C.3     1  UNL1        0.0000
     17 C         -12.7820  -17.2229   22.9379 C.3     1  UNL1        0.0000
     18 C         -12.6188  -16.9081   21.4804 C.3     1  UNL1        0.0000
     19 C         -11.8067  -17.8147   20.6037 C.3     1  UNL1        0.0009
@<TRIPOS>BOND
     1    10    11    1
     2    11     1    1
     3     1     2    2
     4     2     3    1
     5     3     4    2
     6     4     5    1
     7     5     6    2
     8     6    12    1
     9    12    13    1
    10    13    14    1
    11    14    15    1
    12    15    16    1
    13    16    17    1
    14    17    18    1
    15    18    19    1
    16     6     7    1
    17     7     8    2
    18     8     9    1
    19     9     1    1
    20     8     4    1
    21    19    14    1
