@<TRIPOS>MOLECULE
*****
 28 31 0 0 0
SMALL
GASTEIGER

@<TRIPOS>ATOM
      1 C           8.4299   -3.9131   23.1409 C.3     1  UNL1        0.0233
      2 C           7.1599   -3.2314   23.5560 C.3     1  UNL1        0.0956
      3 C           7.0860   -2.5223   24.8757 C.3     1  UNL1        0.1135
      4 N           5.8160   -1.8405   25.2908 N.am    1  UNL1       -0.2726
      5 C           5.7422   -1.1315   26.6106 C.2     1  UNL1        0.2491
      6 O           6.9383   -1.1042   27.5153 O.2     1  UNL1       -0.2699
      7 C           4.6199   -1.8678   24.3862 C.3     1  UNL1        0.1152
      8 C           4.6937   -2.5768   23.0664 C.3     1  UNL1        0.1153
      9 N           5.9637   -3.2586   22.6513 N.am    1  UNL1       -0.2716
     10 C           6.0376   -3.9676   21.3315 C.2     1  UNL1        0.2883
     11 O           7.3076   -4.6494   20.9165 O.2     1  UNL1       -0.2664
     12 C           4.4722   -0.4497   27.0257 C.ar    1  UNL1        0.0536
     13 C           4.1855    0.9480   26.5631 C.ar    1  UNL1        0.0045
     14 C           2.9155    1.6298   26.9782 C.ar    1  UNL1        0.0001
     15 C           1.9321    0.9138   27.8559 C.ar    1  UNL1        0.0000
     16 C           2.2188   -0.4840   28.3184 C.ar    1  UNL1        0.0001
     17 C           3.4888   -1.1658   27.9033 C.ar    1  UNL1        0.0045
     18 C           4.8414   -3.9949   20.4268 C.2     1  UNL1        0.2502
     19 O           3.7988   -5.0601   20.5941 O.2     1  UNL1       -0.2817
     20 C           4.6880   -2.9569   19.3548 C.2     1  UNL1        0.0639
     21 C           5.5657   -2.7987   18.1487 C.2     1  UNL1        0.1019
     22 N           5.0501   -1.6389   17.3493 N.2     1  UNL1       -0.2460
     23 C           3.8538   -1.0804   18.0613 C.2     1  UNL1        0.0837
     24 C           2.9394    0.0646   17.7410 C.3     1  UNL1        0.1708
     25 N           1.8011    0.3951   18.6603 N.2     1  UNL1       -0.2624
     26 C           1.5773   -0.4195   19.8998 C.2     1  UNL1        0.0936
     27 C           2.4918   -1.5645   20.2200 C.2     1  UNL1        0.0216
     28 C           3.6300   -1.8950   19.3008 C.2     1  UNL1        0.0218
@<TRIPOS>BOND
     1     2     1    1
     2     2     3    1
     3     3     4    1
     4     4     5   am
     5     5     6    2
     6     5    12    1
     7    12    13   ar
     8    13    14   ar
     9    14    15   ar
    10    15    16   ar
    11    16    17   ar
    12     4     7    1
    13     7     8    1
    14     8     9    1
    15     9    10   am
    16    10    11    2
    17    10    18    1
    18    18    19    2
    19    18    20    1
    20    20    21    2
    21    21    22    1
    22    22    23    2
    23    23    24    1
    24    24    25    1
    25    25    26    2
    26    26    27    1
    27    27    28    2
    28     9     2    1
    29    28    20    1
    30    17    12   ar
    31    28    23    1
@<TRIPOS>MOLECULE
*****
 28 31 0 0 0
SMALL
GASTEIGER

@<TRIPOS>ATOM
      1 C           7.2145   -7.0989   26.6087 C.3     1  UNL1        0.0233
      2 C           7.1174   -5.8387   27.4165 C.3     1  UNL1        0.0956
      3 C           7.0246   -5.9116   28.9119 C.3     1  UNL1        0.1135
      4 N           6.9276   -4.6515   29.7196 N.am    1  UNL1       -0.2726
      5 C           6.8348   -4.7245   31.2150 C.2     1  UNL1        0.2491
      6 O           6.8391   -6.0576   31.9026 O.2     1  UNL1       -0.2699
      7 C           6.9233   -3.3183   29.0322 C.3     1  UNL1        0.1152
      8 C           7.0161   -3.2454   27.5368 C.3     1  UNL1        0.1153
      9 N           7.1131   -4.5056   26.7290 N.am    1  UNL1       -0.2716
     10 C           7.2059   -4.4326   25.2337 C.2     1  UNL1        0.2883
     11 O           7.3029   -5.6928   24.4259 O.2     1  UNL1       -0.2664
     12 C           6.7377   -3.4643   32.0228 C.ar    1  UNL1        0.0536
     13 C           5.3994   -2.9745   32.4906 C.ar    1  UNL1        0.0045
     14 C           5.3024   -1.7143   33.2983 C.ar    1  UNL1        0.0001
     15 C           6.5437   -0.9439   33.6384 C.ar    1  UNL1        0.0000
     16 C           7.8820   -1.4338   33.1707 C.ar    1  UNL1        0.0001
     17 C           7.9791   -2.6940   32.3629 C.ar    1  UNL1        0.0045
     18 C           7.2016   -3.0994   24.5461 C.2     1  UNL1        0.2502
     19 O           8.4205   -2.2267   24.5946 O.2     1  UNL1       -0.2817
     20 C           5.9783   -2.6391   23.8101 C.2     1  UNL1        0.0639
     21 C           4.8434   -1.8503   24.3929 C.2     1  UNL1        0.1019
     22 N           3.8389   -1.6105   23.3050 N.2     1  UNL1       -0.2460
     23 C           4.3530   -2.2510   22.0498 C.2     1  UNL1        0.0837
     24 C           3.7880   -2.3376   20.6631 C.3     1  UNL1        0.1708
     25 N           4.5453   -3.0598   19.5884 N.2     1  UNL1       -0.2624
     26 C           5.8675   -3.6956   19.9006 C.2     1  UNL1        0.0936
     27 C           6.4325   -3.6090   21.2874 C.2     1  UNL1        0.0216
     28 C           5.6753   -2.8868   22.3620 C.2     1  UNL1        0.0218
@<TRIPOS>BOND
     1     2     1    1
     2     2     3    1
     3     3     4    1
     4     4     5   am
     5     5     6    2
     6     5    12    1
     7    12    13   ar
     8    13    14   ar
     9    14    15   ar
    10    15    16   ar
    11    16    17   ar
    12     4     7    1
    13     7     8    1
    14     8     9    1
    15     9    10   am
    16    10    11    2
    17    10    18    1
    18    18    19    2
    19    18    20    1
    20    20    21    2
    21    21    22    1
    22    22    23    2
    23    23    24    1
    24    24    25    1
    25    25    26    2
    26    26    27    1
    27    27    28    2
    28     9     2    1
    29    28    20    1
    30    17    12   ar
    31    28    23    1
@<TRIPOS>MOLECULE
*****
 28 31 0 0 0
SMALL
GASTEIGER

@<TRIPOS>ATOM
      1 C           6.1441   -3.5223   25.1982 C.3     1  UNL1        0.0233
      2 C           5.2951   -2.5418   24.4447 C.3     1  UNL1        0.0956
      3 C           4.9947   -2.7701   22.9929 C.3     1  UNL1        0.1135
      4 N           4.1456   -1.7896   22.2395 N.am    1  UNL1       -0.2726
      5 C           3.8452   -2.0180   20.7877 C.2     1  UNL1        0.2491
      6 O           4.3939   -3.2269   20.0894 O.2     1  UNL1       -0.2699
      7 C           3.5969   -0.5808   22.9377 C.3     1  UNL1        0.1152
      8 C           3.8973   -0.3524   24.3895 C.3     1  UNL1        0.1153
      9 N           4.7464   -1.3329   25.1429 N.am    1  UNL1       -0.2716
     10 C           5.0468   -1.1046   26.5947 C.2     1  UNL1        0.2883
     11 O           5.8959   -2.0850   27.3481 O.2     1  UNL1       -0.2664
     12 C           2.9962   -1.0375   20.0342 C.ar    1  UNL1        0.0536
     13 C           1.5511   -0.8632   20.3964 C.ar    1  UNL1        0.0045
     14 C           0.7020    0.1173   19.6430 C.ar    1  UNL1        0.0001
     15 C           1.2981    0.9235   18.5272 C.ar    1  UNL1        0.0000
     16 C           2.7432    0.7491   18.1651 C.ar    1  UNL1        0.0001
     17 C           3.5922   -0.2314   18.9185 C.ar    1  UNL1        0.0045
     18 C           4.4981    0.1044   27.2930 C.2     1  UNL1        0.2502
     19 O           5.1423    1.4438   27.0912 O.2     1  UNL1       -0.2817
     20 C           3.3054   -0.0263   28.1932 C.2     1  UNL1        0.0639
     21 C           3.2962   -0.6424   29.5608 C.2     1  UNL1        0.1019
     22 N           1.8975   -0.5607   30.0965 N.2     1  UNL1       -0.2460
     23 C           1.0422    0.1058   29.0600 C.2     1  UNL1        0.0837
     24 C          -0.4164    0.4547   29.0353 C.3     1  UNL1        0.1708
     25 N          -1.0049    1.1338   27.8343 N.2     1  UNL1       -0.2624
     26 C          -0.1348    1.4640   26.6580 C.2     1  UNL1        0.0936
     27 C           1.3239    1.1152   26.6826 C.2     1  UNL1        0.0216
     28 C           1.9124    0.4361   27.8836 C.2     1  UNL1        0.0218
@<TRIPOS>BOND
     1     2     1    1
     2     2     3    1
     3     3     4    1
     4     4     5   am
     5     5     6    2
     6     5    12    1
     7    12    13   ar
     8    13    14   ar
     9    14    15   ar
    10    15    16   ar
    11    16    17   ar
    12     4     7    1
    13     7     8    1
    14     8     9    1
    15     9    10   am
    16    10    11    2
    17    10    18    1
    18    18    19    2
    19    18    20    1
    20    20    21    2
    21    21    22    1
    22    22    23    2
    23    23    24    1
    24    24    25    1
    25    25    26    2
    26    26    27    1
    27    27    28    2
    28     9     2    1
    29    28    20    1
    30    17    12   ar
    31    28    23    1
@<TRIPOS>MOLECULE
*****
 28 31 0 0 0
SMALL
GASTEIGER

@<TRIPOS>ATOM
      1 C           8.9835   -7.6372   23.8838 C.3     1  UNL1        0.0233
      2 C           8.7156   -6.6100   24.9435 C.3     1  UNL1        0.0956
      3 C           8.8382   -6.9777   26.3926 C.3     1  UNL1        0.1135
      4 N           8.5704   -5.9505   27.4523 N.am    1  UNL1       -0.2726
      5 C           8.6930   -6.3183   28.9014 C.2     1  UNL1        0.2491
      6 O           9.0835   -7.7133   29.2907 O.2     1  UNL1       -0.2699
      7 C           8.1799   -4.5555   27.0631 C.3     1  UNL1        0.1152
      8 C           8.0573   -4.1878   25.6140 C.3     1  UNL1        0.1153
      9 N           8.3252   -5.2150   24.5543 N.am    1  UNL1       -0.2716
     10 C           8.2026   -4.8473   23.1052 C.2     1  UNL1        0.2883
     11 O           8.4704   -5.8745   22.0455 O.2     1  UNL1       -0.2664
     12 C           8.4251   -5.2911   29.9611 C.ar    1  UNL1        0.0536
     13 C           9.5329   -4.3998   30.4388 C.ar    1  UNL1        0.0045
     14 C           9.2650   -3.3726   31.4986 C.ar    1  UNL1        0.0001
     15 C           7.8893   -3.2366   32.0806 C.ar    1  UNL1        0.0000
     16 C           6.7814   -4.1279   31.6029 C.ar    1  UNL1        0.0001
     17 C           7.0493   -5.1551   30.5431 C.ar    1  UNL1        0.0045
     18 C           7.8120   -3.4522   22.7159 C.2     1  UNL1        0.2502
     19 O           8.8494   -2.3702   22.6632 O.2     1  UNL1       -0.2817
     20 C           6.3841   -3.1394   22.3793 C.2     1  UNL1        0.0639
     21 C           5.2718   -2.9301   23.3636 C.2     1  UNL1        0.1019
     22 N           4.0181   -2.6423   22.5919 N.2     1  UNL1       -0.2460
     23 C           4.3557   -2.6737   21.1307 C.2     1  UNL1        0.0837
     24 C           3.5204   -2.4623   19.9029 C.3     1  UNL1        0.1708
     25 N           4.1475   -2.5580   18.5437 N.2     1  UNL1       -0.2624
     26 C           5.6098   -2.8653   18.4123 C.2     1  UNL1        0.0936
     27 C           6.4451   -3.0767   19.6401 C.2     1  UNL1        0.0216
     28 C           5.8180   -2.9810   20.9993 C.2     1  UNL1        0.0218
@<TRIPOS>BOND
     1     2     1    1
     2     2     3    1
     3     3     4    1
     4     4     5   am
     5     5     6    2
     6     5    12    1
     7    12    13   ar
     8    13    14   ar
     9    14    15   ar
    10    15    16   ar
    11    16    17   ar
    12     4     7    1
    13     7     8    1
    14     8     9    1
    15     9    10   am
    16    10    11    2
    17    10    18    1
    18    18    19    2
    19    18    20    1
    20    20    21    2
    21    21    22    1
    22    22    23    2
    23    23    24    1
    24    24    25    1
    25    25    26    2
    26    26    27    1
    27    27    28    2
    28     9     2    1
    29    28    20    1
    30    17    12   ar
    31    28    23    1
@<TRIPOS>MOLECULE
*****
 28 31 0 0 0
SMALL
GASTEIGER

@<TRIPOS>ATOM
      1 C           3.3549    3.9007   21.5862 C.3     1  UNL1        0.0233
      2 C           2.7146    2.9123   22.5153 C.3     1  UNL1        0.0956
      3 C           2.4266    3.2965   23.9364 C.3     1  UNL1        0.1135
      4 N           1.7863    2.3081   24.8655 N.am    1  UNL1       -0.2726
      5 C           1.4984    2.6924   26.2866 C.2     1  UNL1        0.2491
      6 O           1.8508    4.0648   26.7787 O.2     1  UNL1       -0.2699
      7 C           1.4339    0.9357   24.3735 C.3     1  UNL1        0.1152
      8 C           1.7218    0.5516   22.9524 C.3     1  UNL1        0.1153
      9 N           2.3621    1.5399   22.0233 N.am    1  UNL1       -0.2716
     10 C           2.6501    1.1558   20.6022 C.2     1  UNL1        0.2883
     11 O           3.2904    2.1441   19.6732 O.2     1  UNL1       -0.2664
     12 C           0.8581    1.7040   27.2156 C.ar    1  UNL1        0.0536
     13 C           1.7096    0.7435   27.9917 C.ar    1  UNL1        0.0045
     14 C           1.0692   -0.2448   28.9207 C.ar    1  UNL1        0.0001
     15 C          -0.4227   -0.2726   29.0738 C.ar    1  UNL1        0.0000
     16 C          -1.2742    0.6879   28.2978 C.ar    1  UNL1        0.0001
     17 C          -0.6338    1.6762   27.3687 C.ar    1  UNL1        0.0045
     18 C           2.2976   -0.2168   20.1102 C.2     1  UNL1        0.2502
     19 O           0.8619   -0.6471   20.0528 O.2     1  UNL1       -0.2817
     20 C           3.3810   -1.1588   19.6755 C.2     1  UNL1        0.0639
     21 C           3.9198   -1.3005   18.2829 C.2     1  UNL1        0.1019
     22 N           4.9875   -2.3538   18.3039 N.2     1  UNL1       -0.2460
     23 C           5.1086   -2.8632   19.7096 C.2     1  UNL1        0.0837
     24 C           5.9947   -3.9040   20.3272 C.3     1  UNL1        0.1708
     25 N           5.8878   -4.2063   21.7925 N.2     1  UNL1       -0.2624
     26 C           4.8949   -3.4677   22.6402 C.2     1  UNL1        0.0936
     27 C           4.0088   -2.4269   22.0226 C.2     1  UNL1        0.0216
     28 C           4.1157   -2.1246   20.5573 C.2     1  UNL1        0.0218
@<TRIPOS>BOND
     1     2     1    1
     2     2     3    1
     3     3     4    1
     4     4     5   am
     5     5     6    2
     6     5    12    1
     7    12    13   ar
     8    13    14   ar
     9    14    15   ar
    10    15    16   ar
    11    16    17   ar
    12     4     7    1
    13     7     8    1
    14     8     9    1
    15     9    10   am
    16    10    11    2
    17    10    18    1
    18    18    19    2
    19    18    20    1
    20    20    21    2
    21    21    22    1
    22    22    23    2
    23    23    24    1
    24    24    25    1
    25    25    26    2
    26    26    27    1
    27    27    28    2
    28     9     2    1
    29    28    20    1
    30    17    12   ar
    31    28    23    1
@<TRIPOS>MOLECULE
*****
 28 31 0 0 0
SMALL
GASTEIGER

@<TRIPOS>ATOM
      1 C           3.2951   -0.6600   23.7494 C.3     1  UNL1        0.0233
      2 C           4.1985   -1.8214   23.4581 C.3     1  UNL1        0.0956
      3 C           4.9735   -2.4659   24.5689 C.3     1  UNL1        0.1135
      4 N           5.8769   -3.6274   24.2776 N.am    1  UNL1       -0.2726
      5 C           6.6518   -4.2718   25.3885 C.2     1  UNL1        0.2491
      6 O           6.5234   -3.7549   26.7908 O.2     1  UNL1       -0.2699
      7 C           6.0054   -4.1444   22.8754 C.3     1  UNL1        0.1152
      8 C           5.2304   -3.4999   21.7645 C.3     1  UNL1        0.1153
      9 N           4.3270   -2.3384   22.0559 N.am    1  UNL1       -0.2716
     10 C           3.5520   -1.6939   20.9450 C.2     1  UNL1        0.2883
     11 O           2.6486   -0.5325   21.2363 O.2     1  UNL1       -0.2664
     12 C           7.5553   -5.4332   25.0972 C.ar    1  UNL1        0.0536
     13 C           8.6310   -5.3049   24.0598 C.ar    1  UNL1        0.0045
     14 C           9.5344   -6.4664   23.7684 C.ar    1  UNL1        0.0001
     15 C           9.3621   -7.7562   24.5145 C.ar    1  UNL1        0.0000
     16 C           8.2864   -7.8845   25.5520 C.ar    1  UNL1        0.0001
     17 C           7.3830   -6.7231   25.8433 C.ar    1  UNL1        0.0045
     18 C           3.6805   -2.2109   19.5427 C.2     1  UNL1        0.2502
     19 O           3.1208   -3.5557   19.1850 O.2     1  UNL1       -0.2817
     20 C           4.3686   -1.3830   18.4982 C.2     1  UNL1        0.0639
     21 C           3.8255   -1.0461   17.1412 C.2     1  UNL1        0.1019
     22 N           4.8420   -0.2015   16.4317 N.2     1  UNL1       -0.2460
     23 C           6.0133   -0.0163   17.3503 C.2     1  UNL1        0.0837
     24 C           7.3085    0.7229   17.1887 C.3     1  UNL1        0.1708
     25 N           8.3110    0.7319   18.3044 N.2     1  UNL1       -0.2624
     26 C           8.0185    0.0017   19.5816 C.2     1  UNL1        0.0936
     27 C           6.7233   -0.7375   19.7431 C.2     1  UNL1        0.0216
     28 C           5.7208   -0.7465   18.6275 C.2     1  UNL1        0.0218
@<TRIPOS>BOND
     1     2     1    1
     2     2     3    1
     3     3     4    1
     4     4     5   am
     5     5     6    2
     6     5    12    1
     7    12    13   ar
     8    13    14   ar
     9    14    15   ar
    10    15    16   ar
    11    16    17   ar
    12     4     7    1
    13     7     8    1
    14     8     9    1
    15     9    10   am
    16    10    11    2
    17    10    18    1
    18    18    19    2
    19    18    20    1
    20    20    21    2
    21    21    22    1
    22    22    23    2
    23    23    24    1
    24    24    25    1
    25    25    26    2
    26    26    27    1
    27    27    28    2
    28     9     2    1
    29    28    20    1
    30    17    12   ar
    31    28    23    1
@<TRIPOS>MOLECULE
*****
 28 31 0 0 0
SMALL
GASTEIGER

@<TRIPOS>ATOM
      1 C           7.9953   -1.1253   24.4563 C.3     1  UNL1        0.0233
      2 C           6.5099   -1.0574   24.6541 C.3     1  UNL1        0.0956
      3 C           5.9433   -0.3269   25.8354 C.3     1  UNL1        0.1135
      4 N           4.4579   -0.2589   26.0332 N.am    1  UNL1       -0.2726
      5 C           3.8914    0.4716   27.2145 C.2     1  UNL1        0.2491
      6 O           4.8100    1.1341   28.1979 O.2     1  UNL1       -0.2699
      7 C           3.5392   -0.9214   25.0498 C.3     1  UNL1        0.1152
      8 C           4.1059   -1.6519   23.8686 C.3     1  UNL1        0.1153
      9 N           5.5912   -1.7198   23.6708 N.am    1  UNL1       -0.2716
     10 C           6.1579   -2.4503   22.4895 C.2     1  UNL1        0.2883
     11 O           7.6432   -2.5183   22.2917 O.2     1  UNL1       -0.2664
     12 C           2.4060    0.5395   27.4123 C.ar    1  UNL1        0.0536
     13 C           1.7534   -0.2845   28.4823 C.ar    1  UNL1        0.0045
     14 C           0.2681   -0.2165   28.6802 C.ar    1  UNL1        0.0001
     15 C          -0.5647    0.6755   27.8079 C.ar    1  UNL1        0.0000
     16 C           0.0879    1.4996   26.7379 C.ar    1  UNL1        0.0001
     17 C           1.5733    1.4316   26.5401 C.ar    1  UNL1        0.0045
     18 C           5.2391   -3.1128   21.5061 C.2     1  UNL1        0.2502
     19 O           4.4683   -4.3357   21.9062 O.2     1  UNL1       -0.2817
     20 C           5.0914   -2.5524   20.1226 C.2     1  UNL1        0.0639
     21 C           5.9779   -2.8524   18.9504 C.2     1  UNL1        0.1019
     22 N           5.4656   -2.0789   17.7718 N.2     1  UNL1       -0.2460
     23 C           4.2623   -1.3009   18.2155 C.2     1  UNL1        0.0837
     24 C           3.3474   -0.3638   17.4843 C.3     1  UNL1        0.1708
     25 N           2.2012    0.2807   18.2059 N.2     1  UNL1       -0.2624
     26 C           1.9699   -0.0119   19.6588 C.2     1  UNL1        0.0936
     27 C           2.8848   -0.9490   20.3900 C.2     1  UNL1        0.0216
     28 C           4.0310   -1.5935   19.6684 C.2     1  UNL1        0.0218
@<TRIPOS>BOND
     1     2     1    1
     2     2     3    1
     3     3     4    1
     4     4     5   am
     5     5     6    2
     6     5    12    1
     7    12    13   ar
     8    13    14   ar
     9    14    15   ar
    10    15    16   ar
    11    16    17   ar
    12     4     7    1
    13     7     8    1
    14     8     9    1
    15     9    10   am
    16    10    11    2
    17    10    18    1
    18    18    19    2
    19    18    20    1
    20    20    21    2
    21    21    22    1
    22    22    23    2
    23    23    24    1
    24    24    25    1
    25    25    26    2
    26    26    27    1
    27    27    28    2
    28     9     2    1
    29    28    20    1
    30    17    12   ar
    31    28    23    1
@<TRIPOS>MOLECULE
*****
 28 31 0 0 0
SMALL
GASTEIGER

@<TRIPOS>ATOM
      1 C           2.9861    2.1723   35.0542 C.3     1  UNL1        0.0233
      2 C           2.7873    1.7209   33.6376 C.3     1  UNL1        0.0956
      3 C           1.9736    2.5539   32.6921 C.3     1  UNL1        0.1135
      4 N           1.7749    2.1025   31.2756 N.am    1  UNL1       -0.2726
      5 C           0.9611    2.9356   30.3301 C.2     1  UNL1        0.2491
      6 O           0.3462    4.2201   30.8012 O.2     1  UNL1       -0.2699
      7 C           2.3897    0.8180   30.8044 C.3     1  UNL1        0.1152
      8 C           3.2034   -0.0150   31.7499 C.3     1  UNL1        0.1153
      9 N           3.4022    0.4364   33.1664 N.am    1  UNL1       -0.2716
     10 C           4.2159   -0.3967   34.1119 C.2     1  UNL1        0.2883
     11 O           4.4147    0.0548   35.5285 O.2     1  UNL1       -0.2664
     12 C           0.7624    2.4842   28.9136 C.ar    1  UNL1        0.0536
     13 C           1.6529    3.0096   27.8269 C.ar    1  UNL1        0.0045
     14 C           1.4541    2.5582   26.4103 C.ar    1  UNL1        0.0001
     15 C           0.3647    1.5812   26.0804 C.ar    1  UNL1        0.0000
     16 C          -0.5257    1.0557   27.1670 C.ar    1  UNL1        0.0001
     17 C          -0.3270    1.5072   28.5836 C.ar    1  UNL1        0.0045
     18 C           4.8309   -1.6812   33.6408 C.2     1  UNL1        0.2502
     19 O           4.0109   -2.9367   33.6062 O.2     1  UNL1       -0.2817
     20 C           6.2657   -1.7101   33.2044 C.2     1  UNL1        0.0639
     21 C           7.2726   -0.6179   33.4123 C.2     1  UNL1        0.1019
     22 N           8.5747   -1.0691   32.8197 N.2     1  UNL1       -0.2460
     23 C           8.3725   -2.4401   32.2457 C.2     1  UNL1        0.0837
     24 C           9.3034   -3.3789   31.5372 C.3     1  UNL1        0.1708
     25 N           8.8073   -4.7138   31.0664 N.2     1  UNL1       -0.2624
     26 C           7.3802   -5.1100   31.3041 C.2     1  UNL1        0.0936
     27 C           6.4492   -4.1712   32.0126 C.2     1  UNL1        0.0216
     28 C           6.9454   -2.8362   32.4834 C.2     1  UNL1        0.0218
@<TRIPOS>BOND
     1     2     1    1
     2     2     3    1
     3     3     4    1
     4     4     5   am
     5     5     6    2
     6     5    12    1
     7    12    13   ar
     8    13    14   ar
     9    14    15   ar
    10    15    16   ar
    11    16    17   ar
    12     4     7    1
    13     7     8    1
    14     8     9    1
    15     9    10   am
    16    10    11    2
    17    10    18    1
    18    18    19    2
    19    18    20    1
    20    20    21    2
    21    21    22    1
    22    22    23    2
    23    23    24    1
    24    24    25    1
    25    25    26    2
    26    26    27    1
    27    27    28    2
    28     9     2    1
    29    28    20    1
    30    17    12   ar
    31    28    23    1
@<TRIPOS>MOLECULE
*****
 28 31 0 0 0
SMALL
GASTEIGER

@<TRIPOS>ATOM
      1 C          -1.3542    3.9288   21.1110 C.3     1  UNL1        0.0233
      2 C          -0.7217    3.0468   22.1464 C.3     1  UNL1        0.0956
      3 C          -0.9817    3.2946   23.6028 C.3     1  UNL1        0.1135
      4 N          -0.3492    2.4127   24.6382 N.am    1  UNL1       -0.2726
      5 C          -0.6093    2.6605   26.0946 C.2     1  UNL1        0.2491
      6 O          -1.5018    3.7901   26.5156 O.2     1  UNL1       -0.2699
      7 C           0.5433    1.2830   24.2174 C.3     1  UNL1        0.1152
      8 C           0.8034    1.0353   22.7610 C.3     1  UNL1        0.1153
      9 N           0.1709    1.9172   21.7256 N.am    1  UNL1       -0.2716
     10 C           0.4309    1.6694   20.2692 C.2     1  UNL1        0.2883
     11 O          -0.2016    2.5514   19.2338 O.2     1  UNL1       -0.2664
     12 C           0.0232    1.7785   27.1301 C.ar    1  UNL1        0.0536
     13 C          -0.7907    0.7184   27.8109 C.ar    1  UNL1        0.0045
     14 C          -0.1582   -0.1635   28.8463 C.ar    1  UNL1        0.0001
     15 C           1.2883    0.0147   29.2010 C.ar    1  UNL1        0.0000
     16 C           2.1022    1.0748   28.5202 C.ar    1  UNL1        0.0001
     17 C           1.4697    1.9567   27.4847 C.ar    1  UNL1        0.0045
     18 C           1.3235    0.5397   19.8483 C.2     1  UNL1        0.2502
     19 O           0.9108   -0.8788   20.1077 O.2     1  UNL1       -0.2817
     20 C           2.6287    0.8286   19.1679 C.2     1  UNL1        0.0639
     21 C           3.1644    2.1881   18.8291 C.2     1  UNL1        0.1019
     22 N           4.4942    2.0084   18.1587 N.2     1  UNL1       -0.2460
     23 C           4.7804    0.5379   18.0832 C.2     1  UNL1        0.0837
     24 C           5.9418   -0.2313   17.5271 C.3     1  UNL1        0.1708
     25 N           5.9503   -1.7297   17.5948 N.2     1  UNL1       -0.2624
     26 C           4.7974   -2.4589   18.2185 C.2     1  UNL1        0.0936
     27 C           3.6359   -1.6897   18.7746 C.2     1  UNL1        0.0216
     28 C           3.6274   -0.1913   18.7070 C.2     1  UNL1        0.0218
@<TRIPOS>BOND
     1     2     1    1
     2     2     3    1
     3     3     4    1
     4     4     5   am
     5     5     6    2
     6     5    12    1
     7    12    13   ar
     8    13    14   ar
     9    14    15   ar
    10    15    16   ar
    11    16    17   ar
    12     4     7    1
    13     7     8    1
    14     8     9    1
    15     9    10   am
    16    10    11    2
    17    10    18    1
    18    18    19    2
    19    18    20    1
    20    20    21    2
    21    21    22    1
    22    22    23    2
    23    23    24    1
    24    24    25    1
    25    25    26    2
    26    26    27    1
    27    27    28    2
    28     9     2    1
    29    28    20    1
    30    17    12   ar
    31    28    23    1
