@<TRIPOS>MOLECULE
*****
 28 31 0 0 0
SMALL
GASTEIGER

@<TRIPOS>ATOM
      1 O           8.0922   -2.4732   21.4595 O.2     1  UNL1       -0.1683
      2 S           7.2895   -3.6397   20.9645 S.O2    1  UNL1        0.0143
      3 O           6.4867   -4.8061   20.4695 O.2     1  UNL1       -0.1683
      4 C           6.1376   -2.7237   20.6743 C.ar    1  UNL1        0.1252
      5 C           4.7811   -3.2938   20.3826 C.ar    1  UNL1        0.0228
      6 C           3.6293   -2.3778   20.0924 C.ar    1  UNL1        0.0356
      7 C           3.8338   -0.8919   20.0938 C.ar    1  UNL1        0.1318
      8 N           5.1903   -0.3218   20.3854 N.ar    1  UNL1       -0.2278
      9 C           6.3422   -1.2377   20.6757 C.ar    1  UNL1        0.1186
     10 N           2.6820    0.0241   19.8035 N.pl3   1  UNL1       -0.2932
     11 C           2.8663    1.1910   18.8791 C.3     1  UNL1        0.0922
     12 C           1.7145    2.1070   18.5888 C.3     1  UNL1        0.0215
     13 C           0.3784    1.8562   19.2229 C.3     1  UNL1        0.0035
     14 C           0.1942    0.6894   20.1474 C.3     1  UNL1        0.0215
     15 C           1.3459   -0.2266   20.4376 C.3     1  UNL1        0.0922
     16 C           8.4414   -4.5556   21.2548 C.3     1  UNL1        0.1823
     17 C           8.4328   -5.4021   22.4930 C.ar    1  UNL1        0.0014
     18 C           9.1095   -6.7408   22.4909 C.ar    1  UNL1       -0.0029
     19 C           9.1009   -7.5875   23.7292 C.ar    1  UNL1       -0.0048
     20 C           8.4157   -7.0953   24.9695 C.ar    1  UNL1       -0.0247
     21 C           7.7390   -5.7567   24.9715 C.ar    1  UNL1       -0.0250
     22 C           7.7475   -4.9101   23.7333 C.ar    1  UNL1       -0.0071
     23 C           7.0039   -5.0820   26.0916 C.3     1  UNL1        0.0431
     24 C           6.7640   -5.5795   27.4863 C.3     1  UNL1        0.0733
     25 N           7.1999   -6.8743   28.1052 N.3     1  UNL1       -0.2969
     26 C           7.9833   -7.9917   27.4825 C.3     1  UNL1        0.0733
     27 C           8.5244   -8.0900   26.0870 C.3     1  UNL1        0.0431
     28 H           6.3334   -7.3128   28.4173 H       1  UNL1        0.1233
@<TRIPOS>BOND
     1     1     2    2
     2     2     3    2
     3     2    16    1
     4    16    17    1
     5    17    18   ar
     6    18    19   ar
     7    19    20   ar
     8    20    21   ar
     9    21    22   ar
    10    21    23    1
    11    23    24    1
    12    24    25    1
    13    25    26    1
    14    26    27    1
    15     2     4    1
    16     4     5   ar
    17     5     6   ar
    18     6     7   ar
    19     7    10    1
    20    10    11    1
    21    11    12    1
    22    12    13    1
    23    13    14    1
    24    14    15    1
    25     7     8   ar
    26     8     9   ar
    27    22    17   ar
    28     9     4   ar
    29    27    20    1
    30    15    10    1
    31    25    28    1
@<TRIPOS>MOLECULE
*****
 28 31 0 0 0
SMALL
GASTEIGER

@<TRIPOS>ATOM
      1 O         -12.8833   -5.4263   17.7506 O.2     1  UNL1       -0.1683
      2 S         -13.1901   -5.2277   19.2054 S.O2    1  UNL1        0.0143
      3 O         -13.4970   -5.0291   20.6602 O.2     1  UNL1       -0.1683
      4 C         -14.4025   -6.1004   19.0688 C.ar    1  UNL1        0.1252
      5 C         -15.7435   -5.5962   19.5132 C.ar    1  UNL1        0.0228
      6 C         -16.9557   -6.4690   19.3766 C.ar    1  UNL1        0.0356
      7 C         -16.8271   -7.8459   18.7957 C.ar    1  UNL1        0.1318
      8 N         -15.4861   -8.3501   18.3512 N.ar    1  UNL1       -0.2278
      9 C         -14.2738   -7.4774   18.4878 C.ar    1  UNL1        0.1186
     10 N         -18.0393   -8.7187   18.6591 N.pl3   1  UNL1       -0.2932
     11 C         -19.1803   -8.5735   19.6220 C.3     1  UNL1        0.0922
     12 C         -20.3926   -9.4463   19.4855 C.3     1  UNL1        0.0215
     13 C         -20.4639  -10.4642   18.3860 C.3     1  UNL1        0.0035
     14 C         -19.3229  -10.6093   17.4231 C.3     1  UNL1        0.0215
     15 C         -18.1108   -9.7366   17.5596 C.3     1  UNL1        0.0922
     16 C         -11.9778   -4.3549   19.3419 C.3     1  UNL1        0.1823
     17 C         -11.9927   -2.9594   18.7923 C.ar    1  UNL1        0.0014
     18 C         -10.8214   -2.4509   18.0052 C.ar    1  UNL1       -0.0029
     19 C         -10.8362   -1.0552   17.4555 C.ar    1  UNL1       -0.0048
     20 C         -12.0223   -0.1682   17.6930 C.ar    1  UNL1       -0.0247
     21 C         -13.1935   -0.6767   18.4801 C.ar    1  UNL1       -0.0250
     22 C         -13.1787   -2.0723   19.0298 C.ar    1  UNL1       -0.0071
     23 C         -14.4659    0.0366   18.8300 C.3     1  UNL1        0.0431
     24 C         -14.8811    1.4347   18.4791 C.3     1  UNL1        0.0733
     25 N         -14.1267    2.4645   17.6917 N.3     1  UNL1       -0.2969
     26 C         -12.7706    2.3509   17.0607 C.3     1  UNL1        0.0733
     27 C         -11.8341    1.1792   17.0613 C.3     1  UNL1        0.0431
     28 H         -14.0488    3.2621   18.3228 H       1  UNL1        0.1233
@<TRIPOS>BOND
     1     1     2    2
     2     2     3    2
     3     2    16    1
     4    16    17    1
     5    17    18   ar
     6    18    19   ar
     7    19    20   ar
     8    20    21   ar
     9    21    22   ar
    10    21    23    1
    11    23    24    1
    12    24    25    1
    13    25    26    1
    14    26    27    1
    15     2     4    1
    16     4     5   ar
    17     5     6   ar
    18     6     7   ar
    19     7    10    1
    20    10    11    1
    21    11    12    1
    22    12    13    1
    23    13    14    1
    24    14    15    1
    25     7     8   ar
    26     8     9   ar
    27    22    17   ar
    28     9     4   ar
    29    27    20    1
    30    15    10    1
    31    25    28    1
@<TRIPOS>MOLECULE
*****
 28 31 0 0 0
SMALL
GASTEIGER

@<TRIPOS>ATOM
      1 O           0.6883    3.7590   21.1038 O.2     1  UNL1       -0.1683
      2 S           0.0695    2.4184   20.8390 S.O2    1  UNL1        0.0143
      3 O          -0.5492    1.0779   20.5743 O.2     1  UNL1       -0.1683
      4 C          -1.2136    2.8886   21.4575 C.ar    1  UNL1        0.1252
      5 C          -1.2289    3.3722   22.8773 C.ar    1  UNL1        0.0228
      6 C          -2.5121    3.8423   23.4957 C.ar    1  UNL1        0.0356
      7 C          -3.7800    3.8289   22.6943 C.ar    1  UNL1        0.1318
      8 N          -3.7648    3.3453   21.2744 N.ar    1  UNL1       -0.2278
      9 C          -2.4816    2.8751   20.6560 C.ar    1  UNL1        0.1186
     10 N          -5.0632    4.2990   23.3126 N.pl3   1  UNL1       -0.2932
     11 C          -6.3646    4.0754   22.6010 C.3     1  UNL1        0.0922
     12 C          -7.6479    4.5455   23.2192 C.3     1  UNL1        0.0215
     13 C          -7.6298    5.2392   24.5491 C.3     1  UNL1        0.0035
     14 C          -6.3283    5.4627   25.2607 C.3     1  UNL1        0.0215
     15 C          -5.0452    4.9926   24.6425 C.3     1  UNL1        0.0922
     16 C           1.3527    1.9483   20.2206 C.3     1  UNL1        0.1823
     17 C           2.0970    0.7939   20.8235 C.ar    1  UNL1        0.0014
     18 C           2.5079    0.8375   22.2655 C.ar    1  UNL1       -0.0029
     19 C           3.2522   -0.3169   22.8685 C.ar    1  UNL1       -0.0048
     20 C           3.5855   -1.5148   22.0294 C.ar    1  UNL1       -0.0247
     21 C           3.1746   -1.5583   20.5875 C.ar    1  UNL1       -0.0250
     22 C           2.4304   -0.4040   19.9845 C.ar    1  UNL1       -0.0071
     23 C           3.4049   -2.6472   19.5818 C.3     1  UNL1        0.0431
     24 C           4.1029   -3.9616   19.7699 C.3     1  UNL1        0.0733
     25 N           4.7430   -4.5115   21.0098 N.3     1  UNL1       -0.2969
     26 C           4.8433   -3.8831   22.3682 C.3     1  UNL1        0.0733
     27 C           4.3282   -2.5494   22.8219 C.3     1  UNL1        0.0431
     28 H           5.7099   -4.6919   20.7398 H       1  UNL1        0.1233
@<TRIPOS>BOND
     1     1     2    2
     2     2     3    2
     3     2    16    1
     4    16    17    1
     5    17    18   ar
     6    18    19   ar
     7    19    20   ar
     8    20    21   ar
     9    21    22   ar
    10    21    23    1
    11    23    24    1
    12    24    25    1
    13    25    26    1
    14    26    27    1
    15     2     4    1
    16     4     5   ar
    17     5     6   ar
    18     6     7   ar
    19     7    10    1
    20    10    11    1
    21    11    12    1
    22    12    13    1
    23    13    14    1
    24    14    15    1
    25     7     8   ar
    26     8     9   ar
    27    22    17   ar
    28     9     4   ar
    29    27    20    1
    30    15    10    1
    31    25    28    1
@<TRIPOS>MOLECULE
*****
 28 31 0 0 0
SMALL
GASTEIGER

@<TRIPOS>ATOM
      1 O         -15.7147   -0.1553   17.5645 O.2     1  UNL1       -0.1683
      2 S         -14.5357    0.5957   18.1088 S.O2    1  UNL1        0.0143
      3 O         -13.3567    1.3466   18.6530 O.2     1  UNL1       -0.1683
      4 C         -13.7803   -0.6926   18.2498 C.ar    1  UNL1        0.1252
      5 C         -12.2913   -0.6730   18.4307 C.ar    1  UNL1        0.0228
      6 C         -11.5361   -1.9612   18.5718 C.ar    1  UNL1        0.0356
      7 C         -12.2695   -3.2690   18.5320 C.ar    1  UNL1        0.1318
      8 N         -13.7585   -3.2886   18.3511 N.ar    1  UNL1       -0.2278
      9 C         -14.5139   -2.0004   18.2100 C.ar    1  UNL1        0.1186
     10 N         -11.5142   -4.5573   18.6730 N.pl3   1  UNL1       -0.2932
     11 C         -10.0575   -4.5373   19.0303 C.3     1  UNL1        0.0922
     12 C          -9.3021   -5.8255   19.1714 C.3     1  UNL1        0.0215
     13 C         -10.0035   -7.1337   18.9552 C.3     1  UNL1        0.0035
     14 C         -11.4602   -7.1537   18.5980 C.3     1  UNL1        0.0215
     15 C         -12.2155   -5.8655   18.4569 C.3     1  UNL1        0.0922
     16 C         -15.2911    1.8839   17.9677 C.3     1  UNL1        0.1823
     17 C         -15.6678    2.6699   19.1884 C.ar    1  UNL1        0.0014
     18 C         -15.2548    4.1066   19.3124 C.ar    1  UNL1       -0.0029
     19 C         -15.6316    4.8926   20.5331 C.ar    1  UNL1       -0.0048
     20 C         -16.4214    4.2419   21.6300 C.ar    1  UNL1       -0.0247
     21 C         -16.8343    2.8053   21.5060 C.ar    1  UNL1       -0.0250
     22 C         -16.4576    2.0192   20.2853 C.ar    1  UNL1       -0.0071
     23 C         -17.6184    1.9706   22.4748 C.3     1  UNL1        0.0431
     24 C         -18.1831    2.3665   23.8069 C.3     1  UNL1        0.0733
     25 N         -18.1031    3.6948   24.4991 N.3     1  UNL1       -0.2969
     26 C         -17.4388    4.9553   24.0302 C.3     1  UNL1        0.0733
     27 C         -16.6904    5.1988   22.7533 C.3     1  UNL1        0.0431
     28 H         -17.6596    3.4900   25.3945 H       1  UNL1        0.1233
@<TRIPOS>BOND
     1     1     2    2
     2     2     3    2
     3     2    16    1
     4    16    17    1
     5    17    18   ar
     6    18    19   ar
     7    19    20   ar
     8    20    21   ar
     9    21    22   ar
    10    21    23    1
    11    23    24    1
    12    24    25    1
    13    25    26    1
    14    26    27    1
    15     2     4    1
    16     4     5   ar
    17     5     6   ar
    18     6     7   ar
    19     7    10    1
    20    10    11    1
    21    11    12    1
    22    12    13    1
    23    13    14    1
    24    14    15    1
    25     7     8   ar
    26     8     9   ar
    27    22    17   ar
    28     9     4   ar
    29    27    20    1
    30    15    10    1
    31    25    28    1
@<TRIPOS>MOLECULE
*****
 28 31 0 0 0
SMALL
GASTEIGER

@<TRIPOS>ATOM
      1 O           0.7337    1.8683   18.1291 O.2     1  UNL1       -0.1683
      2 S           1.3296    2.5721   19.3122 S.O2    1  UNL1        0.0143
      3 O           1.9256    3.2758   20.4952 O.2     1  UNL1       -0.1683
      4 C          -0.0469    2.8783   19.8235 C.ar    1  UNL1        0.1252
      5 C          -1.0643    3.4992   18.9127 C.ar    1  UNL1        0.0228
      6 C          -2.4408    3.8054   19.4241 C.ar    1  UNL1        0.0356
      7 C          -2.7999    3.4908   20.8461 C.ar    1  UNL1        0.1318
      8 N          -1.7825    2.8698   21.7568 N.ar    1  UNL1       -0.2278
      9 C          -0.4060    2.5636   21.2455 C.ar    1  UNL1        0.1186
     10 N          -4.1764    3.7970   21.3574 N.pl3   1  UNL1       -0.2932
     11 C          -5.2339    4.2908   20.4151 C.3     1  UNL1        0.0922
     12 C          -6.6104    4.5970   20.9264 C.3     1  UNL1        0.0215
     13 C          -6.9295    4.4094   22.3800 C.3     1  UNL1        0.0035
     14 C          -5.8720    3.9156   23.3223 C.3     1  UNL1        0.0215
     15 C          -4.4956    3.6094   22.8110 C.3     1  UNL1        0.0922
     16 C           2.7062    2.2658   18.8009 C.3     1  UNL1        0.1823
     17 C           3.2117    0.8536   18.8075 C.ar    1  UNL1        0.0014
     18 C           3.5890    0.1861   17.5183 C.ar    1  UNL1       -0.0029
     19 C           4.0945   -1.2262   17.5249 C.ar    1  UNL1       -0.0048
     20 C           4.2226   -1.9709   18.8207 C.ar    1  UNL1       -0.0247
     21 C           3.8453   -1.3034   20.1098 C.ar    1  UNL1       -0.0250
     22 C           3.3398    0.1088   20.1033 C.ar    1  UNL1       -0.0071
     23 C           3.8960   -1.8608   21.5015 C.3     1  UNL1        0.0431
     24 C           4.3367   -3.2235   21.9476 C.3     1  UNL1        0.0733
     25 N           4.8353   -4.3651   21.1124 N.3     1  UNL1       -0.2969
     26 C           5.0166   -4.4263   19.6246 C.3     1  UNL1        0.0733
     27 C           4.7439   -3.3607   18.6047 C.3     1  UNL1        0.0431
     28 H           4.1989   -5.1336   21.3240 H       1  UNL1        0.1233
@<TRIPOS>BOND
     1     1     2    2
     2     2     3    2
     3     2    16    1
     4    16    17    1
     5    17    18   ar
     6    18    19   ar
     7    19    20   ar
     8    20    21   ar
     9    21    22   ar
    10    21    23    1
    11    23    24    1
    12    24    25    1
    13    25    26    1
    14    26    27    1
    15     2     4    1
    16     4     5   ar
    17     5     6   ar
    18     6     7   ar
    19     7    10    1
    20    10    11    1
    21    11    12    1
    22    12    13    1
    23    13    14    1
    24    14    15    1
    25     7     8   ar
    26     8     9   ar
    27    22    17   ar
    28     9     4   ar
    29    27    20    1
    30    15    10    1
    31    25    28    1
@<TRIPOS>MOLECULE
*****
 28 31 0 0 0
SMALL
GASTEIGER

@<TRIPOS>ATOM
      1 O           2.0911    3.2279   20.5012 O.2     1  UNL1       -0.1683
      2 S           1.1712    2.3510   19.7044 S.O2    1  UNL1        0.0143
      3 O           0.2513    1.4742   18.9076 O.2     1  UNL1       -0.1683
      4 C           0.0474    2.6772   20.6429 C.ar    1  UNL1        0.1252
      5 C           0.3312    2.9276   22.0944 C.ar    1  UNL1        0.0228
      6 C          -0.7926    3.2538   23.0328 C.ar    1  UNL1        0.0356
      7 C          -2.2001    3.3295   22.5199 C.ar    1  UNL1        0.1318
      8 N          -2.4839    3.0790   21.0685 N.ar    1  UNL1       -0.2278
      9 C          -1.3601    2.7529   20.1299 C.ar    1  UNL1        0.1186
     10 N          -3.3239    3.6556   23.4584 N.pl3   1  UNL1       -0.2932
     11 C          -3.0878    3.6561   24.9397 C.3     1  UNL1        0.0922
     12 C          -4.2115    3.9822   25.8782 C.3     1  UNL1        0.0215
     13 C          -5.5715    4.3079   25.3354 C.3     1  UNL1        0.0035
     14 C          -5.8075    4.3074   23.8540 C.3     1  UNL1        0.0215
     15 C          -4.6838    3.9813   22.9157 C.3     1  UNL1        0.0922
     16 C           2.2950    2.0249   18.7659 C.3     1  UNL1        0.1823
     17 C           2.9339    0.6683   18.8037 C.ar    1  UNL1        0.0014
     18 C           3.3867    0.0168   17.5307 C.ar    1  UNL1       -0.0029
     19 C           4.0256   -1.3398   17.5685 C.ar    1  UNL1       -0.0048
     20 C           4.2117   -2.0449   18.8793 C.ar    1  UNL1       -0.0247
     21 C           3.7589   -1.3934   20.1522 C.ar    1  UNL1       -0.0250
     22 C           3.1200   -0.0369   20.1145 C.ar    1  UNL1       -0.0071
     23 C           3.8489   -1.9179   21.5548 C.3     1  UNL1        0.0431
     24 C           4.4141   -3.2234   22.0305 C.3     1  UNL1        0.0733
     25 N           5.0287   -4.3267   21.2214 N.3     1  UNL1       -0.2969
     26 C           5.2300   -4.3973   19.7367 C.3     1  UNL1        0.0733
     27 C           4.8664   -3.3818   18.6943 C.3     1  UNL1        0.0431
     28 H           4.4670   -5.1490   21.4425 H       1  UNL1        0.1233
@<TRIPOS>BOND
     1     1     2    2
     2     2     3    2
     3     2    16    1
     4    16    17    1
     5    17    18   ar
     6    18    19   ar
     7    19    20   ar
     8    20    21   ar
     9    21    22   ar
    10    21    23    1
    11    23    24    1
    12    24    25    1
    13    25    26    1
    14    26    27    1
    15     2     4    1
    16     4     5   ar
    17     5     6   ar
    18     6     7   ar
    19     7    10    1
    20    10    11    1
    21    11    12    1
    22    12    13    1
    23    13    14    1
    24    14    15    1
    25     7     8   ar
    26     8     9   ar
    27    22    17   ar
    28     9     4   ar
    29    27    20    1
    30    15    10    1
    31    25    28    1
@<TRIPOS>MOLECULE
*****
 28 31 0 0 0
SMALL
GASTEIGER

@<TRIPOS>ATOM
      1 O           6.9944   -2.0191   19.9934 O.2     1  UNL1       -0.1683
      2 S           6.1716   -3.2370   19.6937 S.O2    1  UNL1        0.0143
      3 O           5.3488   -4.4549   19.3939 O.2     1  UNL1       -0.1683
      4 C           6.6681   -3.8825   20.9534 C.ar    1  UNL1        0.1252
      5 C           5.9539   -3.6432   22.2506 C.ar    1  UNL1        0.0228
      6 C           6.4505   -4.2887   23.5102 C.ar    1  UNL1        0.0356
      7 C           7.6612   -5.1734   23.4728 C.ar    1  UNL1        0.1318
      8 N           8.3754   -5.4127   22.1756 N.ar    1  UNL1       -0.2278
      9 C           7.8789   -4.7672   20.9159 C.ar    1  UNL1        0.1186
     10 N           8.1578   -5.8189   24.7324 N.pl3   1  UNL1       -0.2932
     11 C           8.1121   -7.3111   24.8788 C.3     1  UNL1        0.0922
     12 C           8.6086   -7.9567   26.1384 C.3     1  UNL1        0.0215
     13 C           9.1509   -7.1101   27.2517 C.3     1  UNL1        0.0035
     14 C           9.1966   -5.6179   27.1052 C.3     1  UNL1        0.0215
     15 C           8.7001   -4.9725   25.8457 C.3     1  UNL1        0.0922
     16 C           5.6751   -2.5916   18.4340 C.3     1  UNL1        0.1823
     17 C           4.7394   -1.4217   18.5093 C.ar    1  UNL1        0.0014
     18 C           5.0742   -0.1463   17.7941 C.ar    1  UNL1       -0.0029
     19 C           4.1384    1.0237   17.8693 C.ar    1  UNL1       -0.0048
     20 C           2.8679    0.9183   18.6598 C.ar    1  UNL1       -0.0247
     21 C           2.5332   -0.3570   19.3749 C.ar    1  UNL1       -0.0250
     22 C           3.4688   -1.5270   19.2997 C.ar    1  UNL1       -0.0071
     23 C           1.3286   -0.6717   20.2116 C.3     1  UNL1        0.0431
     24 C           0.1613    0.2114   20.5398 C.3     1  UNL1        0.0733
     25 N          -0.0897    1.6270   20.1123 N.3     1  UNL1       -0.2969
     26 C           0.7646    2.5094   19.2511 C.3     1  UNL1        0.0733
     27 C           2.0808    2.1940   18.6047 C.3     1  UNL1        0.0431
     28 H          -0.1911    2.1436   20.9859 H       1  UNL1        0.1233
@<TRIPOS>BOND
     1     1     2    2
     2     2     3    2
     3     2    16    1
     4    16    17    1
     5    17    18   ar
     6    18    19   ar
     7    19    20   ar
     8    20    21   ar
     9    21    22   ar
    10    21    23    1
    11    23    24    1
    12    24    25    1
    13    25    26    1
    14    26    27    1
    15     2     4    1
    16     4     5   ar
    17     5     6   ar
    18     6     7   ar
    19     7    10    1
    20    10    11    1
    21    11    12    1
    22    12    13    1
    23    13    14    1
    24    14    15    1
    25     7     8   ar
    26     8     9   ar
    27    22    17   ar
    28     9     4   ar
    29    27    20    1
    30    15    10    1
    31    25    28    1
@<TRIPOS>MOLECULE
*****
 28 31 0 0 0
SMALL
GASTEIGER

@<TRIPOS>ATOM
      1 O           0.8162    3.4032   23.6804 O.2     1  UNL1       -0.1683
      2 S           0.3040    2.2060   24.4250 S.O2    1  UNL1        0.0143
      3 O          -0.2082    1.0087   25.1695 O.2     1  UNL1       -0.1683
      4 C           1.0454    1.3035   23.4837 C.ar    1  UNL1        0.1252
      5 C           0.6151    1.1982   22.0506 C.ar    1  UNL1        0.0228
      6 C           1.3565    0.2957   21.1094 C.ar    1  UNL1        0.0356
      7 C           2.5280   -0.5015   21.6012 C.ar    1  UNL1        0.1318
      8 N           2.9583   -0.3962   23.0343 N.ar    1  UNL1       -0.2278
      9 C           2.2169    0.5062   23.9756 C.ar    1  UNL1        0.1186
     10 N           3.2694   -1.4040   20.6600 N.pl3   1  UNL1       -0.2932
     11 C           3.9218   -2.6524   21.1758 C.3     1  UNL1        0.0922
     12 C           4.6632   -3.5550   20.2347 C.3     1  UNL1        0.0215
     13 C           4.7523   -3.2092   18.7778 C.3     1  UNL1        0.0035
     14 C           4.0999   -1.9607   18.2621 C.3     1  UNL1        0.0215
     15 C           3.3585   -1.0583   19.2032 C.3     1  UNL1        0.0922
     16 C          -0.4373    3.1085   25.3662 C.3     1  UNL1        0.1823
     17 C          -1.8897    3.4035   25.1346 C.ar    1  UNL1        0.0014
     18 C          -2.7872    3.7100   26.2967 C.ar    1  UNL1       -0.0029
     19 C          -4.2397    4.0050   26.0651 C.ar    1  UNL1       -0.0048
     20 C          -4.7944    3.9935   24.6715 C.ar    1  UNL1       -0.0247
     21 C          -3.8968    3.6869   23.5095 C.ar    1  UNL1       -0.0250
     22 C          -2.4445    3.3919   23.7410 C.ar    1  UNL1       -0.0071
     23 C          -4.2432    3.6237   22.0514 C.3     1  UNL1        0.0431
     24 C          -5.5727    3.8514   21.3952 C.3     1  UNL1        0.0733
     25 N          -6.8841    4.1986   22.0351 N.3     1  UNL1       -0.2969
     26 C          -7.1901    4.4039   23.4891 C.3     1  UNL1        0.0733
     27 C          -6.2601    4.3125   24.6625 C.3     1  UNL1        0.0431
     28 H          -7.5159    3.4527   21.7438 H       1  UNL1        0.1233
@<TRIPOS>BOND
     1     1     2    2
     2     2     3    2
     3     2    16    1
     4    16    17    1
     5    17    18   ar
     6    18    19   ar
     7    19    20   ar
     8    20    21   ar
     9    21    22   ar
    10    21    23    1
    11    23    24    1
    12    24    25    1
    13    25    26    1
    14    26    27    1
    15     2     4    1
    16     4     5   ar
    17     5     6   ar
    18     6     7   ar
    19     7    10    1
    20    10    11    1
    21    11    12    1
    22    12    13    1
    23    13    14    1
    24    14    15    1
    25     7     8   ar
    26     8     9   ar
    27    22    17   ar
    28     9     4   ar
    29    27    20    1
    30    15    10    1
    31    25    28    1
@<TRIPOS>MOLECULE
*****
 28 31 0 0 0
SMALL
GASTEIGER

@<TRIPOS>ATOM
      1 O         -16.6675   -0.9438   19.6965 O.2     1  UNL1       -0.1683
      2 S         -15.5739   -0.0388   19.2119 S.O2    1  UNL1        0.0143
      3 O         -14.4802    0.8662   18.7272 O.2     1  UNL1       -0.1683
      4 C         -14.6372   -1.2083   19.1417 C.ar    1  UNL1        0.1252
      5 C         -13.2297   -1.0142   18.6608 C.ar    1  UNL1        0.0228
      6 C         -12.2931   -2.1837   18.5907 C.ar    1  UNL1        0.0356
      7 C         -12.7639   -3.5474   19.0014 C.ar    1  UNL1        0.1318
      8 N         -14.1714   -3.7416   19.4823 N.ar    1  UNL1       -0.2278
      9 C         -15.1081   -2.5720   19.5525 C.ar    1  UNL1        0.1186
     10 N         -11.8273   -4.7170   18.9313 N.pl3   1  UNL1       -0.2932
     11 C         -10.3460   -4.4977   19.0185 C.3     1  UNL1        0.0922
     12 C          -9.4093   -5.6672   18.9484 C.3     1  UNL1        0.0215
     13 C          -9.9540   -7.0560   18.7912 C.3     1  UNL1        0.0035
     14 C         -11.4354   -7.2752   18.7041 C.3     1  UNL1        0.0215
     15 C         -12.3719   -6.1057   18.7742 C.3     1  UNL1        0.0922
     16 C         -16.5105    1.1307   19.2820 C.3     1  UNL1        0.1823
     17 C         -16.5264    2.0069   20.4994 C.ar    1  UNL1        0.0014
     18 C         -17.2978    1.5872   21.7154 C.ar    1  UNL1       -0.0029
     19 C         -17.3137    2.4633   22.9329 C.ar    1  UNL1       -0.0048
     20 C         -16.5581    3.7591   22.9343 C.ar    1  UNL1       -0.0247
     21 C         -15.7867    4.1787   21.7183 C.ar    1  UNL1       -0.0250
     22 C         -15.7708    3.3027   20.5008 C.ar    1  UNL1       -0.0071
     23 C         -14.9718    5.4208   21.5102 C.3     1  UNL1        0.0431
     24 C         -14.7271    6.5500   22.4670 C.3     1  UNL1        0.0733
     25 N         -15.2368    6.7159   23.8678 N.3     1  UNL1       -0.2969
     26 C         -16.1172    5.7937   24.6581 C.3     1  UNL1        0.0733
     27 C         -16.7052    4.4778   24.2427 C.3     1  UNL1        0.0431
     28 H         -15.7429    7.6014   23.8523 H       1  UNL1        0.1233
@<TRIPOS>BOND
     1     1     2    2
     2     2     3    2
     3     2    16    1
     4    16    17    1
     5    17    18   ar
     6    18    19   ar
     7    19    20   ar
     8    20    21   ar
     9    21    22   ar
    10    21    23    1
    11    23    24    1
    12    24    25    1
    13    25    26    1
    14    26    27    1
    15     2     4    1
    16     4     5   ar
    17     5     6   ar
    18     6     7   ar
    19     7    10    1
    20    10    11    1
    21    11    12    1
    22    12    13    1
    23    13    14    1
    24    14    15    1
    25     7     8   ar
    26     8     9   ar
    27    22    17   ar
    28     9     4   ar
    29    27    20    1
    30    15    10    1
    31    25    28    1
