@<TRIPOS>MOLECULE
*****
 43 48 0 0 0
SMALL
GASTEIGER

@<TRIPOS>ATOM
      1 C           3.1658   -0.2765   30.6507 C.2     1  UNL1        0.2252
      2 O           1.7439    0.1788   30.5061 O.2     1  UNL1       -0.2749
      3 N           3.8905   -0.8577   29.4730 N.am    1  UNL1       -0.2794
      4 C           3.1933   -0.9836   28.1508 C.3     1  UNL1        0.0953
      5 C           3.9181   -1.5648   26.9731 C.3     1  UNL1        0.0442
      6 C           5.3400   -2.0202   27.1176 C.3     1  UNL1        0.0933
      7 C           6.0371   -1.8943   28.4397 C.3     1  UNL1        0.0442
      8 C           5.3124   -1.3131   29.6174 C.3     1  UNL1        0.0953
      9 N           6.0647   -2.6014   25.9399 N.ar    1  UNL1       -0.2817
     10 C           6.3784   -1.8883   24.6580 C.ar    1  UNL1        0.3315
     11 O           6.0223   -0.4689   24.3287 O.2     1  UNL1       -0.2463
     12 N           7.1105   -2.8440   23.7632 N.ar    1  UNL1       -0.2784
     13 C           7.2494   -4.1476   24.4920 C.ar    1  UNL1        0.0820
     14 C           7.8809   -5.4518   24.1045 C.ar    1  UNL1        0.0484
     15 C           7.8661   -6.6061   25.0623 C.ar    1  UNL1        0.1417
     16 F           8.4976   -7.9104   24.6748 F       1  UNL1       -0.2041
     17 C           7.2197   -6.4562   26.4076 C.ar    1  UNL1        0.0312
     18 C           6.5882   -5.1520   26.7951 C.ar    1  UNL1        0.0211
     19 C           6.6031   -3.9977   25.8373 C.ar    1  UNL1        0.0798
     20 C           7.6152   -2.5480   22.3820 C.3     1  UNL1        0.1278
     21 C           7.0492   -3.2829   21.2031 C.3     1  UNL1        0.0972
     22 N           5.6843   -2.9350   20.6872 N.3     1  UNL1       -0.2668
     23 C           5.0796   -1.6000   21.0068 C.3     1  UNL1        0.1047
     24 C           3.7148   -1.2521   20.4909 C.3     1  UNL1        0.1595
     25 O           2.9547   -2.2392   19.6555 O.3     1  UNL1       -0.3508
     26 C           3.5594   -3.5741   19.3359 C.3     1  UNL1        0.1595
     27 C           4.9242   -3.9220   19.8518 C.3     1  UNL1        0.1047
     28 N           5.2573    0.1010   34.6171 N.3     1  UNL1       -0.2689
     29 C           5.1372    1.2942   33.7160 C.3     1  UNL1        0.0729
     30 C           4.4400    1.1684   32.3938 C.3     1  UNL1        0.0264
     31 C           3.8629   -0.1507   31.9728 C.3     1  UNL1        0.0795
     32 C           3.9830   -1.3438   32.8739 C.3     1  UNL1        0.0264
     33 C           4.6802   -1.2179   34.1961 C.3     1  UNL1        0.0729
     34 C           5.9544    0.2269   35.9393 C.3     1  UNL1        0.0993
     35 N           1.6521    1.1736   38.6950 N.pl3   1  UNL1       -0.3426
     36 C           3.1192    1.3839   38.4636 C.ar    1  UNL1        0.1251
     37 C           3.8033    0.7002   37.3171 C.ar    1  UNL1        0.0310
     38 C           5.2704    0.9106   37.0858 C.ar    1  UNL1       -0.0018
     39 C           6.0533    1.8046   38.0011 C.ar    1  UNL1        0.0179
     40 C           5.3692    2.4883   39.1476 C.ar    1  UNL1        0.1000
     41 N           3.9021    2.2779   39.3789 N.ar    1  UNL1       -0.2296
     42 H           1.1382    0.5868   38.0943 H       1  UNL1        0.1437
     43 H           1.2032    1.6223   39.4475 H       1  UNL1        0.1437
@<TRIPOS>BOND
     1    35    36    1
     2    36    37   ar
     3    37    38   ar
     4    38    34    1
     5    34    28    1
     6    28    29    1
     7    29    30    1
     8    30    31    1
     9    31     1    1
    10     1     2    2
    11     1     3   am
    12     3     4    1
    13     4     5    1
    14     5     6    1
    15     6     9    1
    16     9    10   ar
    17    10    11    2
    18    10    12   ar
    19    12    20    1
    20    20    21    1
    21    21    22    1
    22    22    23    1
    23    23    24    1
    24    24    25    1
    25    25    26    1
    26    26    27    1
    27    12    13   ar
    28    13    14   ar
    29    14    15   ar
    30    15    16    1
    31    15    17   ar
    32    17    18   ar
    33    18    19   ar
    34     6     7    1
    35     7     8    1
    36    31    32    1
    37    32    33    1
    38    38    39   ar
    39    39    40   ar
    40    40    41   ar
    41    41    36   ar
    42    33    28    1
    43     8     3    1
    44    19     9   ar
    45    27    22    1
    46    19    13   ar
    47    35    42    1
    48    35    43    1
@<TRIPOS>MOLECULE
*****
 43 48 0 0 0
SMALL
GASTEIGER

@<TRIPOS>ATOM
      1 C           6.6231   -3.9072   31.4368 C.2     1  UNL1        0.2252
      2 O           6.7311   -5.3155   31.9418 O.2     1  UNL1       -0.2749
      3 N           6.5791   -3.6410   29.9612 N.am    1  UNL1       -0.2794
      4 C           6.6432   -4.7830   28.9908 C.3     1  UNL1        0.0953
      5 C           6.5993   -4.5167   27.5153 C.3     1  UNL1        0.0442
      6 C           6.4913   -3.1084   27.0102 C.3     1  UNL1        0.0933
      7 C           6.4272   -1.9665   27.9806 C.3     1  UNL1        0.0442
      8 C           6.4711   -2.2327   29.4561 C.3     1  UNL1        0.0953
      9 N           6.4474   -2.8421   25.5346 N.ar    1  UNL1       -0.2817
     10 C           7.4728   -3.2760   24.5295 C.ar    1  UNL1        0.3315
     11 O           8.7222   -4.0523   24.8234 O.2     1  UNL1       -0.2463
     12 N           7.0294   -2.7972   23.1789 N.ar    1  UNL1       -0.2784
     13 C           5.7300   -2.0675   23.3492 C.ar    1  UNL1        0.0820
     14 C           4.8279   -1.3813   22.3667 C.ar    1  UNL1        0.0484
     15 C           3.5661   -0.7229   22.8402 C.ar    1  UNL1        0.1417
     16 F           2.6639   -0.0367   21.8577 F       1  UNL1       -0.2041
     17 C           3.2063   -0.7507   24.2961 C.ar    1  UNL1        0.0312
     18 C           4.1084   -1.4368   25.2787 C.ar    1  UNL1        0.0211
     19 C           5.3703   -2.0952   24.8052 C.ar    1  UNL1        0.0798
     20 C           7.7576   -3.0107   21.8850 C.3     1  UNL1        0.1278
     21 C           7.1876   -3.9310   20.8465 C.3     1  UNL1        0.0972
     22 N           6.0793   -3.4587   19.9529 N.3     1  UNL1       -0.2668
     23 C           6.3156   -2.3240   19.0008 C.3     1  UNL1        0.1047
     24 C           5.2073   -1.8517   18.1072 C.3     1  UNL1        0.1595
     25 O           3.8627   -2.5140   18.1658 O.3     1  UNL1       -0.3508
     26 C           3.6263   -3.6486   19.1180 C.3     1  UNL1        0.1595
     27 C           4.7347   -4.1210   20.0116 C.3     1  UNL1        0.1047
     28 N           6.4308   -0.4812   34.3480 N.3     1  UNL1       -0.2689
     29 C           7.7390   -0.8573   33.7177 C.3     1  UNL1        0.0729
     30 C           7.8031   -1.9993   32.7473 C.3     1  UNL1        0.0264
     31 C           6.5590   -2.7652   32.4072 C.3     1  UNL1        0.0795
     32 C           5.2508   -2.3892   33.0375 C.3     1  UNL1        0.0264
     33 C           5.1867   -1.2472   34.0079 C.3     1  UNL1        0.0729
     34 C           6.3667    0.6607   35.3185 C.3     1  UNL1        0.0993
     35 N           2.7688    0.5091   39.0644 N.pl3   1  UNL1       -0.3426
     36 C           3.2445    1.0294   37.7404 C.ar    1  UNL1        0.1251
     37 C           4.5678    0.5849   37.1914 C.ar    1  UNL1        0.0310
     38 C           5.0434    1.1052   35.8674 C.ar    1  UNL1       -0.0018
     39 C           4.1958    2.0700   35.0923 C.ar    1  UNL1        0.0179
     40 C           2.8725    2.5145   35.6413 C.ar    1  UNL1        0.1000
     41 N           2.3969    1.9941   36.9653 N.ar    1  UNL1       -0.2296
     42 H           3.3251   -0.1241   39.5731 H       1  UNL1        0.1437
     43 H           1.9003    0.8008   39.4247 H       1  UNL1        0.1437
@<TRIPOS>BOND
     1    35    36    1
     2    36    37   ar
     3    37    38   ar
     4    38    34    1
     5    34    28    1
     6    28    29    1
     7    29    30    1
     8    30    31    1
     9    31     1    1
    10     1     2    2
    11     1     3   am
    12     3     4    1
    13     4     5    1
    14     5     6    1
    15     6     9    1
    16     9    10   ar
    17    10    11    2
    18    10    12   ar
    19    12    20    1
    20    20    21    1
    21    21    22    1
    22    22    23    1
    23    23    24    1
    24    24    25    1
    25    25    26    1
    26    26    27    1
    27    12    13   ar
    28    13    14   ar
    29    14    15   ar
    30    15    16    1
    31    15    17   ar
    32    17    18   ar
    33    18    19   ar
    34     6     7    1
    35     7     8    1
    36    31    32    1
    37    32    33    1
    38    38    39   ar
    39    39    40   ar
    40    40    41   ar
    41    41    36   ar
    42    33    28    1
    43     8     3    1
    44    19     9   ar
    45    27    22    1
    46    19    13   ar
    47    35    42    1
    48    35    43    1
@<TRIPOS>MOLECULE
*****
 43 48 0 0 0
SMALL
GASTEIGER

@<TRIPOS>ATOM
      1 C           6.6014   -4.0496   31.4454 C.2     1  UNL1        0.2252
      2 O           6.7165   -5.4375   32.0025 O.2     1  UNL1       -0.2749
      3 N           6.5406   -3.8398   29.9614 N.am    1  UNL1       -0.2794
      4 C           6.5950   -5.0180   29.0345 C.3     1  UNL1        0.0953
      5 C           6.5342   -4.8082   27.5505 C.3     1  UNL1        0.0442
      6 C           6.4191   -3.4202   26.9933 C.3     1  UNL1        0.0933
      7 C           6.3648   -2.2422   27.9202 C.3     1  UNL1        0.0442
      8 C           6.4256   -2.4519   29.4042 C.3     1  UNL1        0.0953
      9 N           6.3583   -3.2104   25.5093 N.ar    1  UNL1       -0.2817
     10 C           5.4997   -2.2093   24.7948 C.ar    1  UNL1        0.3315
     11 O           4.5511   -1.2421   25.4388 O.2     1  UNL1       -0.2463
     12 N           5.7563   -2.3451   23.3232 N.ar    1  UNL1       -0.2784
     13 C           6.7734   -3.4302   23.1281 C.ar    1  UNL1        0.0820
     14 C           7.4089   -4.0003   21.8948 C.ar    1  UNL1        0.0484
     15 C           8.4164   -5.1053   22.0127 C.ar    1  UNL1        0.1417
     16 F           9.0519   -5.6755   20.7793 F       1  UNL1       -0.2041
     17 C           8.7885   -5.6401   23.3638 C.ar    1  UNL1        0.0312
     18 C           8.1531   -5.0699   24.5971 C.ar    1  UNL1        0.0211
     19 C           7.1455   -3.9650   24.4793 C.ar    1  UNL1        0.0798
     20 C           5.1093   -1.5377   22.2372 C.3     1  UNL1        0.1278
     21 C           3.7112   -1.8567   21.7970 C.3     1  UNL1        0.0972
     22 N           3.1173   -1.1495   20.6149 N.3     1  UNL1       -0.2668
     23 C           1.7136   -0.6251   20.6822 C.3     1  UNL1        0.1047
     24 C           1.1197    0.0820   19.5001 C.3     1  UNL1        0.1595
     25 O           1.9296    0.2647   18.2508 O.3     1  UNL1       -0.3508
     26 C           3.3333   -0.2597   18.1835 C.3     1  UNL1        0.1595
     27 C           3.9271   -0.9668   19.3656 C.3     1  UNL1        0.1047
     28 N           6.4385   -0.5152   34.2259 N.3     1  UNL1       -0.2689
     29 C           7.7396   -0.9135   33.5946 C.3     1  UNL1        0.0729
     30 C           7.7939   -2.0916   32.6677 C.3     1  UNL1        0.0264
     31 C           6.5471   -2.8715   32.3722 C.3     1  UNL1        0.0795
     32 C           5.2460   -2.4733   33.0036 C.3     1  UNL1        0.0264
     33 C           5.1917   -1.2951   33.9304 C.3     1  UNL1        0.0729
     34 C           6.3841    0.6629   35.1528 C.3     1  UNL1        0.0993
     35 N           2.8935    0.4849   38.9978 N.pl3   1  UNL1       -0.3426
     36 C           3.3278    1.0079   37.6606 C.ar    1  UNL1        0.1251
     37 C           4.6389    0.5739   37.0752 C.ar    1  UNL1        0.0310
     38 C           5.0731    1.0970   35.7381 C.ar    1  UNL1       -0.0018
     39 C           4.1962    2.0540   34.9863 C.ar    1  UNL1        0.0179
     40 C           2.8851    2.4880   35.5717 C.ar    1  UNL1        0.1000
     41 N           2.4509    1.9649   36.9089 N.ar    1  UNL1       -0.2296
     42 H           3.4690   -0.1433   39.4912 H       1  UNL1        0.1437
     43 H           2.0330    0.7698   39.3819 H       1  UNL1        0.1437
@<TRIPOS>BOND
     1    35    36    1
     2    36    37   ar
     3    37    38   ar
     4    38    34    1
     5    34    28    1
     6    28    29    1
     7    29    30    1
     8    30    31    1
     9    31     1    1
    10     1     2    2
    11     1     3   am
    12     3     4    1
    13     4     5    1
    14     5     6    1
    15     6     9    1
    16     9    10   ar
    17    10    11    2
    18    10    12   ar
    19    12    20    1
    20    20    21    1
    21    21    22    1
    22    22    23    1
    23    23    24    1
    24    24    25    1
    25    25    26    1
    26    26    27    1
    27    12    13   ar
    28    13    14   ar
    29    14    15   ar
    30    15    16    1
    31    15    17   ar
    32    17    18   ar
    33    18    19   ar
    34     6     7    1
    35     7     8    1
    36    31    32    1
    37    32    33    1
    38    38    39   ar
    39    39    40   ar
    40    40    41   ar
    41    41    36   ar
    42    33    28    1
    43     8     3    1
    44    19     9   ar
    45    27    22    1
    46    19    13   ar
    47    35    42    1
    48    35    43    1
@<TRIPOS>MOLECULE
*****
 43 48 0 0 0
SMALL
GASTEIGER

@<TRIPOS>ATOM
      1 C           6.6216   -3.8936   21.4850 C.2     1  UNL1        0.2252
      2 O           7.5135   -4.9323   20.8724 O.2     1  UNL1       -0.2749
      3 N           6.5827   -3.7227   22.9748 N.am    1  UNL1       -0.2794
      4 C           7.4357   -4.5905   23.8517 C.3     1  UNL1        0.0953
      5 C           7.3969   -4.4197   25.3415 C.3     1  UNL1        0.0442
      6 C           6.5049   -3.3808   25.9542 C.3     1  UNL1        0.0933
      7 C           5.6519   -2.5131   25.0772 C.3     1  UNL1        0.0442
      8 C           5.6908   -2.6839   23.5875 C.3     1  UNL1        0.0953
      9 N           6.4660   -3.2099   27.4440 N.ar    1  UNL1       -0.2817
     10 C           5.9868   -1.9938   28.1797 C.ar    1  UNL1        0.3315
     11 O           5.4623   -0.7350   27.5549 O.2     1  UNL1       -0.2463
     12 N           6.1242   -2.2575   29.6499 N.ar    1  UNL1       -0.2784
     13 C           6.6883   -3.6366   29.8229 C.ar    1  UNL1        0.0820
     14 C           7.0369   -4.4323   31.0456 C.ar    1  UNL1        0.0484
     15 C           7.5967   -5.8168   30.9050 C.ar    1  UNL1        0.1417
     16 F           7.9454   -6.6126   32.1278 F       1  UNL1       -0.2041
     17 C           7.8080   -6.4054   29.5416 C.ar    1  UNL1        0.0312
     18 C           7.4594   -5.6097   28.3188 C.ar    1  UNL1        0.0211
     19 C           6.8996   -4.2252   28.4595 C.ar    1  UNL1        0.0798
     20 C           5.7612   -1.3086   30.7536 C.3     1  UNL1        0.1278
     21 C           4.4742   -1.4873   31.5032 C.3     1  UNL1        0.0972
     22 N           3.3459   -0.5205   31.2974 N.3     1  UNL1       -0.2668
     23 C           3.1012    0.5703   32.2974 C.3     1  UNL1        0.1047
     24 C           1.9729    1.5371   32.0916 C.3     1  UNL1        0.1595
     25 O           1.0894    1.4130   30.8857 O.3     1  UNL1       -0.3508
     26 C           1.3342    0.3221   29.8857 C.3     1  UNL1        0.1595
     27 C           2.4625   -0.6446   30.0915 C.3     1  UNL1        0.1047
     28 N           4.0624   -1.2900   18.8540 N.3     1  UNL1       -0.2689
     29 C           5.4548   -0.8592   19.2089 C.3     1  UNL1        0.0729
     30 C           6.3078   -1.7270   20.0859 C.3     1  UNL1        0.0264
     31 C           5.7685   -3.0257   20.6080 C.3     1  UNL1        0.0795
     32 C           4.3762   -3.4566   20.2532 C.3     1  UNL1        0.0264
     33 C           3.5232   -2.5887   19.3762 C.3     1  UNL1        0.0729
     34 C           3.2094   -0.4222   17.9771 C.3     1  UNL1        0.0993
     35 N          -0.7017    1.7201   20.6444 N.pl3   1  UNL1       -0.3426
     36 C           0.5823    1.8624   19.8819 C.ar    1  UNL1        0.1251
     37 C           1.2539    0.6489   19.3107 C.ar    1  UNL1        0.0310
     38 C           2.5378    0.7913   18.5483 C.ar    1  UNL1       -0.0018
     39 C           3.1501    2.1473   18.3571 C.ar    1  UNL1        0.0179
     40 C           2.4785    3.3607   18.9284 C.ar    1  UNL1        0.1000
     41 N           1.1946    3.2183   19.6908 N.ar    1  UNL1       -0.2296
     42 H          -1.1036    0.8301   20.7698 H       1  UNL1        0.1437
     43 H          -1.1424    2.5166   21.0193 H       1  UNL1        0.1437
@<TRIPOS>BOND
     1    35    36    1
     2    36    37   ar
     3    37    38   ar
     4    38    34    1
     5    34    28    1
     6    28    29    1
     7    29    30    1
     8    30    31    1
     9    31     1    1
    10     1     2    2
    11     1     3   am
    12     3     4    1
    13     4     5    1
    14     5     6    1
    15     6     9    1
    16     9    10   ar
    17    10    11    2
    18    10    12   ar
    19    12    20    1
    20    20    21    1
    21    21    22    1
    22    22    23    1
    23    23    24    1
    24    24    25    1
    25    25    26    1
    26    26    27    1
    27    12    13   ar
    28    13    14   ar
    29    14    15   ar
    30    15    16    1
    31    15    17   ar
    32    17    18   ar
    33    18    19   ar
    34     6     7    1
    35     7     8    1
    36    31    32    1
    37    32    33    1
    38    38    39   ar
    39    39    40   ar
    40    40    41   ar
    41    41    36   ar
    42    33    28    1
    43     8     3    1
    44    19     9   ar
    45    27    22    1
    46    19    13   ar
    47    35    42    1
    48    35    43    1
@<TRIPOS>MOLECULE
*****
 43 48 0 0 0
SMALL
GASTEIGER

@<TRIPOS>ATOM
      1 C           1.4883    1.3096   28.4714 C.2     1  UNL1        0.2252
      2 O           0.2714    2.0945   28.8625 O.2     1  UNL1       -0.2749
      3 N           1.7241    0.9592   27.0321 N.am    1  UNL1       -0.2794
      4 C           0.7430    1.3938   25.9839 C.3     1  UNL1        0.0953
      5 C           0.9789    1.0435   24.5446 C.3     1  UNL1        0.0442
      6 C           2.1958    0.2585   24.1534 C.3     1  UNL1        0.0933
      7 C           3.1768   -0.1760   25.2016 C.3     1  UNL1        0.0442
      8 C           2.9410    0.1743   26.6409 C.3     1  UNL1        0.0953
      9 N           2.4317   -0.0918   22.7141 N.ar    1  UNL1       -0.2817
     10 C           1.9170    0.6662   21.5264 C.ar    1  UNL1        0.3315
     11 O           1.0761    1.9076   21.5695 O.2     1  UNL1       -0.2463
     12 N           2.3908   -0.0352   20.2881 N.ar    1  UNL1       -0.2784
     13 C           3.1984   -1.2267   20.7104 C.ar    1  UNL1        0.0820
     14 C           3.9140   -2.2843   19.9234 C.ar    1  UNL1        0.0484
     15 C           4.6548   -3.3768   20.6357 C.ar    1  UNL1        0.1417
     16 F           5.3704   -4.4344   19.8487 F       1  UNL1       -0.2041
     17 C           4.6800   -3.4117   22.1351 C.ar    1  UNL1        0.0312
     18 C           3.9644   -2.3542   22.9221 C.ar    1  UNL1        0.0211
     19 C           3.2236   -1.2617   22.2098 C.ar    1  UNL1        0.0798
     20 C           2.1070    0.3816   18.8754 C.3     1  UNL1        0.1278
     21 C           3.0469    1.3093   18.1639 C.3     1  UNL1        0.0972
     22 N           4.5239    1.0496   18.1953 N.3     1  UNL1       -0.2668
     23 C           5.1313    0.0580   17.2479 C.3     1  UNL1        0.1047
     24 C           6.6083   -0.2017   17.2793 C.3     1  UNL1        0.1595
     25 O           7.4779    0.5303   18.2580 O.3     1  UNL1       -0.3508
     26 C           6.8705    1.5220   19.2054 C.3     1  UNL1        0.1595
     27 C           5.3935    1.7817   19.1740 C.3     1  UNL1        0.1047
     28 N           4.4315    0.0059   31.6158 N.3     1  UNL1       -0.2689
     29 C           4.6246    1.3116   30.9031 C.3     1  UNL1        0.0729
     30 C           3.6436    1.7462   29.8549 C.3     1  UNL1        0.0264
     31 C           2.4694    0.8750   29.5196 C.3     1  UNL1        0.0795
     32 C           2.2762   -0.4306   30.2323 C.3     1  UNL1        0.0264
     33 C           3.2573   -0.8652   31.2804 C.3     1  UNL1        0.0729
     34 C           5.4126   -0.4287   32.6640 C.3     1  UNL1        0.0993
     35 N           6.4902   -5.4953   32.2533 N.pl3   1  UNL1       -0.3426
     36 C           6.9263   -4.0629   32.1630 C.ar    1  UNL1        0.1251
     37 C           5.9514   -2.9619   32.4586 C.ar    1  UNL1        0.0310
     38 C           6.3876   -1.5296   32.3684 C.ar    1  UNL1       -0.0018
     39 C           7.7987   -1.1982   31.9825 C.ar    1  UNL1        0.0179
     40 C           8.7736   -2.2991   31.6868 C.ar    1  UNL1        0.1000
     41 N           8.3374   -3.7315   31.7771 N.ar    1  UNL1       -0.2296
     42 H           5.5640   -5.7128   32.5065 H       1  UNL1        0.1437
     43 H           7.1301   -6.2178   32.0592 H       1  UNL1        0.1437
@<TRIPOS>BOND
     1    35    36    1
     2    36    37   ar
     3    37    38   ar
     4    38    34    1
     5    34    28    1
     6    28    29    1
     7    29    30    1
     8    30    31    1
     9    31     1    1
    10     1     2    2
    11     1     3   am
    12     3     4    1
    13     4     5    1
    14     5     6    1
    15     6     9    1
    16     9    10   ar
    17    10    11    2
    18    10    12   ar
    19    12    20    1
    20    20    21    1
    21    21    22    1
    22    22    23    1
    23    23    24    1
    24    24    25    1
    25    25    26    1
    26    26    27    1
    27    12    13   ar
    28    13    14   ar
    29    14    15   ar
    30    15    16    1
    31    15    17   ar
    32    17    18   ar
    33    18    19   ar
    34     6     7    1
    35     7     8    1
    36    31    32    1
    37    32    33    1
    38    38    39   ar
    39    39    40   ar
    40    40    41   ar
    41    41    36   ar
    42    33    28    1
    43     8     3    1
    44    19     9   ar
    45    27    22    1
    46    19    13   ar
    47    35    42    1
    48    35    43    1
@<TRIPOS>MOLECULE
*****
 43 48 0 0 0
SMALL
GASTEIGER

@<TRIPOS>ATOM
      1 C           6.1402   -1.9998   18.8436 C.2     1  UNL1        0.2252
      2 O           6.5933   -2.4061   17.4727 O.2     1  UNL1       -0.2749
      3 N           4.9957   -1.0432   19.0024 N.am    1  UNL1       -0.2794
      4 C           4.3045   -0.4930   17.7902 C.3     1  UNL1        0.0953
      5 C           3.1600    0.4636   17.9489 C.3     1  UNL1        0.0442
      6 C           2.7068    0.8700   19.3199 C.3     1  UNL1        0.0933
      7 C           3.3981    0.3198   20.5320 C.3     1  UNL1        0.0442
      8 C           4.5425   -0.6368   20.3733 C.3     1  UNL1        0.0953
      9 N           1.5624    1.8266   19.4786 N.ar    1  UNL1       -0.2817
     10 C           0.2608    1.5379   20.1659 C.ar    1  UNL1        0.3315
     11 O          -0.1250    0.2419   20.8152 O.2     1  UNL1       -0.2463
     12 N          -0.5874    2.7727   20.0900 N.ar    1  UNL1       -0.2784
     13 C           0.1900    3.8246   19.3557 C.ar    1  UNL1        0.0820
     14 C          -0.1403    5.2393   18.9823 C.ar    1  UNL1        0.0484
     15 C           0.8581    6.0693   18.2311 C.ar    1  UNL1        0.1417
     16 F           0.5278    7.4841   17.8577 F       1  UNL1       -0.2041
     17 C           2.1868    5.4846   17.8533 C.ar    1  UNL1        0.0312
     18 C           2.5170    4.0699   18.2267 C.ar    1  UNL1        0.0211
     19 C           1.5187    3.2399   18.9779 C.ar    1  UNL1        0.0798
     20 C          -1.9702    2.9284   20.6499 C.3     1  UNL1        0.1278
     21 C          -2.1728    3.6162   21.9675 C.3     1  UNL1        0.0972
     22 N          -3.5526    3.7460   22.5415 N.3     1  UNL1       -0.2668
     23 C          -3.7626    3.6316   24.0223 C.3     1  UNL1        0.1047
     24 C          -5.1424    3.7613   24.5962 C.3     1  UNL1        0.1595
     25 O          -6.3120    4.0054   23.6894 O.3     1  UNL1       -0.3508
     26 C          -6.1020    4.1198   22.2087 C.3     1  UNL1        0.1595
     27 C          -4.7222    3.9901   21.6347 C.3     1  UNL1        0.1047
     28 N           8.2139   -3.6504   22.4802 N.3     1  UNL1       -0.2689
     29 C           8.7426   -2.4165   21.8107 C.3     1  UNL1        0.0729
     30 C           8.0514   -1.8663   20.5985 C.3     1  UNL1        0.0264
     31 C           6.8314   -2.5500   20.0558 C.3     1  UNL1        0.0795
     32 C           6.3027   -3.7837   20.7254 C.3     1  UNL1        0.0264
     33 C           6.9940   -4.3339   21.9376 C.3     1  UNL1        0.0729
     34 C           8.9051   -4.2006   23.6924 C.3     1  UNL1        0.0993
     35 N           6.9338   -8.1820   26.3873 N.pl3   1  UNL1       -0.3426
     36 C           7.1124   -6.7051   26.1951 C.ar    1  UNL1        0.1251
     37 C           7.9195   -6.1912   25.0399 C.ar    1  UNL1        0.0310
     38 C           8.0980   -4.7143   24.8476 C.ar    1  UNL1       -0.0018
     39 C           7.4694   -3.7513   25.8106 C.ar    1  UNL1        0.0179
     40 C           6.6622   -4.2651   26.9658 C.ar    1  UNL1        0.1000
     41 N           6.4837   -5.7420   27.1580 N.ar    1  UNL1       -0.2296
     42 H           7.3464   -8.8141   25.7553 H       1  UNL1        0.1437
     43 H           6.4040   -8.5191   27.1456 H       1  UNL1        0.1437
@<TRIPOS>BOND
     1    35    36    1
     2    36    37   ar
     3    37    38   ar
     4    38    34    1
     5    34    28    1
     6    28    29    1
     7    29    30    1
     8    30    31    1
     9    31     1    1
    10     1     2    2
    11     1     3   am
    12     3     4    1
    13     4     5    1
    14     5     6    1
    15     6     9    1
    16     9    10   ar
    17    10    11    2
    18    10    12   ar
    19    12    20    1
    20    20    21    1
    21    21    22    1
    22    22    23    1
    23    23    24    1
    24    24    25    1
    25    25    26    1
    26    26    27    1
    27    12    13   ar
    28    13    14   ar
    29    14    15   ar
    30    15    16    1
    31    15    17   ar
    32    17    18   ar
    33    18    19   ar
    34     6     7    1
    35     7     8    1
    36    31    32    1
    37    32    33    1
    38    38    39   ar
    39    39    40   ar
    40    40    41   ar
    41    41    36   ar
    42    33    28    1
    43     8     3    1
    44    19     9   ar
    45    27    22    1
    46    19    13   ar
    47    35    42    1
    48    35    43    1
@<TRIPOS>MOLECULE
*****
 43 48 0 0 0
SMALL
GASTEIGER

@<TRIPOS>ATOM
      1 C           7.4864   -2.2812   20.0941 C.2     1  UNL1        0.2252
      2 O           8.7638   -2.2320   19.3093 O.2     1  UNL1       -0.2749
      3 N           7.4637   -2.9214   21.4504 N.am    1  UNL1       -0.2794
      4 C           8.7183   -3.5124   22.0219 C.3     1  UNL1        0.0953
      5 C           8.6956   -4.1526   23.3782 C.3     1  UNL1        0.0442
      6 C           7.4182   -4.2017   24.1631 C.3     1  UNL1        0.0933
      7 C           6.1637   -3.6107   23.5916 C.3     1  UNL1        0.0442
      8 C           6.1864   -2.9705   22.2353 C.3     1  UNL1        0.0953
      9 N           7.3955   -4.8419   25.5194 N.ar    1  UNL1       -0.2817
     10 C           6.7491   -4.2779   26.7499 C.ar    1  UNL1        0.3315
     11 O           6.0119   -2.9747   26.8401 O.2     1  UNL1       -0.2463
     12 N           6.9693   -5.2460   27.8743 N.ar    1  UNL1       -0.2784
     13 C           7.7519   -6.4083   27.3388 C.ar    1  UNL1        0.0820
     14 C           8.2586   -7.6617   27.9884 C.ar    1  UNL1        0.0484
     15 C           9.0287   -8.6654   27.1826 C.ar    1  UNL1        0.1417
     16 F           9.5355   -9.9190   27.8322 F       1  UNL1       -0.2041
     17 C           9.2921   -8.4157   25.7272 C.ar    1  UNL1        0.0312
     18 C           8.7854   -7.1623   25.0776 C.ar    1  UNL1        0.0211
     19 C           8.0153   -6.1585   25.8834 C.ar    1  UNL1        0.0798
     20 C           6.4910   -5.0808   29.2864 C.3     1  UNL1        0.1278
     21 C           7.1485   -4.0788   30.1886 C.3     1  UNL1        0.0972
     22 N           6.3186   -3.0507   30.8987 N.3     1  UNL1       -0.2668
     23 C           5.7518   -1.8888   30.1380 C.3     1  UNL1        0.1047
     24 C           4.9218   -0.8607   30.8480 C.3     1  UNL1        0.1595
     25 O           4.6587   -0.9945   32.3186 O.3     1  UNL1       -0.3508
     26 C           5.2255   -2.1564   33.0793 C.3     1  UNL1        0.1595
     27 C           6.0554   -3.1845   32.3693 C.3     1  UNL1        0.1047
     28 N           3.7226   -0.5081   18.3796 N.3     1  UNL1       -0.2689
     29 C           4.6477    0.3434   19.1978 C.3     1  UNL1        0.0729
     30 C           5.9023   -0.2477   19.7693 C.3     1  UNL1        0.0264
     31 C           6.2318   -1.6901   19.5226 C.3     1  UNL1        0.0795
     32 C           5.3067   -2.5415   18.7044 C.3     1  UNL1        0.0264
     33 C           4.0521   -1.9505   18.1329 C.3     1  UNL1        0.0729
     34 C           2.4679    0.0830   17.8081 C.3     1  UNL1        0.0993
     35 N          -0.5880    4.0952   19.0583 N.pl3   1  UNL1       -0.3426
     36 C          -0.0765    2.7140   19.3422 C.ar    1  UNL1        0.1251
     37 C           0.9400    2.0890   18.4332 C.ar    1  UNL1        0.0310
     38 C           1.4515    0.7078   18.7171 C.ar    1  UNL1       -0.0018
     39 C           0.9466   -0.0485   19.9101 C.ar    1  UNL1        0.0179
     40 C          -0.0699    0.5765   20.8190 C.ar    1  UNL1        0.1000
     41 N          -0.5814    1.9577   20.5351 N.ar    1  UNL1       -0.2296
     42 H          -0.2567    4.5916   18.2753 H       1  UNL1        0.1437
     43 H          -1.2552    4.5053   19.6549 H       1  UNL1        0.1437
@<TRIPOS>BOND
     1    35    36    1
     2    36    37   ar
     3    37    38   ar
     4    38    34    1
     5    34    28    1
     6    28    29    1
     7    29    30    1
     8    30    31    1
     9    31     1    1
    10     1     2    2
    11     1     3   am
    12     3     4    1
    13     4     5    1
    14     5     6    1
    15     6     9    1
    16     9    10   ar
    17    10    11    2
    18    10    12   ar
    19    12    20    1
    20    20    21    1
    21    21    22    1
    22    22    23    1
    23    23    24    1
    24    24    25    1
    25    25    26    1
    26    26    27    1
    27    12    13   ar
    28    13    14   ar
    29    14    15   ar
    30    15    16    1
    31    15    17   ar
    32    17    18   ar
    33    18    19   ar
    34     6     7    1
    35     7     8    1
    36    31    32    1
    37    32    33    1
    38    38    39   ar
    39    39    40   ar
    40    40    41   ar
    41    41    36   ar
    42    33    28    1
    43     8     3    1
    44    19     9   ar
    45    27    22    1
    46    19    13   ar
    47    35    42    1
    48    35    43    1
@<TRIPOS>MOLECULE
*****
 43 48 0 0 0
SMALL
GASTEIGER

@<TRIPOS>ATOM
      1 C           0.5450    0.8384   29.1709 C.2     1  UNL1        0.2252
      2 O          -0.6907    0.6407   29.9978 O.2     1  UNL1       -0.2749
      3 N           0.4329    1.3502   27.7654 N.am    1  UNL1       -0.2794
      4 C          -0.9149    1.6644   27.1869 C.3     1  UNL1        0.0953
      5 C          -1.0270    2.1762   25.7814 C.3     1  UNL1        0.0442
      6 C           0.2088    2.3740   24.9544 C.3     1  UNL1        0.0933
      7 C           1.5565    2.0598   25.5329 C.3     1  UNL1        0.0442
      8 C           1.6686    1.5480   26.9384 C.3     1  UNL1        0.0953
      9 N           0.0966    2.8858   23.5489 N.ar    1  UNL1       -0.2817
     10 C          -0.2906    4.2778   23.1457 C.ar    1  UNL1        0.3315
     11 O          -0.6338    5.4023   24.0773 O.2     1  UNL1       -0.2463
     12 N          -0.2745    4.3478   21.6475 N.ar    1  UNL1       -0.2784
     13 C           0.1227    2.9991   21.1246 C.ar    1  UNL1        0.0820
     14 C           0.3052    2.4771   19.7303 C.ar    1  UNL1        0.0484
     15 C           0.7171    1.0515   19.5112 C.ar    1  UNL1        0.1417
     16 F           0.8996    0.5294   18.1168 F       1  UNL1       -0.2041
     17 C           0.9464    0.1480   20.6863 C.ar    1  UNL1        0.0312
     18 C           0.7640    0.6700   22.0806 C.ar    1  UNL1        0.0211
     19 C           0.3521    2.0956   22.2998 C.ar    1  UNL1        0.0798
     20 C          -0.5987    5.5546   20.8177 C.3     1  UNL1        0.1278
     21 C          -2.0019    6.0835   20.7793 C.3     1  UNL1        0.0972
     22 N          -3.1469    5.2021   21.1818 N.3     1  UNL1       -0.2668
     23 C          -3.6035    4.1025   20.2694 C.3     1  UNL1        0.1047
     24 C          -4.7486    3.2211   20.6719 C.3     1  UNL1        0.1595
     25 O          -5.4369    3.4392   21.9866 O.3     1  UNL1       -0.3508
     26 C          -4.9803    4.5388   22.8990 C.3     1  UNL1        0.1595
     27 C          -3.8353    5.4203   22.4965 C.3     1  UNL1        0.1047
     28 N           4.5885   -0.1040   30.9065 N.3     1  UNL1       -0.2689
     29 C           3.7889    1.0439   31.4479 C.3     1  UNL1        0.0729
     30 C           2.4411    1.3580   30.8694 C.3     1  UNL1        0.0264
     31 C           1.8928    0.5242   29.7494 C.3     1  UNL1        0.0795
     32 C           2.6924   -0.6236   29.2080 C.3     1  UNL1        0.0264
     33 C           4.0402   -0.9377   29.7865 C.3     1  UNL1        0.0729
     34 C           5.9363   -0.4181   31.4850 C.3     1  UNL1        0.0993
     35 N           6.4717   -5.4986   32.4352 N.pl3   1  UNL1       -0.3426
     36 C           6.8603   -4.2736   31.6615 C.ar    1  UNL1        0.1251
     37 C           6.2040   -2.9583   31.9601 C.ar    1  UNL1        0.0310
     38 C           6.5927   -1.7334   31.1864 C.ar    1  UNL1       -0.0018
     39 C           7.6377   -1.8238   30.1141 C.ar    1  UNL1        0.0179
     40 C           8.2940   -3.1392   29.8155 C.ar    1  UNL1        0.1000
     41 N           7.9053   -4.3640   30.5892 N.ar    1  UNL1       -0.2296
     42 H           5.7858   -5.4392   33.1390 H       1  UNL1        0.1437
     43 H           6.9025   -6.3618   32.2392 H       1  UNL1        0.1437
@<TRIPOS>BOND
     1    35    36    1
     2    36    37   ar
     3    37    38   ar
     4    38    34    1
     5    34    28    1
     6    28    29    1
     7    29    30    1
     8    30    31    1
     9    31     1    1
    10     1     2    2
    11     1     3   am
    12     3     4    1
    13     4     5    1
    14     5     6    1
    15     6     9    1
    16     9    10   ar
    17    10    11    2
    18    10    12   ar
    19    12    20    1
    20    20    21    1
    21    21    22    1
    22    22    23    1
    23    23    24    1
    24    24    25    1
    25    25    26    1
    26    26    27    1
    27    12    13   ar
    28    13    14   ar
    29    14    15   ar
    30    15    16    1
    31    15    17   ar
    32    17    18   ar
    33    18    19   ar
    34     6     7    1
    35     7     8    1
    36    31    32    1
    37    32    33    1
    38    38    39   ar
    39    39    40   ar
    40    40    41   ar
    41    41    36   ar
    42    33    28    1
    43     8     3    1
    44    19     9   ar
    45    27    22    1
    46    19    13   ar
    47    35    42    1
    48    35    43    1
@<TRIPOS>MOLECULE
*****
 43 48 0 0 0
SMALL
GASTEIGER

@<TRIPOS>ATOM
      1 C         -11.4150   -4.3273   18.7499 C.2     1  UNL1        0.2252
      2 O          -9.9655   -4.4472   19.1167 O.2     1  UNL1       -0.2749
      3 N         -12.0227   -2.9741   18.5272 N.am    1  UNL1       -0.2794
      4 C         -11.1809   -1.7410   18.6712 C.3     1  UNL1        0.0953
      5 C         -11.7887   -0.3878   18.4485 C.3     1  UNL1        0.0442
      6 C         -13.2383   -0.2678   18.0818 C.3     1  UNL1        0.0933
      7 C         -14.0799   -1.5010   17.9377 C.3     1  UNL1        0.0442
      8 C         -13.4722   -2.8541   18.1605 C.3     1  UNL1        0.0953
      9 N         -13.8460    1.0853   17.8590 N.ar    1  UNL1       -0.2817
     10 C         -13.3560    2.1240   16.8941 C.ar    1  UNL1        0.3315
     11 O         -12.1722    1.9918   15.9824 O.2     1  UNL1       -0.2463
     12 N         -14.2576    3.3179   17.0009 N.ar    1  UNL1       -0.2784
     13 C         -15.3049    3.0173   18.0318 C.ar    1  UNL1        0.0820
     14 C         -16.4573    3.8217   18.5562 C.ar    1  UNL1        0.0484
     15 C         -17.3552    3.2462   19.6109 C.ar    1  UNL1        0.1417
     16 F         -18.5077    4.0506   20.1352 F       1  UNL1       -0.2041
     17 C         -17.1008    1.8663   20.1412 C.ar    1  UNL1        0.0312
     18 C         -15.9485    1.0620   19.6169 C.ar    1  UNL1        0.0211
     19 C         -15.0505    1.6374   18.5622 C.ar    1  UNL1        0.0798
     20 C         -14.1338    4.5894   16.2148 C.3     1  UNL1        0.1278
     21 C         -12.8291    5.3292   16.1857 C.3     1  UNL1        0.0972
     22 N         -12.3509    6.0546   17.4085 N.3     1  UNL1       -0.2668
     23 C         -13.3306    6.4683   18.4662 C.3     1  UNL1        0.1047
     24 C         -12.8524    7.1936   19.6890 C.3     1  UNL1        0.1595
     25 O         -11.3944    7.5053   19.8539 O.3     1  UNL1       -0.3508
     26 C         -10.4147    7.0917   18.7962 C.3     1  UNL1        0.1595
     27 C         -10.8929    6.3663   17.5734 C.3     1  UNL1        0.1047
     28 N         -13.9402   -8.0268   18.3178 N.3     1  UNL1       -0.2689
     29 C         -12.7986   -7.7837   17.3756 C.3     1  UNL1        0.0729
     30 C         -11.9568   -6.5505   17.5196 C.3     1  UNL1        0.0264
     31 C         -12.2567   -5.5605   18.6059 C.3     1  UNL1        0.0795
     32 C         -13.3983   -5.8035   19.5481 C.3     1  UNL1        0.0264
     33 C         -14.2400   -7.0367   19.4040 C.3     1  UNL1        0.0729
     34 C         -14.7820   -9.2599   18.1738 C.3     1  UNL1        0.0993
     35 N         -19.6594  -11.0516   18.1519 N.pl3   1  UNL1       -0.3426
     36 C         -18.6440  -10.0429   17.7030 C.ar    1  UNL1        0.1251
     37 C         -17.2207  -10.1557   18.1628 C.ar    1  UNL1        0.0310
     38 C         -16.2053   -9.1470   17.7139 C.ar    1  UNL1       -0.0018
     39 C         -16.6132   -8.0255   16.8052 C.ar    1  UNL1        0.0179
     40 C         -18.0365   -7.9127   16.3454 C.ar    1  UNL1        0.1000
     41 N         -19.0519   -8.9214   16.7943 N.ar    1  UNL1       -0.2296
     42 H         -19.3918  -11.7877   18.7483 H       1  UNL1        0.1437
     43 H         -20.5936  -10.9775   17.8501 H       1  UNL1        0.1437
@<TRIPOS>BOND
     1    35    36    1
     2    36    37   ar
     3    37    38   ar
     4    38    34    1
     5    34    28    1
     6    28    29    1
     7    29    30    1
     8    30    31    1
     9    31     1    1
    10     1     2    2
    11     1     3   am
    12     3     4    1
    13     4     5    1
    14     5     6    1
    15     6     9    1
    16     9    10   ar
    17    10    11    2
    18    10    12   ar
    19    12    20    1
    20    20    21    1
    21    21    22    1
    22    22    23    1
    23    23    24    1
    24    24    25    1
    25    25    26    1
    26    26    27    1
    27    12    13   ar
    28    13    14   ar
    29    14    15   ar
    30    15    16    1
    31    15    17   ar
    32    17    18   ar
    33    18    19   ar
    34     6     7    1
    35     7     8    1
    36    31    32    1
    37    32    33    1
    38    38    39   ar
    39    39    40   ar
    40    40    41   ar
    41    41    36   ar
    42    33    28    1
    43     8     3    1
    44    19     9   ar
    45    27    22    1
    46    19    13   ar
    47    35    42    1
    48    35    43    1
