@<TRIPOS>MOLECULE
*****
 36 41 0 0 0
SMALL
GASTEIGER

@<TRIPOS>ATOM
      1 C           1.7175    1.9864   32.5285 C.3     1  UNL1        0.0311
      2 C           2.6372    1.0646   31.7839 C.3     1  UNL1        0.1491
      3 C           3.2309    1.6381   33.0362 C.3     1  UNL1        0.1220
      4 N           4.6285    1.2721   33.4395 N.am    1  UNL1       -0.2600
      5 C           5.2223    1.8456   34.6919 C.2     1  UNL1        0.3088
      6 O           6.6200    1.4797   35.0951 O.2     1  UNL1       -0.2522
      7 N           4.4184    2.7851   35.5411 N.am    1  UNL1       -0.2534
      8 C           5.4325    0.3327   32.5903 C.3     1  UNL1        0.1165
      9 C           4.8387   -0.2408   31.3379 C.3     1  UNL1        0.1169
     10 N           3.4411    0.1251   30.9347 N.am    1  UNL1       -0.2555
     11 C           2.5960   -0.2791   29.7632 C.2     1  UNL1        0.3133
     12 O           3.0053   -1.2097   28.6601 O.2     1  UNL1       -0.2519
     13 N           1.2698    0.4105   29.8883 N.am    1  UNL1       -0.2141
     14 C           1.2953    1.2409   31.1371 C.2     1  UNL1        0.2502
     15 O           0.1754    2.0974   31.6494 O.2     1  UNL1       -0.2726
     16 H           3.5011    3.0253   35.2764 H       1  UNL1        0.1578
     17 C           5.0121    3.3586   36.7935 C.ar    1  UNL1        0.1384
     18 C           6.2605    4.1858   36.8788 C.ar    1  UNL1        0.0570
     19 C           6.4817    4.5441   38.3185 C.ar    1  UNL1        0.1234
     20 N           5.3700    3.9382   39.1230 N.ar    1  UNL1       -0.1623
     21 N           4.4618    3.2056   38.1805 N.ar    1  UNL1       -0.2159
     22 C           3.2210    2.4522   38.5586 C.ar    1  UNL1        0.0842
     23 C           3.2859    0.9731   38.7998 C.ar    1  UNL1        0.0192
     24 C           2.0453    0.2197   39.1779 C.ar    1  UNL1        0.0015
     25 C           0.7396    0.9454   39.3147 C.ar    1  UNL1        0.0001
     26 C           0.6747    2.4244   39.0735 C.ar    1  UNL1        0.0015
     27 C           1.9154    3.1778   38.6954 C.ar    1  UNL1        0.0192
     28 C           0.1201    0.2906   28.9324 C.3     1  UNL1        0.0883
     29 C          -1.1873   -0.3342   28.5449 C.3     1  UNL1        0.0267
     30 C          -0.5639    0.7079   27.6643 C.3     1  UNL1        0.0427
     31 C          -0.5988    1.5504   26.4238 C.ar    1  UNL1       -0.0208
     32 C          -1.4739    2.7676   26.3682 C.ar    1  UNL1       -0.0042
     33 C          -1.5088    3.6101   25.1277 C.ar    1  UNL1       -0.0003
     34 C          -0.6688    3.2356   23.9428 C.ar    1  UNL1       -0.0000
     35 C           0.2062    2.0186   23.9984 C.ar    1  UNL1       -0.0003
     36 C           0.2412    1.1759   25.2389 C.ar    1  UNL1       -0.0042
@<TRIPOS>BOND
     1     2     1    1
     2     2     3    1
     3     3     4    1
     4     4     5   am
     5     5     6    2
     6     5     7   am
     7     7    17    1
     8    17    18   ar
     9    18    19   ar
    10    19    20   ar
    11    20    21   ar
    12    21    22    1
    13    22    23   ar
    14    23    24   ar
    15    24    25   ar
    16    25    26   ar
    17    26    27   ar
    18     4     8    1
    19     8     9    1
    20     9    10    1
    21    10    11   am
    22    11    12    2
    23    11    13   am
    24    28    13    1
    25    28    29    1
    26    29    30    1
    27    30    31    1
    28    31    32   ar
    29    32    33   ar
    30    33    34   ar
    31    34    35   ar
    32    35    36   ar
    33    13    14   am
    34    14    15    2
    35    10     2    1
    36    30    28    1
    37    36    31   ar
    38    14     2    1
    39    21    17   ar
    40    27    22   ar
    41     7    16    1
@<TRIPOS>MOLECULE
*****
 36 41 0 0 0
SMALL
GASTEIGER

@<TRIPOS>ATOM
      1 C           5.0874   -3.2763   22.0938 C.3     1  UNL1        0.0311
      2 C           6.1994   -3.2903   21.0872 C.3     1  UNL1        0.1491
      3 C           6.5251   -4.0033   22.3660 C.3     1  UNL1        0.1220
      4 N           7.8677   -4.6481   22.5443 N.am    1  UNL1       -0.2600
      5 C           8.1934   -5.3612   23.8231 C.2     1  UNL1        0.3088
      6 O           9.5360   -6.0059   24.0014 O.2     1  UNL1       -0.2522
      7 N           7.1765   -5.4295   24.9237 N.am    1  UNL1       -0.2534
      8 C           8.8846   -4.5797   21.4437 C.3     1  UNL1        0.1165
      9 C           8.5589   -3.8667   20.1649 C.3     1  UNL1        0.1169
     10 N           7.2163   -3.2219   19.9866 N.am    1  UNL1       -0.2555
     11 C           6.6145   -2.4552   18.8465 C.2     1  UNL1        0.3133
     12 O           7.2840   -2.1480   17.5398 O.2     1  UNL1       -0.2519
     13 N           5.2257   -2.0497   19.2423 N.am    1  UNL1       -0.2141
     14 C           4.9692   -2.5658   20.6272 C.2     1  UNL1        0.2502
     15 O           3.7044   -2.3885   21.4140 O.2     1  UNL1       -0.2726
     16 H           6.2954   -5.0063   24.8067 H       1  UNL1        0.1578
     17 C           7.5022   -6.1426   26.2025 C.ar    1  UNL1        0.1384
     18 C           7.7332   -7.6167   26.3558 C.ar    1  UNL1        0.0570
     19 C           8.0278   -7.8919   27.8006 C.ar    1  UNL1        0.1234
     20 N           7.9790   -6.5879   28.5403 N.ar    1  UNL1       -0.1623
     21 N           7.6541   -5.5067   27.5526 N.ar    1  UNL1       -0.2159
     22 C           7.5069   -4.0461   27.8608 C.ar    1  UNL1        0.0842
     23 C           6.1408   -3.4454   28.0117 C.ar    1  UNL1        0.0192
     24 C           5.9936   -1.9848   28.3199 C.ar    1  UNL1        0.0015
     25 C           7.2127   -1.1250   28.4773 C.ar    1  UNL1        0.0001
     26 C           8.5787   -1.7257   28.3265 C.ar    1  UNL1        0.0015
     27 C           8.7259   -3.1863   28.0182 C.ar    1  UNL1        0.0192
     28 C           4.2625   -1.2658   18.4011 C.3     1  UNL1        0.0883
     29 C           3.7860   -0.8123   17.0531 C.3     1  UNL1        0.0267
     30 C           3.0707   -0.3615   18.2921 C.3     1  UNL1        0.0427
     31 C           1.9697    0.4209   18.9445 C.ar    1  UNL1       -0.0208
     32 C           1.1288   -0.2145   20.0118 C.ar    1  UNL1       -0.0042
     33 C           0.0278    0.5678   20.6642 C.ar    1  UNL1       -0.0003
     34 C          -0.2324    1.9856   20.2493 C.ar    1  UNL1       -0.0000
     35 C           0.6085    2.6211   19.1820 C.ar    1  UNL1       -0.0003
     36 C           1.7096    1.8387   18.5296 C.ar    1  UNL1       -0.0042
@<TRIPOS>BOND
     1     2     1    1
     2     2     3    1
     3     3     4    1
     4     4     5   am
     5     5     6    2
     6     5     7   am
     7     7    17    1
     8    17    18   ar
     9    18    19   ar
    10    19    20   ar
    11    20    21   ar
    12    21    22    1
    13    22    23   ar
    14    23    24   ar
    15    24    25   ar
    16    25    26   ar
    17    26    27   ar
    18     4     8    1
    19     8     9    1
    20     9    10    1
    21    10    11   am
    22    11    12    2
    23    11    13   am
    24    28    13    1
    25    28    29    1
    26    29    30    1
    27    30    31    1
    28    31    32   ar
    29    32    33   ar
    30    33    34   ar
    31    34    35   ar
    32    35    36   ar
    33    13    14   am
    34    14    15    2
    35    10     2    1
    36    30    28    1
    37    36    31   ar
    38    14     2    1
    39    21    17   ar
    40    27    22   ar
    41     7    16    1
@<TRIPOS>MOLECULE
*****
 36 41 0 0 0
SMALL
GASTEIGER

@<TRIPOS>ATOM
      1 C           5.4909   -3.3225   23.9776 C.3     1  UNL1        0.0311
      2 C           6.8269   -3.5160   23.3236 C.3     1  UNL1        0.1491
      3 C           6.8330   -3.7511   24.8051 C.3     1  UNL1        0.1220
      4 N           8.1049   -4.1428   25.4970 N.am    1  UNL1       -0.2600
      5 C           8.1111   -4.3779   26.9785 C.2     1  UNL1        0.3088
      6 O           9.3830   -4.7695   27.6705 O.2     1  UNL1       -0.2522
      7 N           6.8453   -4.2213   27.7680 N.am    1  UNL1       -0.2534
      8 C           9.3707   -4.2993   24.7075 C.3     1  UNL1        0.1165
      9 C           9.3646   -4.0643   23.2261 C.3     1  UNL1        0.1169
     10 N           8.0927   -3.6726   22.5342 N.am    1  UNL1       -0.2555
     11 C           7.7821   -3.3769   21.0968 C.2     1  UNL1        0.3133
     12 O           8.7580   -3.4140   19.9582 O.2     1  UNL1       -0.2519
     13 N           6.3244   -3.0375   20.9979 N.am    1  UNL1       -0.2141
     14 C           5.7341   -3.1235   22.3741 C.2     1  UNL1        0.2502
     15 O           4.3022   -2.8628   22.7372 O.2     1  UNL1       -0.2726
     16 H           6.0105   -3.9642   27.3138 H       1  UNL1        0.1578
     17 C           6.8514   -4.4564   29.2494 C.ar    1  UNL1        0.1384
     18 C           7.0032   -5.7840   29.9308 C.ar    1  UNL1        0.0570
     19 C           6.9524   -5.5533   31.4121 C.ar    1  UNL1        0.1234
     20 N           6.7692   -4.0830   31.6462 N.ar    1  UNL1       -0.1623
     21 N           6.7068   -3.4051   30.3096 N.ar    1  UNL1       -0.2159
     22 C           6.5307   -1.9341   30.0744 C.ar    1  UNL1        0.0842
     23 C           7.6688   -1.1193   29.5351 C.ar    1  UNL1        0.0192
     24 C           7.4927    0.3516   29.2999 C.ar    1  UNL1        0.0015
     25 C           6.1785    1.0077   29.6041 C.ar    1  UNL1        0.0001
     26 C           5.0405    0.1930   30.1434 C.ar    1  UNL1        0.0015
     27 C           5.2166   -1.2780   30.3786 C.ar    1  UNL1        0.0192
     28 C           5.5865   -2.6756   19.7430 C.3     1  UNL1        0.0883
     29 C           5.4332   -2.7679   18.2538 C.3     1  UNL1        0.0267
     30 C           4.4618   -1.9567   19.0589 C.3     1  UNL1        0.0427
     31 C           3.2516   -1.0732   19.1288 C.ar    1  UNL1       -0.0208
     32 C           3.1077    0.0782   18.1781 C.ar    1  UNL1       -0.0042
     33 C           1.8975    0.9617   18.2480 C.ar    1  UNL1       -0.0003
     34 C           0.8312    0.6938   19.2684 C.ar    1  UNL1       -0.0000
     35 C           0.9751   -0.4575   20.2190 C.ar    1  UNL1       -0.0003
     36 C           2.1853   -1.3410   20.1492 C.ar    1  UNL1       -0.0042
@<TRIPOS>BOND
     1     2     1    1
     2     2     3    1
     3     3     4    1
     4     4     5   am
     5     5     6    2
     6     5     7   am
     7     7    17    1
     8    17    18   ar
     9    18    19   ar
    10    19    20   ar
    11    20    21   ar
    12    21    22    1
    13    22    23   ar
    14    23    24   ar
    15    24    25   ar
    16    25    26   ar
    17    26    27   ar
    18     4     8    1
    19     8     9    1
    20     9    10    1
    21    10    11   am
    22    11    12    2
    23    11    13   am
    24    28    13    1
    25    28    29    1
    26    29    30    1
    27    30    31    1
    28    31    32   ar
    29    32    33   ar
    30    33    34   ar
    31    34    35   ar
    32    35    36   ar
    33    13    14   am
    34    14    15    2
    35    10     2    1
    36    30    28    1
    37    36    31   ar
    38    14     2    1
    39    21    17   ar
    40    27    22   ar
    41     7    16    1
@<TRIPOS>MOLECULE
*****
 36 41 0 0 0
SMALL
GASTEIGER

@<TRIPOS>ATOM
      1 C           0.1671    0.4442   20.1117 C.3     1  UNL1        0.0311
      2 C           1.0471    1.4874   19.4892 C.3     1  UNL1        0.1491
      3 C          -0.2887    2.0033   19.9358 C.3     1  UNL1        0.1220
      4 N          -0.6374    3.4492   19.7411 N.am    1  UNL1       -0.2600
      5 C          -1.9732    3.9652   20.1877 C.2     1  UNL1        0.3088
      6 O          -2.3219    5.4110   19.9931 O.2     1  UNL1       -0.2522
      7 N          -2.9602    3.0354   20.8290 N.am    1  UNL1       -0.2534
      8 C           0.3496    4.3790   19.0999 C.3     1  UNL1        0.1165
      9 C           1.6854    3.8631   18.6533 C.3     1  UNL1        0.1169
     10 N           2.0341    2.4172   18.8480 N.am    1  UNL1       -0.2555
     11 C           3.2641    1.6273   18.5115 C.2     1  UNL1        0.3133
     12 O           4.5033    2.1617   17.8567 O.2     1  UNL1       -0.2519
     13 N           3.0373    0.2093   18.9447 N.am    1  UNL1       -0.2141
     14 C           1.6671    0.1228   19.5490 C.2     1  UNL1        0.2502
     15 O           1.0289   -1.1115   20.1139 O.2     1  UNL1       -0.2726
     16 H          -2.7313    2.0864   20.9567 H       1  UNL1        0.1578
     17 C          -4.2960    3.5513   21.2755 C.ar    1  UNL1        0.1384
     18 C          -5.4711    3.8396   20.3890 C.ar    1  UNL1        0.0570
     19 C          -6.5925    4.3360   21.2526 C.ar    1  UNL1        0.1234
     20 N          -6.1105    4.3547   22.6730 N.ar    1  UNL1       -0.1623
     21 N          -4.6912    3.8697   22.6871 N.ar    1  UNL1       -0.2159
     22 C          -3.8200    3.7279   23.8999 C.ar    1  UNL1        0.0842
     23 C          -2.3348    3.5864   23.7442 C.ar    1  UNL1        0.0192
     24 C          -1.4636    3.4447   24.9569 C.ar    1  UNL1        0.0015
     25 C          -2.0776    3.4444   26.3255 C.ar    1  UNL1        0.0001
     26 C          -3.5627    3.5859   26.4813 C.ar    1  UNL1        0.0015
     27 C          -4.4340    3.7276   25.2685 C.ar    1  UNL1        0.0192
     28 C           4.0098   -0.9234   18.7993 C.3     1  UNL1        0.0883
     29 C           4.8328   -1.8251   17.9278 C.3     1  UNL1        0.0267
     30 C           4.8713   -1.9835   19.4189 C.3     1  UNL1        0.0427
     31 C           5.3909   -2.6871   20.6374 C.ar    1  UNL1       -0.0208
     32 C           4.5170   -2.8356   21.8476 C.ar    1  UNL1       -0.0042
     33 C           5.0366   -3.5392   23.0661 C.ar    1  UNL1       -0.0003
     34 C           6.4300   -4.0943   23.0747 C.ar    1  UNL1       -0.0000
     35 C           7.3039   -3.9459   21.8646 C.ar    1  UNL1       -0.0003
     36 C           6.7843   -3.2423   20.6460 C.ar    1  UNL1       -0.0042
@<TRIPOS>BOND
     1     2     1    1
     2     2     3    1
     3     3     4    1
     4     4     5   am
     5     5     6    2
     6     5     7   am
     7     7    17    1
     8    17    18   ar
     9    18    19   ar
    10    19    20   ar
    11    20    21   ar
    12    21    22    1
    13    22    23   ar
    14    23    24   ar
    15    24    25   ar
    16    25    26   ar
    17    26    27   ar
    18     4     8    1
    19     8     9    1
    20     9    10    1
    21    10    11   am
    22    11    12    2
    23    11    13   am
    24    28    13    1
    25    28    29    1
    26    29    30    1
    27    30    31    1
    28    31    32   ar
    29    32    33   ar
    30    33    34   ar
    31    34    35   ar
    32    35    36   ar
    33    13    14   am
    34    14    15    2
    35    10     2    1
    36    30    28    1
    37    36    31   ar
    38    14     2    1
    39    21    17   ar
    40    27    22   ar
    41     7    16    1
@<TRIPOS>MOLECULE
*****
 36 41 0 0 0
SMALL
GASTEIGER

@<TRIPOS>ATOM
      1 C           6.1260   -2.2023   27.1455 C.3     1  UNL1        0.0311
      2 C           6.5737   -3.6264   27.2927 C.3     1  UNL1        0.1491
      3 C           6.2632   -2.9469   28.5933 C.3     1  UNL1        0.1220
      4 N           6.4126   -3.6951   29.8847 N.am    1  UNL1       -0.2600
      5 C           6.1020   -3.0157   31.1855 C.2     1  UNL1        0.3088
      6 O           6.2514   -3.7639   32.4769 O.2     1  UNL1       -0.2522
      7 N           5.6420   -1.5880   31.1948 N.am    1  UNL1       -0.2534
      8 C           6.8725   -5.1228   29.8755 C.3     1  UNL1        0.1165
      9 C           7.1831   -5.8023   28.5748 C.3     1  UNL1        0.1169
     10 N           7.0337   -5.0541   27.2834 N.am    1  UNL1       -0.2555
     11 C           7.2643   -5.4575   25.8572 C.2     1  UNL1        0.3133
     12 O           7.7305   -6.8030   25.3859 O.2     1  UNL1       -0.2519
     13 N           6.9469   -4.2791   24.9850 N.am    1  UNL1       -0.2141
     14 C           6.5201   -3.1474   25.8722 C.2     1  UNL1        0.2502
     15 O           6.1114   -1.7773   25.4186 O.2     1  UNL1       -0.2726
     16 H           5.5440   -1.0969   30.3472 H       1  UNL1        0.1578
     17 C           5.3315   -0.9085   32.4955 C.ar    1  UNL1        0.1384
     18 C           6.1598   -0.9741   33.7443 C.ar    1  UNL1        0.0570
     19 C           5.4784   -0.1503   34.7964 C.ar    1  UNL1        0.1234
     20 N           4.2288    0.4245   34.1978 N.ar    1  UNL1       -0.1623
     21 N           4.1380   -0.0441   32.7758 N.ar    1  UNL1       -0.2159
     22 C           3.0456    0.2926   31.8046 C.ar    1  UNL1        0.0842
     23 C           2.7601   -0.6219   30.6503 C.ar    1  UNL1        0.0192
     24 C           1.6678   -0.2853   29.6791 C.ar    1  UNL1        0.0015
     25 C           0.8608    0.9659   29.8621 C.ar    1  UNL1        0.0001
     26 C           1.1463    1.8804   31.0163 C.ar    1  UNL1        0.0015
     27 C           2.2387    1.5437   31.9876 C.ar    1  UNL1        0.0192
     28 C           7.0400   -4.2394   23.4884 C.3     1  UNL1        0.0883
     29 C           7.8003   -4.5201   22.2263 C.3     1  UNL1        0.0267
     30 C           6.4408   -3.8899   22.1584 C.3     1  UNL1        0.0427
     31 C           5.3100   -3.3243   21.3514 C.ar    1  UNL1       -0.0208
     32 C           4.5302   -2.1529   21.8710 C.ar    1  UNL1       -0.0042
     33 C           3.3994   -1.5873   21.0640 C.ar    1  UNL1       -0.0003
     34 C           3.0483   -2.1931   19.7374 C.ar    1  UNL1       -0.0000
     35 C           3.8280   -3.3644   19.2178 C.ar    1  UNL1       -0.0003
     36 C           4.9589   -3.9301   20.0249 C.ar    1  UNL1       -0.0042
@<TRIPOS>BOND
     1     2     1    1
     2     2     3    1
     3     3     4    1
     4     4     5   am
     5     5     6    2
     6     5     7   am
     7     7    17    1
     8    17    18   ar
     9    18    19   ar
    10    19    20   ar
    11    20    21   ar
    12    21    22    1
    13    22    23   ar
    14    23    24   ar
    15    24    25   ar
    16    25    26   ar
    17    26    27   ar
    18     4     8    1
    19     8     9    1
    20     9    10    1
    21    10    11   am
    22    11    12    2
    23    11    13   am
    24    28    13    1
    25    28    29    1
    26    29    30    1
    27    30    31    1
    28    31    32   ar
    29    32    33   ar
    30    33    34   ar
    31    34    35   ar
    32    35    36   ar
    33    13    14   am
    34    14    15    2
    35    10     2    1
    36    30    28    1
    37    36    31   ar
    38    14     2    1
    39    21    17   ar
    40    27    22   ar
    41     7    16    1
@<TRIPOS>MOLECULE
*****
 36 41 0 0 0
SMALL
GASTEIGER

@<TRIPOS>ATOM
      1 C           4.1418   -1.2962   25.2332 C.3     1  UNL1        0.0311
      2 C           5.1600   -2.3727   24.9994 C.3     1  UNL1        0.1491
      3 C           5.1164   -1.8705   26.4122 C.3     1  UNL1        0.1220
      4 N           6.0429   -2.4462   27.4416 N.am    1  UNL1       -0.2600
      5 C           5.9994   -1.9441   28.8545 C.2     1  UNL1        0.3088
      6 O           6.9260   -2.5198   29.8840 O.2     1  UNL1       -0.2522
      7 N           5.0292   -0.8662   29.2377 N.am    1  UNL1       -0.2534
      8 C           7.0132   -3.5241   27.0584 C.3     1  UNL1        0.1165
      9 C           7.0568   -4.0262   25.6457 C.3     1  UNL1        0.1169
     10 N           6.1302   -3.4505   24.6162 N.am    1  UNL1       -0.2555
     11 C           5.9451   -3.7432   23.1567 C.2     1  UNL1        0.3133
     12 O           6.7103   -4.7552   22.3565 O.2     1  UNL1       -0.2519
     13 N           4.8606   -2.8462   22.6379 N.am    1  UNL1       -0.2141
     14 C           4.3753   -1.9992   23.7768 C.2     1  UNL1        0.2502
     15 O           3.2950   -0.9609   23.7055 O.2     1  UNL1       -0.2726
     16 H           4.4210   -0.4884   28.5620 H       1  UNL1        0.1578
     17 C           4.9855   -0.3641   30.6505 C.ar    1  UNL1        0.1384
     18 C           6.1143   -0.4087   31.6373 C.ar    1  UNL1        0.0570
     19 C           5.6319    0.1986   32.9212 C.ar    1  UNL1        0.1234
     20 N           4.2049    0.6187   32.7279 N.ar    1  UNL1       -0.1623
     21 N           3.8055    0.2709   31.3245 N.ar    1  UNL1       -0.2159
     22 C           2.4618    0.5153   30.7040 C.ar    1  UNL1        0.0842
     23 C           1.6632    1.7230   31.0960 C.ar    1  UNL1        0.0192
     24 C           0.3196    1.9673   30.4756 C.ar    1  UNL1        0.0015
     25 C          -0.2254    1.0039   29.4632 C.ar    1  UNL1        0.0001
     26 C           0.5732   -0.2037   29.0712 C.ar    1  UNL1        0.0015
     27 C           1.9169   -0.4481   29.6917 C.ar    1  UNL1        0.0192
     28 C           4.3507   -2.8038   21.2278 C.3     1  UNL1        0.0883
     29 C           4.2651   -3.4104   19.8587 C.3     1  UNL1        0.0267
     30 C           3.5534   -2.1236   20.1547 C.3     1  UNL1        0.0427
     31 C           2.6823   -0.9879   19.7061 C.ar    1  UNL1       -0.0208
     32 C           1.3649   -0.7417   20.3799 C.ar    1  UNL1       -0.0042
     33 C           0.4937    0.3939   19.9312 C.ar    1  UNL1       -0.0003
     34 C           0.9398    1.2834   18.8088 C.ar    1  UNL1       -0.0000
     35 C           2.2571    1.0372   18.1350 C.ar    1  UNL1       -0.0003
     36 C           3.1284   -0.0985   18.5836 C.ar    1  UNL1       -0.0042
@<TRIPOS>BOND
     1     2     1    1
     2     2     3    1
     3     3     4    1
     4     4     5   am
     5     5     6    2
     6     5     7   am
     7     7    17    1
     8    17    18   ar
     9    18    19   ar
    10    19    20   ar
    11    20    21   ar
    12    21    22    1
    13    22    23   ar
    14    23    24   ar
    15    24    25   ar
    16    25    26   ar
    17    26    27   ar
    18     4     8    1
    19     8     9    1
    20     9    10    1
    21    10    11   am
    22    11    12    2
    23    11    13   am
    24    28    13    1
    25    28    29    1
    26    29    30    1
    27    30    31    1
    28    31    32   ar
    29    32    33   ar
    30    33    34   ar
    31    34    35   ar
    32    35    36   ar
    33    13    14   am
    34    14    15    2
    35    10     2    1
    36    30    28    1
    37    36    31   ar
    38    14     2    1
    39    21    17   ar
    40    27    22   ar
    41     7    16    1
@<TRIPOS>MOLECULE
*****
 36 41 0 0 0
SMALL
GASTEIGER

@<TRIPOS>ATOM
      1 C          -0.0680    1.0174   20.4324 C.3     1  UNL1        0.0311
      2 C           0.6773    2.1958   19.8794 C.3     1  UNL1        0.1491
      3 C          -0.5440    2.5624   20.6693 C.3     1  UNL1        0.1220
      4 N          -0.9190    4.0041   20.8445 N.am    1  UNL1       -0.2600
      5 C          -2.1404    4.3707   21.6344 C.2     1  UNL1        0.3088
      6 O          -2.5154    5.8125   21.8096 O.2     1  UNL1       -0.2522
      7 N          -2.9867    3.2956   22.2490 N.am    1  UNL1       -0.2534
      8 C          -0.0727    5.0793   20.2298 C.3     1  UNL1        0.1165
      9 C           1.1486    4.7127   19.4400 C.3     1  UNL1        0.1169
     10 N           1.5236    3.2710   19.2648 N.am    1  UNL1       -0.2555
     11 C           2.6617    2.6103   18.5449 C.2     1  UNL1        0.3133
     12 O           3.7514    3.3102   17.7881 O.2     1  UNL1       -0.2519
     13 N           2.5188    1.1268   18.7146 N.am    1  UNL1       -0.2141
     14 C           1.2924    0.8707   19.5394 C.2     1  UNL1        0.2502
     15 O           0.7723   -0.4745   19.9518 O.2     1  UNL1       -0.2726
     16 H          -2.7406    2.3493   22.1340 H       1  UNL1        0.1578
     17 C          -4.2081    3.6621   23.0389 C.ar    1  UNL1        0.1384
     18 C          -4.3362    3.6235   24.5329 C.ar    1  UNL1        0.0570
     19 C          -5.7231    4.0692   24.8908 C.ar    1  UNL1        0.1234
     20 N          -6.4520    4.3833   23.6180 N.ar    1  UNL1       -0.1623
     21 N          -5.5157    4.1317   22.4735 N.ar    1  UNL1       -0.2159
     22 C          -5.8315    4.3172   21.0189 C.ar    1  UNL1        0.0842
     23 C          -5.4424    3.2619   20.0264 C.ar    1  UNL1        0.0192
     24 C          -5.7582    3.4473   18.5719 C.ar    1  UNL1        0.0015
     25 C          -6.4631    4.6881   18.1097 C.ar    1  UNL1        0.0001
     26 C          -6.8522    5.7433   19.1021 C.ar    1  UNL1        0.0015
     27 C          -6.5364    5.5579   20.5567 C.ar    1  UNL1        0.0192
     28 C           3.4405    0.0827   18.1574 C.3     1  UNL1        0.0883
     29 C           4.0880   -0.5834   16.9797 C.3     1  UNL1        0.0267
     30 C           4.3893   -1.0594   18.3699 C.3     1  UNL1        0.0427
     31 C           5.1111   -1.9936   19.2952 C.ar    1  UNL1       -0.0208
     32 C           6.5912   -2.1930   19.1553 C.ar    1  UNL1       -0.0042
     33 C           7.3130   -3.1272   20.0806 C.ar    1  UNL1       -0.0003
     34 C           6.5547   -3.8620   21.1459 C.ar    1  UNL1       -0.0000
     35 C           5.0747   -3.6627   21.2859 C.ar    1  UNL1       -0.0003
     36 C           4.3528   -2.7285   20.3606 C.ar    1  UNL1       -0.0042
@<TRIPOS>BOND
     1     2     1    1
     2     2     3    1
     3     3     4    1
     4     4     5   am
     5     5     6    2
     6     5     7   am
     7     7    17    1
     8    17    18   ar
     9    18    19   ar
    10    19    20   ar
    11    20    21   ar
    12    21    22    1
    13    22    23   ar
    14    23    24   ar
    15    24    25   ar
    16    25    26   ar
    17    26    27   ar
    18     4     8    1
    19     8     9    1
    20     9    10    1
    21    10    11   am
    22    11    12    2
    23    11    13   am
    24    28    13    1
    25    28    29    1
    26    29    30    1
    27    30    31    1
    28    31    32   ar
    29    32    33   ar
    30    33    34   ar
    31    34    35   ar
    32    35    36   ar
    33    13    14   am
    34    14    15    2
    35    10     2    1
    36    30    28    1
    37    36    31   ar
    38    14     2    1
    39    21    17   ar
    40    27    22   ar
    41     7    16    1
@<TRIPOS>MOLECULE
*****
 36 41 0 0 0
SMALL
GASTEIGER

@<TRIPOS>ATOM
      1 C           4.6471   -2.2348   22.2998 C.3     1  UNL1        0.0311
      2 C           5.7595   -2.6167   21.3689 C.3     1  UNL1        0.1491
      3 C           5.9623   -3.0754   22.7825 C.3     1  UNL1        0.1220
      4 N           7.1965   -3.8437   23.1519 N.am    1  UNL1       -0.2600
      5 C           7.3994   -4.3024   24.5656 C.2     1  UNL1        0.3088
      6 O           8.6335   -5.0707   24.9350 O.2     1  UNL1       -0.2522
      7 N           6.3680   -3.9929   25.6098 N.am    1  UNL1       -0.2534
      8 C           8.2279   -4.1532   22.1077 C.3     1  UNL1        0.1165
      9 C           8.0251   -3.6945   20.6940 C.3     1  UNL1        0.1169
     10 N           6.7909   -2.9263   20.3246 N.am    1  UNL1       -0.2555
     11 C           6.3206   -2.3482   19.0229 C.2     1  UNL1        0.3133
     12 O           7.0451   -2.4237   17.7116 O.2     1  UNL1       -0.2519
     13 N           4.9985   -1.6813   19.2625 N.am    1  UNL1       -0.2141
     14 C           4.6518   -1.8473   20.7124 C.2     1  UNL1        0.2502
     15 O           3.4145   -1.3339   21.3875 O.2     1  UNL1       -0.2726
     16 H           5.5580   -3.4886   25.3674 H       1  UNL1        0.1578
     17 C           6.5708   -4.4516   27.0235 C.ar    1  UNL1        0.1384
     18 C           6.8752   -5.8539   27.4602 C.ar    1  UNL1        0.0570
     19 C           6.9973   -5.8575   28.9553 C.ar    1  UNL1        0.1234
     20 N           6.7684   -4.4574   29.4425 N.ar    1  UNL1       -0.1623
     21 N           6.5048   -3.5885   28.2485 N.ar    1  UNL1       -0.2159
     22 C           6.2245   -2.1152   28.2750 C.ar    1  UNL1        0.0842
     23 C           4.8584   -1.6052   27.9232 C.ar    1  UNL1        0.0192
     24 C           4.5780   -0.1320   27.9497 C.ar    1  UNL1        0.0015
     25 C           5.6638    0.8315   28.3280 C.ar    1  UNL1        0.0001
     26 C           7.0298    0.3215   28.6799 C.ar    1  UNL1        0.0015
     27 C           7.3102   -1.1518   28.6534 C.ar    1  UNL1        0.0192
     28 C           4.1688   -0.9729   18.2331 C.3     1  UNL1        0.0883
     29 C           3.6602   -0.8623   16.8263 C.3     1  UNL1        0.0267
     30 C           3.2405    0.1436   17.8568 C.3     1  UNL1        0.0427
     31 C           2.4622    1.3689   18.2345 C.ar    1  UNL1       -0.0208
     32 C           3.1659    2.6835   18.3986 C.ar    1  UNL1       -0.0042
     33 C           2.3876    3.9088   18.7762 C.ar    1  UNL1       -0.0003
     34 C           0.9055    3.8197   18.9899 C.ar    1  UNL1       -0.0000
     35 C           0.2018    2.5053   18.8258 C.ar    1  UNL1       -0.0003
     36 C           0.9801    1.2798   18.4481 C.ar    1  UNL1       -0.0042
@<TRIPOS>BOND
     1     2     1    1
     2     2     3    1
     3     3     4    1
     4     4     5   am
     5     5     6    2
     6     5     7   am
     7     7    17    1
     8    17    18   ar
     9    18    19   ar
    10    19    20   ar
    11    20    21   ar
    12    21    22    1
    13    22    23   ar
    14    23    24   ar
    15    24    25   ar
    16    25    26   ar
    17    26    27   ar
    18     4     8    1
    19     8     9    1
    20     9    10    1
    21    10    11   am
    22    11    12    2
    23    11    13   am
    24    28    13    1
    25    28    29    1
    26    29    30    1
    27    30    31    1
    28    31    32   ar
    29    32    33   ar
    30    33    34   ar
    31    34    35   ar
    32    35    36   ar
    33    13    14   am
    34    14    15    2
    35    10     2    1
    36    30    28    1
    37    36    31   ar
    38    14     2    1
    39    21    17   ar
    40    27    22   ar
    41     7    16    1
@<TRIPOS>MOLECULE
*****
 36 41 0 0 0
SMALL
GASTEIGER

@<TRIPOS>ATOM
      1 C         -14.7056   -0.6203   19.3178 C.3     1  UNL1        0.0311
      2 C         -16.0938   -1.1232   19.5823 C.3     1  UNL1        0.1491
      3 C         -15.9798    0.3723   19.5637 C.3     1  UNL1        0.1220
      4 N         -17.1949    1.2201   19.7981 N.am    1  UNL1       -0.2600
      5 C         -17.0809    2.7157   19.7795 C.2     1  UNL1        0.3088
      6 O         -18.2960    3.5634   20.0138 O.2     1  UNL1       -0.2522
      7 N         -15.7519    3.3635   19.5265 N.am    1  UNL1       -0.2534
      8 C         -18.5239    0.5723   20.0510 C.3     1  UNL1        0.1165
      9 C         -18.6379   -0.9233   20.0696 C.3     1  UNL1        0.1169
     10 N         -17.4229   -1.7710   19.8353 N.am    1  UNL1       -0.2555
     11 C         -17.2289   -3.2578   19.7950 C.2     1  UNL1        0.3133
     12 O         -18.2965   -4.2920   19.9971 O.2     1  UNL1       -0.2519
     13 N         -15.7801   -3.5290   19.5171 N.am    1  UNL1       -0.2141
     14 C         -15.0785   -2.2097   19.3857 C.2     1  UNL1        0.2502
     15 O         -13.6181   -2.0117   19.1067 O.2     1  UNL1       -0.2726
     16 H         -14.9544    2.8070   19.3727 H       1  UNL1        0.1578
     17 C         -15.6379    4.8590   19.5079 C.ar    1  UNL1        0.1384
     18 C         -15.6958    5.7325   18.2899 C.ar    1  UNL1        0.0570
     19 C         -15.5396    7.1570   18.7333 C.ar    1  UNL1        0.1234
     20 N         -15.3852    7.1638   20.2254 N.ar    1  UNL1       -0.1623
     21 N         -15.4460    5.7435   20.7041 N.ar    1  UNL1       -0.2159
     22 C         -15.3343    5.2879   22.1288 C.ar    1  UNL1        0.0842
     23 C         -14.0164    5.3673   22.8406 C.ar    1  UNL1        0.0192
     24 C         -13.9047    4.9117   24.2653 C.ar    1  UNL1        0.0015
     25 C         -15.1111    4.3766   24.9783 C.ar    1  UNL1        0.0001
     26 C         -16.4290    4.2972   24.2666 C.ar    1  UNL1        0.0015
     27 C         -16.5407    4.7528   22.8418 C.ar    1  UNL1        0.0192
     28 C         -15.1444   -4.8819   19.3926 C.3     1  UNL1        0.0883
     29 C         -15.2681   -6.3761   19.3466 C.3     1  UNL1        0.0267
     30 C         -13.9196   -5.7310   19.2228 C.3     1  UNL1        0.0427
     31 C         -12.4339   -5.8488   19.0533 C.ar    1  UNL1       -0.0208
     32 C         -11.5623   -4.6386   19.2141 C.ar    1  UNL1       -0.0042
     33 C         -10.0766   -4.7564   19.0445 C.ar    1  UNL1       -0.0003
     34 C          -9.4624   -6.0844   18.7142 C.ar    1  UNL1       -0.0000
     35 C         -10.3339   -7.2946   18.5534 C.ar    1  UNL1       -0.0003
     36 C         -11.8197   -7.1768   18.7229 C.ar    1  UNL1       -0.0042
@<TRIPOS>BOND
     1     2     1    1
     2     2     3    1
     3     3     4    1
     4     4     5   am
     5     5     6    2
     6     5     7   am
     7     7    17    1
     8    17    18   ar
     9    18    19   ar
    10    19    20   ar
    11    20    21   ar
    12    21    22    1
    13    22    23   ar
    14    23    24   ar
    15    24    25   ar
    16    25    26   ar
    17    26    27   ar
    18     4     8    1
    19     8     9    1
    20     9    10    1
    21    10    11   am
    22    11    12    2
    23    11    13   am
    24    28    13    1
    25    28    29    1
    26    29    30    1
    27    30    31    1
    28    31    32   ar
    29    32    33   ar
    30    33    34   ar
    31    34    35   ar
    32    35    36   ar
    33    13    14   am
    34    14    15    2
    35    10     2    1
    36    30    28    1
    37    36    31   ar
    38    14     2    1
    39    21    17   ar
    40    27    22   ar
    41     7    16    1
