@<TRIPOS>MOLECULE
*****
 25 28 0 0 0
SMALL
GASTEIGER

@<TRIPOS>ATOM
      1 C          -7.5125  -17.3975   23.0245 C.2     1  UNL1        0.3254
      2 N          -6.8184  -18.2506   22.0045 N.2     1  UNL1       -0.0388
      3 C          -5.3526  -18.5381   21.8672 C.ar    1  UNL1        0.2072
      4 C          -5.0786  -19.4454   20.7046 C.ar    1  UNL1        0.0593
      5 C          -3.6711  -19.8581   20.3907 C.ar    1  UNL1        0.0615
      6 CL         -3.3971  -20.7654   19.2280 Cl      1  UNL1       -0.0821
      7 C          -2.5375  -19.3635   21.2394 C.ar    1  UNL1        0.0129
      8 C          -2.8115  -18.4562   22.4020 C.ar    1  UNL1        0.0192
      9 C          -4.2189  -18.0435   22.7160 C.ar    1  UNL1        0.0920
     10 N          -4.2712  -17.1393   23.9116 N.pl3   1  UNL1       -0.3094
     11 C          -5.4699  -16.5063   24.5539 C.ar    1  UNL1        0.0556
     12 C          -5.0802  -15.6683   25.7354 C.ar    1  UNL1        0.0149
     13 C          -6.1330  -14.9453   26.5220 C.ar    1  UNL1        0.0013
     14 C          -7.5755  -15.0603   26.1272 C.ar    1  UNL1        0.0003
     15 C          -7.9653  -15.8982   24.9457 C.ar    1  UNL1        0.0086
     16 C          -6.9125  -16.6212   24.1591 C.ar    1  UNL1        0.0956
     17 H          -3.4041  -16.9341   24.3302 H       1  UNL1        0.1523
     18 C         -13.2294  -17.7634   23.1838 C.3     1  UNL1        0.1664
     19 N         -11.9872  -17.1321   22.6283 N.3     1  UNL1        0.2688
     20 O         -13.0302  -16.3653   21.8706 O.co2   1  UNL1       -0.7715
     21 C         -11.1073  -16.2346   21.8098 C.3     1  UNL1        0.1565
     22 C          -9.6158  -16.3230   21.9418 C.3     1  UNL1        0.2637
     23 N          -9.0041  -17.3091   22.8924 N.pl3   1  UNL1       -0.1798
     24 C          -9.8841  -18.2066   23.7111 C.3     1  UNL1        0.2637
     25 C         -11.3757  -18.1181   23.5790 C.3     1  UNL1        0.1565
@<TRIPOS>UNITY_ATOM_ATTR
19 1
charge 1
20 1
charge -1
@<TRIPOS>BOND
     1    18    19    1
     2    19    20    1
     3    19    21    1
     4    21    22    1
     5    22    23    1
     6    23     1    1
     7     1     2    2
     8     2     3    1
     9     3     4   ar
    10     4     5   ar
    11     5     6    1
    12     5     7   ar
    13     7     8   ar
    14     8     9   ar
    15     9    10    1
    16    10    11    1
    17    11    12   ar
    18    12    13   ar
    19    13    14   ar
    20    14    15   ar
    21    15    16   ar
    22    23    24    1
    23    24    25    1
    24    25    19    1
    25    16     1    1
    26     9     3   ar
    27    16    11   ar
    28    10    17    1
@<TRIPOS>MOLECULE
*****
 25 28 0 0 0
SMALL
GASTEIGER

@<TRIPOS>ATOM
      1 C         -13.6422   -5.4069   18.7284 C.2     1  UNL1        0.3254
      2 N         -14.4950   -4.1791   18.6054 N.2     1  UNL1       -0.0388
      3 C         -14.0655   -2.7425   18.5631 C.ar    1  UNL1        0.2072
      4 C         -15.2427   -1.8221   18.4326 C.ar    1  UNL1        0.0593
      5 C         -15.0316   -0.3382   18.3723 C.ar    1  UNL1        0.0615
      6 CL        -16.2089    0.5821   18.2419 Cl      1  UNL1       -0.0821
      7 C         -13.6433    0.2252   18.4425 C.ar    1  UNL1        0.0129
      8 C         -12.4660   -0.6951   18.5729 C.ar    1  UNL1        0.0192
      9 C         -12.6771   -2.1789   18.6332 C.ar    1  UNL1        0.0920
     10 N         -11.3754   -2.9129   18.7630 N.pl3   1  UNL1       -0.3094
     11 C         -11.1404   -4.3915   18.8547 C.ar    1  UNL1        0.0556
     12 C          -9.6791   -4.7078   18.9747 C.ar    1  UNL1        0.0149
     13 C          -9.2266   -6.1341   19.0793 C.ar    1  UNL1        0.0013
     14 C         -10.2355   -7.2441   19.0639 C.ar    1  UNL1        0.0003
     15 C         -11.6968   -6.9278   18.9439 C.ar    1  UNL1        0.0086
     16 C         -12.1493   -5.5015   18.8393 C.ar    1  UNL1        0.0956
     17 H         -10.5685   -2.3496   18.7918 H       1  UNL1        0.1523
     18 C         -17.0317   -9.9731   19.4375 C.3     1  UNL1        0.1664
     19 N         -15.8552   -9.3249   18.7698 N.3     1  UNL1        0.2688
     20 O         -15.8088  -10.6777   18.1234 O.co2   1  UNL1       -0.7715
     21 C         -14.6627   -9.1466   17.8777 C.3     1  UNL1        0.1565
     22 C         -13.9249   -7.8406   17.8638 C.3     1  UNL1        0.2637
     23 N         -14.3798   -6.7129   18.7422 N.pl3   1  UNL1       -0.1798
     24 C         -15.5724   -6.8913   19.6344 C.3     1  UNL1        0.2637
     25 C         -16.3101   -8.1973   19.6482 C.3     1  UNL1        0.1565
@<TRIPOS>UNITY_ATOM_ATTR
19 1
charge 1
20 1
charge -1
@<TRIPOS>BOND
     1    18    19    1
     2    19    20    1
     3    19    21    1
     4    21    22    1
     5    22    23    1
     6    23     1    1
     7     1     2    2
     8     2     3    1
     9     3     4   ar
    10     4     5   ar
    11     5     6    1
    12     5     7   ar
    13     7     8   ar
    14     8     9   ar
    15     9    10    1
    16    10    11    1
    17    11    12   ar
    18    12    13   ar
    19    13    14   ar
    20    14    15   ar
    21    15    16   ar
    22    23    24    1
    23    24    25    1
    24    25    19    1
    25    16     1    1
    26     9     3   ar
    27    16    11   ar
    28    10    17    1
@<TRIPOS>MOLECULE
*****
 25 28 0 0 0
SMALL
GASTEIGER

@<TRIPOS>ATOM
      1 C         -13.8284   -4.8065   18.3507 C.2     1  UNL1        0.3254
      2 N         -15.1233   -5.5403   18.1638 N.2     1  UNL1       -0.0388
      3 C         -15.3707   -7.0196   18.1806 C.ar    1  UNL1        0.2072
      4 C         -16.8191   -7.3356   17.9517 C.ar    1  UNL1        0.0593
      5 C         -17.2812   -8.7626   17.9307 C.ar    1  UNL1        0.0615
      6 CL        -18.7296   -9.0785   17.7018 Cl      1  UNL1       -0.0821
      7 C         -16.2950   -9.8734   18.1385 C.ar    1  UNL1        0.0129
      8 C         -14.8466   -9.5574   18.3674 C.ar    1  UNL1        0.0192
      9 C         -14.3845   -8.1306   18.3884 C.ar    1  UNL1        0.0920
     10 N         -12.9072   -8.0364   18.6308 N.pl3   1  UNL1       -0.3094
     11 C         -12.0512   -6.8082   18.7252 C.ar    1  UNL1        0.0556
     12 C         -10.6150   -7.1593   18.9782 C.ar    1  UNL1        0.0149
     13 C          -9.5888   -6.0728   19.1065 C.ar    1  UNL1        0.0013
     14 C          -9.9988   -4.6353   18.9819 C.ar    1  UNL1        0.0003
     15 C         -11.4350   -4.2843   18.7289 C.ar    1  UNL1        0.0086
     16 C         -12.4612   -5.3708   18.6005 C.ar    1  UNL1        0.0956
     17 H         -12.4372   -8.8942   18.7427 H       1  UNL1        0.1523
     18 C         -13.7528    0.8062   17.1957 C.3     1  UNL1        0.1664
     19 N         -14.0785   -0.3187   18.1331 N.3     1  UNL1        0.2688
     20 O         -14.5319    0.8483   18.9592 O.co2   1  UNL1       -0.7715
     21 C         -14.5616   -1.0382   19.3572 C.3     1  UNL1        0.1565
     22 C         -14.4783   -2.5342   19.4298 C.3     1  UNL1        0.2637
     23 N         -13.9118   -3.3106   18.2781 N.pl3   1  UNL1       -0.1798
     24 C         -13.4286   -2.5910   17.0539 C.3     1  UNL1        0.2637
     25 C         -13.5120   -1.0950   16.9813 C.3     1  UNL1        0.1565
@<TRIPOS>UNITY_ATOM_ATTR
19 1
charge 1
20 1
charge -1
@<TRIPOS>BOND
     1    18    19    1
     2    19    20    1
     3    19    21    1
     4    21    22    1
     5    22    23    1
     6    23     1    1
     7     1     2    2
     8     2     3    1
     9     3     4   ar
    10     4     5   ar
    11     5     6    1
    12     5     7   ar
    13     7     8   ar
    14     8     9   ar
    15     9    10    1
    16    10    11    1
    17    11    12   ar
    18    12    13   ar
    19    13    14   ar
    20    14    15   ar
    21    15    16   ar
    22    23    24    1
    23    24    25    1
    24    25    19    1
    25    16     1    1
    26     9     3   ar
    27    16    11   ar
    28    10    17    1
@<TRIPOS>MOLECULE
*****
 25 28 0 0 0
SMALL
GASTEIGER

@<TRIPOS>ATOM
      1 C          -6.6092  -17.1074   23.1040 C.2     1  UNL1        0.3254
      2 N          -7.6780  -17.3180   22.0728 N.2     1  UNL1       -0.0388
      3 C          -9.1220  -16.9158   22.1270 C.ar    1  UNL1        0.2072
      4 C          -9.8502  -17.3182   20.8788 C.ar    1  UNL1        0.0593
      5 C         -11.3103  -17.0084   20.7294 C.ar    1  UNL1        0.0615
      6 CL        -12.0384  -17.4108   19.4812 Cl      1  UNL1       -0.0821
      7 C         -12.0421  -16.2962   21.8280 C.ar    1  UNL1        0.0129
      8 C         -11.3140  -15.8938   23.0762 C.ar    1  UNL1        0.0192
      9 C          -9.8540  -16.2036   23.2257 C.ar    1  UNL1        0.0920
     10 N          -9.3225  -15.7178   24.5415 N.pl3   1  UNL1       -0.3094
     11 C          -7.9280  -15.8241   25.0838 C.ar    1  UNL1        0.0556
     12 C          -7.8210  -15.2056   26.4461 C.ar    1  UNL1        0.0149
     13 C          -6.5066  -15.2055   27.1686 C.ar    1  UNL1        0.0013
     14 C          -5.2990  -15.8240   26.5288 C.ar    1  UNL1        0.0003
     15 C          -5.4059  -16.4425   25.1665 C.ar    1  UNL1        0.0086
     16 C          -6.7204  -16.4426   24.4440 C.ar    1  UNL1        0.0956
     17 H          -9.9753  -15.2699   25.1267 H       1  UNL1        0.1523
     18 C          -1.1145  -18.1997   21.8970 C.3     1  UNL1        0.1664
     19 N          -2.5295  -18.6778   22.0363 N.3     1  UNL1        0.2688
     20 O          -1.8609  -19.9578   21.6303 O.co2   1  UNL1       -0.7715
     21 C          -3.7122  -19.6002   22.0346 C.3     1  UNL1        0.1565
     22 C          -5.0721  -19.0769   22.3905 C.3     1  UNL1        0.2637
     23 N          -5.2493  -17.6309   22.7481 N.pl3   1  UNL1       -0.1798
     24 C          -4.0665  -16.7084   22.7498 C.3     1  UNL1        0.2637
     25 C          -2.7066  -17.2318   22.3939 C.3     1  UNL1        0.1565
@<TRIPOS>UNITY_ATOM_ATTR
19 1
charge 1
20 1
charge -1
@<TRIPOS>BOND
     1    18    19    1
     2    19    20    1
     3    19    21    1
     4    21    22    1
     5    22    23    1
     6    23     1    1
     7     1     2    2
     8     2     3    1
     9     3     4   ar
    10     4     5   ar
    11     5     6    1
    12     5     7   ar
    13     7     8   ar
    14     8     9   ar
    15     9    10    1
    16    10    11    1
    17    11    12   ar
    18    12    13   ar
    19    13    14   ar
    20    14    15   ar
    21    15    16   ar
    22    23    24    1
    23    24    25    1
    24    25    19    1
    25    16     1    1
    26     9     3   ar
    27    16    11   ar
    28    10    17    1
@<TRIPOS>MOLECULE
*****
 25 28 0 0 0
SMALL
GASTEIGER

@<TRIPOS>ATOM
      1 C          -8.1975  -18.7051   21.3270 C.2     1  UNL1        0.3254
      2 N          -6.9704  -18.3043   22.0909 N.2     1  UNL1       -0.0388
      3 C          -5.5471  -18.7160   21.8568 C.ar    1  UNL1        0.2072
      4 C          -4.6226  -18.0837   22.8545 C.ar    1  UNL1        0.0593
      5 C          -3.1504  -18.3655   22.7965 C.ar    1  UNL1        0.0615
      6 CL         -2.2258  -17.7332   23.7942 Cl      1  UNL1       -0.0821
      7 C          -2.6027  -19.2796   21.7409 C.ar    1  UNL1        0.0129
      8 C          -3.5273  -19.9119   20.7431 C.ar    1  UNL1        0.0192
      9 C          -4.9994  -19.6301   20.8011 C.ar    1  UNL1        0.0920
     10 N          -5.7399  -20.3583   19.7187 N.pl3   1  UNL1       -0.3094
     11 C          -7.2108  -20.3522   19.4247 C.ar    1  UNL1        0.0556
     12 C          -7.5377  -21.2214   18.2468 C.ar    1  UNL1        0.0149
     13 C          -8.9585  -21.3549   17.7847 C.ar    1  UNL1        0.0013
     14 C         -10.0523  -20.6192   18.5005 C.ar    1  UNL1        0.0003
     15 C          -9.7253  -19.7499   19.6783 C.ar    1  UNL1        0.0086
     16 C          -8.3045  -19.6164   20.1404 C.ar    1  UNL1        0.0956
     17 H          -5.1874  -20.9136   19.1224 H       1  UNL1        0.1523
     18 C         -13.2837  -17.3281   23.5800 C.3     1  UNL1        0.1664
     19 N         -12.0702  -16.9396   22.7884 N.3     1  UNL1        0.2688
     20 O         -12.8345  -15.6497   22.7432 O.co2   1  UNL1       -0.7715
     21 C         -11.1222  -16.1034   21.9812 C.3     1  UNL1        0.1565
     22 C          -9.8313  -16.6918   21.4940 C.3     1  UNL1        0.2637
     23 N          -9.4884  -18.1166   21.8142 N.pl3   1  UNL1       -0.1798
     24 C         -10.4365  -18.9529   22.6215 C.3     1  UNL1        0.2637
     25 C         -11.7274  -18.3645   23.1086 C.3     1  UNL1        0.1565
@<TRIPOS>UNITY_ATOM_ATTR
19 1
charge 1
20 1
charge -1
@<TRIPOS>BOND
     1    18    19    1
     2    19    20    1
     3    19    21    1
     4    21    22    1
     5    22    23    1
     6    23     1    1
     7     1     2    2
     8     2     3    1
     9     3     4   ar
    10     4     5   ar
    11     5     6    1
    12     5     7   ar
    13     7     8   ar
    14     8     9   ar
    15     9    10    1
    16    10    11    1
    17    11    12   ar
    18    12    13   ar
    19    13    14   ar
    20    14    15   ar
    21    15    16   ar
    22    23    24    1
    23    24    25    1
    24    25    19    1
    25    16     1    1
    26     9     3   ar
    27    16    11   ar
    28    10    17    1
@<TRIPOS>MOLECULE
*****
 25 28 0 0 0
SMALL
GASTEIGER

@<TRIPOS>ATOM
      1 C           5.6503   -2.4302   21.7888 C.2     1  UNL1        0.3254
      2 N           6.6168   -3.5710   21.9085 N.2     1  UNL1       -0.0388
      3 C           7.0049   -4.3431   23.1346 C.ar    1  UNL1        0.2072
      4 C           8.0093   -5.4104   22.8150 C.ar    1  UNL1        0.0593
      5 C           8.5312   -6.2996   23.9045 C.ar    1  UNL1        0.0615
      6 CL          9.5356   -7.3669   23.5849 Cl      1  UNL1       -0.0821
      7 C           8.0488   -6.1215   25.3135 C.ar    1  UNL1        0.0129
      8 C           7.0445   -5.0542   25.6332 C.ar    1  UNL1        0.0192
      9 C           6.5225   -4.1650   24.5437 C.ar    1  UNL1        0.0920
     10 N           5.5328   -3.1708   25.0747 N.pl3   1  UNL1       -0.3094
     11 C           4.7810   -2.1091   24.3279 C.ar    1  UNL1        0.0556
     12 C           3.8861   -1.3257   25.2417 C.ar    1  UNL1        0.0149
     13 C           3.0434   -0.2126   24.6932 C.ar    1  UNL1        0.0013
     14 C           3.0957    0.1170   23.2308 C.ar    1  UNL1        0.0003
     15 C           3.9907   -0.6665   22.3169 C.ar    1  UNL1        0.0086
     16 C           4.8333   -1.7795   22.8655 C.ar    1  UNL1        0.0956
     17 H           5.3528   -3.2218   26.0413 H       1  UNL1        0.1523
     18 C           5.7344    0.3044   16.7532 C.3     1  UNL1        0.1664
     19 N           5.1335   -0.7351   17.6524 N.3     1  UNL1        0.2688
     20 O           4.2688   -0.9089   16.4391 O.co2   1  UNL1       -0.7715
     21 C           4.2324   -1.8348   18.1301 C.3     1  UNL1        0.1565
     22 C           4.4046   -2.3999   19.5089 C.3     1  UNL1        0.2637
     23 N           5.4781   -1.8651   20.4100 N.pl3   1  UNL1       -0.1798
     24 C           6.3792   -0.7653   19.9322 C.3     1  UNL1        0.2637
     25 C           6.2070   -0.2002   18.5534 C.3     1  UNL1        0.1565
@<TRIPOS>UNITY_ATOM_ATTR
19 1
charge 1
20 1
charge -1
@<TRIPOS>BOND
     1    18    19    1
     2    19    20    1
     3    19    21    1
     4    21    22    1
     5    22    23    1
     6    23     1    1
     7     1     2    2
     8     2     3    1
     9     3     4   ar
    10     4     5   ar
    11     5     6    1
    12     5     7   ar
    13     7     8   ar
    14     8     9   ar
    15     9    10    1
    16    10    11    1
    17    11    12   ar
    18    12    13   ar
    19    13    14   ar
    20    14    15   ar
    21    15    16   ar
    22    23    24    1
    23    24    25    1
    24    25    19    1
    25    16     1    1
    26     9     3   ar
    27    16    11   ar
    28    10    17    1
@<TRIPOS>MOLECULE
*****
 25 28 0 0 0
SMALL
GASTEIGER

@<TRIPOS>ATOM
      1 C          -5.1812  -17.5762   22.4192 C.2     1  UNL1        0.3254
      2 N          -5.1913  -16.7703   23.6843 N.2     1  UNL1       -0.0388
      3 C          -6.3587  -16.4111   24.5550 C.ar    1  UNL1        0.2072
      4 C          -5.9306  -15.5871   25.7331 C.ar    1  UNL1        0.0593
      5 C          -6.9482  -15.1209   26.7318 C.ar    1  UNL1        0.0615
      6 CL         -6.5201  -14.2970   27.9098 Cl      1  UNL1       -0.0821
      7 C          -8.3937  -15.4787   26.5524 C.ar    1  UNL1        0.0129
      8 C          -8.8218  -16.3027   25.3743 C.ar    1  UNL1        0.0192
      9 C          -7.8044  -16.7689   24.3757 C.ar    1  UNL1        0.0920
     10 N          -8.4395  -17.5743   23.2812 N.pl3   1  UNL1       -0.3094
     11 C          -7.7861  -18.2209   22.0959 C.ar    1  UNL1        0.0556
     12 C          -8.7888  -18.9361   21.2398 C.ar    1  UNL1        0.0149
     13 C          -8.3414  -19.6522   20.0000 C.ar    1  UNL1        0.0013
     14 C          -6.8913  -19.6530   19.6163 C.ar    1  UNL1        0.0003
     15 C          -5.8886  -18.9378   20.4725 C.ar    1  UNL1        0.0086
     16 C          -6.3360  -18.2217   21.7123 C.ar    1  UNL1        0.0956
     17 H          -9.4143  -17.6945   23.3500 H       1  UNL1        0.1523
     18 C           0.0509  -17.3288   20.0943 C.3     1  UNL1        0.1664
     19 N          -1.1540  -18.1302   20.4893 N.3     1  UNL1        0.2688
     20 O          -0.3023  -19.2145   19.8986 O.co2   1  UNL1       -0.7715
     21 C          -2.0631  -19.3080   20.6791 C.3     1  UNL1        0.1565
     22 C          -3.4055  -19.1234   21.3224 C.3     1  UNL1        0.2637
     23 N          -3.8388  -17.7608   21.7759 N.pl3   1  UNL1       -0.1798
     24 C          -2.9297  -16.5829   21.5861 C.3     1  UNL1        0.2637
     25 C          -1.5872  -16.7676   20.9428 C.3     1  UNL1        0.1565
@<TRIPOS>UNITY_ATOM_ATTR
19 1
charge 1
20 1
charge -1
@<TRIPOS>BOND
     1    18    19    1
     2    19    20    1
     3    19    21    1
     4    21    22    1
     5    22    23    1
     6    23     1    1
     7     1     2    2
     8     2     3    1
     9     3     4   ar
    10     4     5   ar
    11     5     6    1
    12     5     7   ar
    13     7     8   ar
    14     8     9   ar
    15     9    10    1
    16    10    11    1
    17    11    12   ar
    18    12    13   ar
    19    13    14   ar
    20    14    15   ar
    21    15    16   ar
    22    23    24    1
    23    24    25    1
    24    25    19    1
    25    16     1    1
    26     9     3   ar
    27    16    11   ar
    28    10    17    1
@<TRIPOS>MOLECULE
*****
 25 28 0 0 0
SMALL
GASTEIGER

@<TRIPOS>ATOM
      1 C          -1.9835    3.2565   20.4297 C.2     1  UNL1        0.3254
      2 N          -1.0336    2.2213   20.9550 N.2     1  UNL1       -0.0388
      3 C           0.1137    1.5610   20.2494 C.ar    1  UNL1        0.2072
      4 C           0.8123    0.5775   21.1408 C.ar    1  UNL1        0.0593
      5 C           1.9916   -0.1943   20.6272 C.ar    1  UNL1        0.0615
      6 CL          2.6901   -1.1779   21.5186 Cl      1  UNL1       -0.0821
      7 C           2.4721    0.0174   19.2222 C.ar    1  UNL1        0.0129
      8 C           1.7735    1.0010   18.3308 C.ar    1  UNL1        0.0192
      9 C           0.5944    1.7728   18.8444 C.ar    1  UNL1        0.0920
     10 N           0.0463    2.6972   17.7979 N.pl3   1  UNL1       -0.3094
     11 C          -1.1176    3.6381   17.8979 C.ar    1  UNL1        0.0556
     12 C          -1.3312    4.3839   16.6141 C.ar    1  UNL1        0.0149
     13 C          -2.4482    5.3787   16.5017 C.ar    1  UNL1        0.0013
     14 C          -3.3516    5.6276   17.6729 C.ar    1  UNL1        0.0003
     15 C          -3.1380    4.8818   18.9567 C.ar    1  UNL1        0.0086
     16 C          -2.0210    3.8870   19.0691 C.ar    1  UNL1        0.0956
     17 H           0.5122    2.6847   16.9307 H       1  UNL1        0.1523
     18 C          -5.3326    5.6711   24.4039 C.3     1  UNL1        0.1664
     19 N          -5.1387    4.6554   23.3173 N.3     1  UNL1        0.2688
     20 O          -6.5560    4.3542   23.7053 O.co2   1  UNL1       -0.7715
     21 C          -5.4369    3.5352   22.3654 C.3     1  UNL1        0.1565
     22 C          -4.3852    3.0688   21.4029 C.3     1  UNL1        0.2637
     23 N          -3.0353    3.7228   21.3922 N.pl3   1  UNL1       -0.1798
     24 C          -2.7371    4.8431   22.3441 C.3     1  UNL1        0.2637
     25 C          -3.7888    5.3094   23.3067 C.3     1  UNL1        0.1565
@<TRIPOS>UNITY_ATOM_ATTR
19 1
charge 1
20 1
charge -1
@<TRIPOS>BOND
     1    18    19    1
     2    19    20    1
     3    19    21    1
     4    21    22    1
     5    22    23    1
     6    23     1    1
     7     1     2    2
     8     2     3    1
     9     3     4   ar
    10     4     5   ar
    11     5     6    1
    12     5     7   ar
    13     7     8   ar
    14     8     9   ar
    15     9    10    1
    16    10    11    1
    17    11    12   ar
    18    12    13   ar
    19    13    14   ar
    20    14    15   ar
    21    15    16   ar
    22    23    24    1
    23    24    25    1
    24    25    19    1
    25    16     1    1
    26     9     3   ar
    27    16    11   ar
    28    10    17    1
@<TRIPOS>MOLECULE
*****
 25 28 0 0 0
SMALL
GASTEIGER

@<TRIPOS>ATOM
      1 C           2.7426    1.1975   19.0530 C.2     1  UNL1        0.3254
      2 N           2.6241   -0.2661   19.3590 N.2     1  UNL1       -0.0388
      3 C           3.5856   -1.3704   19.0333 C.ar    1  UNL1        0.2072
      4 C           3.0822   -2.6968   19.5204 C.ar    1  UNL1        0.0593
      5 C           3.8961   -3.9366   19.2953 C.ar    1  UNL1        0.0615
      6 CL          3.3926   -5.2629   19.7825 Cl      1  UNL1       -0.0821
      7 C           5.2133   -3.8500   18.5832 C.ar    1  UNL1        0.0129
      8 C           5.7168   -2.5236   18.0961 C.ar    1  UNL1        0.0192
      9 C           4.9030   -1.2839   18.3211 C.ar    1  UNL1        0.0920
     10 N           5.5841   -0.0715   17.7588 N.pl3   1  UNL1       -0.3094
     11 C           5.1163    1.3537   17.7697 C.ar    1  UNL1        0.0556
     12 C           6.1038    2.2598   17.0961 C.ar    1  UNL1        0.0149
     13 C           5.8266    3.7307   16.9984 C.ar    1  UNL1        0.0013
     14 C           4.5620    4.2954   17.5744 C.ar    1  UNL1        0.0003
     15 C           3.5745    3.3893   18.2480 C.ar    1  UNL1        0.0086
     16 C           3.8517    1.9184   18.3457 C.ar    1  UNL1        0.0956
     17 H           6.4532   -0.2325   17.3252 H       1  UNL1        0.1523
     18 C          -1.9269    4.4089   19.9041 C.3     1  UNL1        0.1664
     19 N          -0.6824    3.7656   20.4403 N.3     1  UNL1        0.2688
     20 O          -1.1870    4.4338   21.6848 O.co2   1  UNL1       -0.7715
     21 C           0.3868    3.3544   21.4085 C.3     1  UNL1        0.1565
     22 C           1.5285    2.4984   20.9462 C.3     1  UNL1        0.2637
     23 N           1.6010    2.0536   19.5154 N.pl3   1  UNL1       -0.1798
     24 C           0.5317    2.4648   18.5471 C.3     1  UNL1        0.2637
     25 C          -0.6100    3.3209   19.0095 C.3     1  UNL1        0.1565
@<TRIPOS>UNITY_ATOM_ATTR
19 1
charge 1
20 1
charge -1
@<TRIPOS>BOND
     1    18    19    1
     2    19    20    1
     3    19    21    1
     4    21    22    1
     5    22    23    1
     6    23     1    1
     7     1     2    2
     8     2     3    1
     9     3     4   ar
    10     4     5   ar
    11     5     6    1
    12     5     7   ar
    13     7     8   ar
    14     8     9   ar
    15     9    10    1
    16    10    11    1
    17    11    12   ar
    18    12    13   ar
    19    13    14   ar
    20    14    15   ar
    21    15    16   ar
    22    23    24    1
    23    24    25    1
    24    25    19    1
    25    16     1    1
    26     9     3   ar
    27    16    11   ar
    28    10    17    1
