@<TRIPOS>MOLECULE
*****
 42 46 0 0 0
SMALL
GASTEIGER

@<TRIPOS>ATOM
      1 C           6.8458   -3.3578   27.4377 C.ar    1  UNL1        0.0040
      2 C           6.8750   -4.5509   26.5290 C.ar    1  UNL1        0.0719
      3 C           6.9357   -5.7826   27.3830 C.ar    1  UNL1        0.1049
      4 N           6.9439   -5.3508   28.8195 N.ar    1  UNL1       -0.2242
      5 N           6.9948   -6.1285   30.1010 N.ar    1  UNL1       -0.1422
      6 C           6.9901   -5.4077   31.4164 C.ar    1  UNL1        0.2211
      7 N           6.9345   -3.9091   31.4503 N.ar    1  UNL1       -0.2060
      8 C           6.8837   -3.1313   30.1687 C.ar    1  UNL1        0.1515
      9 C           6.8883   -3.8522   28.8533 C.ar    1  UNL1        0.1107
     10 C           6.8484   -4.5180   25.0296 C.ar    1  UNL1        0.2525
     11 N           7.8246   -5.1970   24.1153 N.ar    1  UNL1       -0.1057
     12 N           7.4204   -4.8990   22.7019 N.ar    1  UNL1       -0.0923
     13 C           6.1943   -4.0359   22.7426 C.ar    1  UNL1        0.3086
     14 O           5.8408   -3.8004   24.1812 O.2     1  UNL1       -0.4048
     15 N           5.4520   -3.5019   21.5535 N.pl3   1  UNL1       -0.2871
     16 H           4.7261   -2.8488   21.6790 H       1  UNL1        0.1512
     17 C           5.8157   -3.9631   20.1733 C.3     1  UNL1        0.0925
     18 C           4.7385   -4.3483   19.2032 C.3     1  UNL1        0.0386
     19 C           3.4440   -3.5907   19.1801 C.3     1  UNL1        0.0739
     20 N           3.4522   -2.0909   19.2044 N.3     1  UNL1       -0.2703
     21 C           2.7745   -1.3552   20.3221 C.3     1  UNL1        0.0897
     22 C           4.1382   -1.3268   18.1109 C.3     1  UNL1        0.0897
     23 C           5.4561   -1.2582   26.7968 C.3     1  UNL1        0.0047
     24 C           6.7847   -1.9224   27.0066 C.3     1  UNL1        0.0241
     25 C           8.0520   -1.1512   26.7853 C.3     1  UNL1        0.0047
     26 N           6.8281   -1.6327   30.2025 N.pl3   1  UNL1       -0.2949
     27 H           7.4933   -1.1041   29.7053 H       1  UNL1        0.1537
     28 C           5.7590   -0.9395   30.9940 C.ar    1  UNL1        0.0775
     29 C           4.4469   -0.6040   30.3492 C.ar    1  UNL1        0.0237
     30 C           3.3778    0.0892   31.1407 C.ar    1  UNL1        0.0821
     31 C           3.6208    0.4469   32.5770 C.ar    1  UNL1        0.1468
     32 F           2.5516    1.1401   33.3685 F       1  UNL1       -0.2039
     33 C           4.9328    0.1113   33.2219 C.ar    1  UNL1        0.0607
     34 C           6.0020   -0.5819   32.4304 C.ar    1  UNL1        0.1557
     35 F           7.3141   -0.9175   33.0752 F       1  UNL1       -0.2028
     36 C           2.0656    0.4248   30.4959 C.2     1  UNL1        0.2480
     37 O           1.4094    1.7448   30.7735 O.2     1  UNL1       -0.2701
     38 N           1.4098   -0.5596   29.5735 N.am    1  UNL1       -0.3024
     39 H           1.8405   -1.4259   29.3913 H       1  UNL1        0.1497
     40 C           0.0977   -0.2240   28.9287 C.3     1  UNL1        0.0720
     41 C          -1.3714   -0.4782   28.7640 C.3     1  UNL1        0.0213
     42 C          -0.7058    0.6112   27.9765 C.3     1  UNL1        0.0213
@<TRIPOS>BOND
     1    23    24    1
     2    24    25    1
     3    24     1    1
     4     1     2   ar
     5     2    10    1
     6    10    11   ar
     7    11    12   ar
     8    12    13   ar
     9    13    15    1
    10    15    17    1
    11    17    18    1
    12    18    19    1
    13    19    20    1
    14    20    21    1
    15    20    22    1
    16    13    14   ar
    17     2     3   ar
    18     3     4   ar
    19     4     5   ar
    20     5     6   ar
    21     6     7   ar
    22     7     8   ar
    23     8    26    1
    24    26    28    1
    25    28    29   ar
    26    29    30   ar
    27    30    36    1
    28    36    37    2
    29    36    38   am
    30    38    40    1
    31    40    41    1
    32    41    42    1
    33    30    31   ar
    34    31    32    1
    35    31    33   ar
    36    33    34   ar
    37    34    35    1
    38     8     9   ar
    39     9     1   ar
    40    14    10   ar
    41     9     4   ar
    42    34    28   ar
    43    42    40    1
    44    15    16    1
    45    26    27    1
    46    38    39    1
@<TRIPOS>MOLECULE
*****
 42 46 0 0 0
SMALL
GASTEIGER

@<TRIPOS>ATOM
      1 C           5.8761   -3.1237   20.1885 C.ar    1  UNL1        0.0040
      2 C           7.3175   -3.4695   20.4181 C.ar    1  UNL1        0.0719
      3 C           8.1550   -2.5330   19.5986 C.ar    1  UNL1        0.1049
      4 N           7.2312   -1.6084   18.8626 N.ar    1  UNL1       -0.2242
      5 N           7.4905   -0.4813   17.9075 N.ar    1  UNL1       -0.1422
      6 C           6.3414    0.2808   17.3171 C.ar    1  UNL1        0.2211
      7 N           4.9330   -0.0843   17.6816 N.ar    1  UNL1       -0.2060
      8 C           4.6736   -1.2114   18.6367 C.ar    1  UNL1        0.1515
      9 C           5.8227   -1.9735   19.2272 C.ar    1  UNL1        0.1107
     10 C           7.8312   -4.5603   21.3104 C.ar    1  UNL1        0.2525
     11 N           8.3135   -5.9093   20.8659 N.ar    1  UNL1       -0.1057
     12 N           8.7333   -6.6763   22.0847 N.ar    1  UNL1       -0.0923
     13 C           8.5104   -5.8014   23.2826 C.ar    1  UNL1        0.3086
     14 O           7.9529   -4.4936   22.8040 O.2     1  UNL1       -0.4048
     15 N           8.7950   -6.1695   24.7085 N.pl3   1  UNL1       -0.2871
     16 H           9.2583   -5.5320   25.2985 H       1  UNL1        0.1512
     17 C           8.3736   -7.5091   25.2358 C.3     1  UNL1        0.0925
     18 C           7.2360   -7.6083   26.2084 C.3     1  UNL1        0.0386
     19 C           6.6249   -6.3621   26.7772 C.3     1  UNL1        0.0739
     20 N           7.4362   -5.4677   27.6672 N.3     1  UNL1       -0.2703
     21 C           7.5491   -4.0043   27.3577 C.3     1  UNL1        0.0897
     22 C           8.1345   -6.0367   28.8666 C.3     1  UNL1        0.0897
     23 C           4.4202   -3.6443   22.2765 C.3     1  UNL1        0.0047
     24 C           4.6953   -3.8080   20.8110 C.3     1  UNL1        0.0241
     25 C           3.7896   -4.6560   19.9681 C.3     1  UNL1        0.0047
     26 N           3.2651   -1.5765   19.0013 N.pl3   1  UNL1       -0.2949
     27 H           2.8457   -2.3750   18.6066 H       1  UNL1        0.1537
     28 C           2.4958   -0.7252   19.9673 C.ar    1  UNL1        0.0775
     29 C           2.8177   -0.7741   21.4315 C.ar    1  UNL1        0.0237
     30 C           2.0483    0.0772   22.3975 C.ar    1  UNL1        0.0821
     31 C           0.9570    0.9776   21.8993 C.ar    1  UNL1        0.1468
     32 F           0.1876    1.8290   22.8654 F       1  UNL1       -0.2039
     33 C           0.6350    1.0266   20.4351 C.ar    1  UNL1        0.0607
     34 C           1.4044    0.1752   19.4691 C.ar    1  UNL1        0.1557
     35 F           1.0824    0.2242   18.0049 F       1  UNL1       -0.2028
     36 C           2.3703    0.0283   23.8618 C.2     1  UNL1        0.2480
     37 O           1.5152    0.7738   24.8431 O.2     1  UNL1       -0.2701
     38 N           3.5474   -0.7663   24.3447 N.am    1  UNL1       -0.3024
     39 H           4.1086   -1.2556   23.7006 H       1  UNL1        0.1497
     40 C           3.8694   -0.8153   25.8089 C.3     1  UNL1        0.0720
     41 C           4.7756   -0.4662   26.9520 C.3     1  UNL1        0.0213
     42 C           3.5209   -1.2492   27.2018 C.3     1  UNL1        0.0213
@<TRIPOS>BOND
     1    23    24    1
     2    24    25    1
     3    24     1    1
     4     1     2   ar
     5     2    10    1
     6    10    11   ar
     7    11    12   ar
     8    12    13   ar
     9    13    15    1
    10    15    17    1
    11    17    18    1
    12    18    19    1
    13    19    20    1
    14    20    21    1
    15    20    22    1
    16    13    14   ar
    17     2     3   ar
    18     3     4   ar
    19     4     5   ar
    20     5     6   ar
    21     6     7   ar
    22     7     8   ar
    23     8    26    1
    24    26    28    1
    25    28    29   ar
    26    29    30   ar
    27    30    36    1
    28    36    37    2
    29    36    38   am
    30    38    40    1
    31    40    41    1
    32    41    42    1
    33    30    31   ar
    34    31    32    1
    35    31    33   ar
    36    33    34   ar
    37    34    35    1
    38     8     9   ar
    39     9     1   ar
    40    14    10   ar
    41     9     4   ar
    42    34    28   ar
    43    42    40    1
    44    15    16    1
    45    26    27    1
    46    38    39    1
@<TRIPOS>MOLECULE
*****
 42 46 0 0 0
SMALL
GASTEIGER

@<TRIPOS>ATOM
      1 C           3.2742   -0.0295   28.1017 C.ar    1  UNL1        0.0040
      2 C           2.6260   -0.2159   29.4415 C.ar    1  UNL1        0.0719
      3 C           1.1754    0.1422   29.3083 C.ar    1  UNL1        0.1049
      4 N           0.9272    0.5498   27.8863 N.ar    1  UNL1       -0.2242
      5 N          -0.3124    1.0039   27.1741 N.ar    1  UNL1       -0.1422
      6 C          -0.2548    1.3520   25.7162 C.ar    1  UNL1        0.2211
      7 N           1.0424    1.2459   24.9705 N.ar    1  UNL1       -0.2060
      8 C           2.2820    0.7918   25.6827 C.ar    1  UNL1        0.1515
      9 C           2.2244    0.4438   27.1406 C.ar    1  UNL1        0.1107
     10 C           3.3084   -0.6790   30.6944 C.ar    1  UNL1        0.2525
     11 N           2.8597   -0.3987   32.0980 N.ar    1  UNL1       -0.1057
     12 N           3.8333   -1.0502   33.0348 N.ar    1  UNL1       -0.0923
     13 C           4.8838   -1.7332   32.2102 C.ar    1  UNL1        0.3086
     14 O           4.5594   -1.5037   30.7638 O.2     1  UNL1       -0.4048
     15 N           6.0534   -2.5093   32.7391 N.pl3   1  UNL1       -0.2871
     16 H           5.9097   -3.3807   33.1740 H       1  UNL1        0.1512
     17 C           7.4419   -1.9577   32.6053 C.3     1  UNL1        0.0925
     18 C           8.6003   -2.8861   32.3911 C.3     1  UNL1        0.0386
     19 C           8.6613   -3.7369   31.1572 C.3     1  UNL1        0.0739
     20 N           7.4764   -4.5657   30.7582 N.3     1  UNL1       -0.2703
     21 C           6.6860   -4.2046   29.5355 C.3     1  UNL1        0.0897
     22 C           7.0818   -5.7555   31.5820 C.3     1  UNL1        0.0897
     23 C           5.2015   -1.6675   27.5075 C.3     1  UNL1        0.0047
     24 C           4.7188   -0.2735   27.7796 C.3     1  UNL1        0.0241
     25 C           5.6807    0.8763   27.7297 C.3     1  UNL1        0.0047
     26 N           3.5791    0.6857   24.9369 N.pl3   1  UNL1       -0.2949
     27 H           4.2786    1.3663   25.0666 H       1  UNL1        0.1537
     28 C           3.8106   -0.4573   23.9936 C.ar    1  UNL1        0.0775
     29 C           4.7637   -1.5547   24.3645 C.ar    1  UNL1        0.0237
     30 C           4.9952   -2.6977   23.4212 C.ar    1  UNL1        0.0821
     31 C           4.2736   -2.7434   22.1069 C.ar    1  UNL1        0.1468
     32 F           4.5051   -3.8865   21.1636 F       1  UNL1       -0.2039
     33 C           3.3206   -1.6462   21.7360 C.ar    1  UNL1        0.0607
     34 C           3.0890   -0.5031   22.6793 C.ar    1  UNL1        0.1557
     35 F           2.1360    0.5942   22.3084 F       1  UNL1       -0.2028
     36 C           5.9483   -3.7950   23.7921 C.2     1  UNL1        0.2480
     37 O           6.6641   -4.5611   22.7194 O.2     1  UNL1       -0.2701
     38 N           6.1854   -4.1263   25.2357 N.am    1  UNL1       -0.3024
     39 H           5.7156   -3.6235   25.9397 H       1  UNL1        0.1497
     40 C           7.1385   -5.2236   25.6066 C.3     1  UNL1        0.0720
     41 C           8.3580   -5.6907   26.3447 C.3     1  UNL1        0.0213
     42 C           7.5698   -6.6570   25.5111 C.3     1  UNL1        0.0213
@<TRIPOS>BOND
     1    23    24    1
     2    24    25    1
     3    24     1    1
     4     1     2   ar
     5     2    10    1
     6    10    11   ar
     7    11    12   ar
     8    12    13   ar
     9    13    15    1
    10    15    17    1
    11    17    18    1
    12    18    19    1
    13    19    20    1
    14    20    21    1
    15    20    22    1
    16    13    14   ar
    17     2     3   ar
    18     3     4   ar
    19     4     5   ar
    20     5     6   ar
    21     6     7   ar
    22     7     8   ar
    23     8    26    1
    24    26    28    1
    25    28    29   ar
    26    29    30   ar
    27    30    36    1
    28    36    37    2
    29    36    38   am
    30    38    40    1
    31    40    41    1
    32    41    42    1
    33    30    31   ar
    34    31    32    1
    35    31    33   ar
    36    33    34   ar
    37    34    35    1
    38     8     9   ar
    39     9     1   ar
    40    14    10   ar
    41     9     4   ar
    42    34    28   ar
    43    42    40    1
    44    15    16    1
    45    26    27    1
    46    38    39    1
@<TRIPOS>MOLECULE
*****
 42 46 0 0 0
SMALL
GASTEIGER

@<TRIPOS>ATOM
      1 C           4.4228   -1.3537   22.0083 C.ar    1  UNL1        0.0040
      2 C           3.0521   -0.8248   21.7060 C.ar    1  UNL1        0.0719
      3 C           2.4981   -1.6063   20.5517 C.ar    1  UNL1        0.1049
      4 N           3.5263   -2.6181   20.1407 N.ar    1  UNL1       -0.2242
      5 N           3.5331   -3.6614   19.0631 N.ar    1  UNL1       -0.1422
      6 C           4.7295   -4.5486   18.8857 C.ar    1  UNL1        0.2211
      7 N           5.9191   -4.3925   19.7859 N.ar    1  UNL1       -0.2060
      8 C           5.9123   -3.3492   20.8636 C.ar    1  UNL1        0.1515
      9 C           4.7159   -2.4620   21.0410 C.ar    1  UNL1        0.1107
     10 C           2.3575    0.2898   22.4306 C.ar    1  UNL1        0.2525
     11 N           1.8017    1.5356   21.8067 N.ar    1  UNL1       -0.1057
     12 N           1.1974    2.3701   22.8969 N.ar    1  UNL1       -0.0923
     13 C           1.3795    1.6400   24.1945 C.ar    1  UNL1        0.3086
     14 O           2.0965    0.3544   23.9063 O.2     1  UNL1       -0.4048
     15 N           0.9247    2.1126   25.5435 N.pl3   1  UNL1       -0.2871
     16 H           1.5431    2.0852   26.3090 H       1  UNL1        0.1512
     17 C          -0.4725    2.6270   25.7261 C.3     1  UNL1        0.0925
     18 C          -1.1886    2.4075   27.0257 C.3     1  UNL1        0.0386
     19 C          -0.8982    1.1849   27.8448 C.3     1  UNL1        0.0739
     20 N           0.3348    1.1287   28.6973 N.3     1  UNL1       -0.2703
     21 C           0.9416   -0.1964   29.0521 C.3     1  UNL1        0.0897
     22 C           0.9609    2.3977   29.1951 C.3     1  UNL1        0.0897
     23 C           6.3604    0.1948   22.7820 C.3     1  UNL1        0.0047
     24 C           5.3395   -0.8608   23.0885 C.3     1  UNL1        0.0241
     25 C           5.2356   -1.4234   24.4750 C.3     1  UNL1        0.0047
     26 N           7.1019   -3.1931   21.7639 N.pl3   1  UNL1       -0.2949
     27 H           7.5693   -2.3283   21.8164 H       1  UNL1        0.1537
     28 C           7.5792   -4.3546   22.5842 C.ar    1  UNL1        0.0775
     29 C           7.1684   -4.4768   24.0217 C.ar    1  UNL1        0.0237
     30 C           7.6457   -5.6383   24.8420 C.ar    1  UNL1        0.0821
     31 C           8.5338   -6.6777   24.2249 C.ar    1  UNL1        0.1468
     32 F           9.0111   -7.8393   25.0453 F       1  UNL1       -0.2039
     33 C           8.9446   -6.5556   22.7875 C.ar    1  UNL1        0.0607
     34 C           8.4673   -5.3941   21.9671 C.ar    1  UNL1        0.1557
     35 F           8.8781   -5.2720   20.5296 F       1  UNL1       -0.2028
     36 C           7.2350   -5.7604   26.2796 C.2     1  UNL1        0.2480
     37 O           6.4974   -6.9797   26.7478 O.2     1  UNL1       -0.2701
     38 N           7.5618   -4.6633   27.2488 N.am    1  UNL1       -0.3024
     39 H           8.0459   -3.8630   26.9414 H       1  UNL1        0.1497
     40 C           7.1510   -4.7854   28.6863 C.3     1  UNL1        0.0720
     41 C           6.6878   -4.1495   29.9634 C.3     1  UNL1        0.0213
     42 C           6.9028   -5.6326   29.8989 C.3     1  UNL1        0.0213
@<TRIPOS>BOND
     1    23    24    1
     2    24    25    1
     3    24     1    1
     4     1     2   ar
     5     2    10    1
     6    10    11   ar
     7    11    12   ar
     8    12    13   ar
     9    13    15    1
    10    15    17    1
    11    17    18    1
    12    18    19    1
    13    19    20    1
    14    20    21    1
    15    20    22    1
    16    13    14   ar
    17     2     3   ar
    18     3     4   ar
    19     4     5   ar
    20     5     6   ar
    21     6     7   ar
    22     7     8   ar
    23     8    26    1
    24    26    28    1
    25    28    29   ar
    26    29    30   ar
    27    30    36    1
    28    36    37    2
    29    36    38   am
    30    38    40    1
    31    40    41    1
    32    41    42    1
    33    30    31   ar
    34    31    32    1
    35    31    33   ar
    36    33    34   ar
    37    34    35    1
    38     8     9   ar
    39     9     1   ar
    40    14    10   ar
    41     9     4   ar
    42    34    28   ar
    43    42    40    1
    44    15    16    1
    45    26    27    1
    46    38    39    1
@<TRIPOS>MOLECULE
*****
 42 46 0 0 0
SMALL
GASTEIGER

@<TRIPOS>ATOM
      1 C           1.3812    2.2239   19.8922 C.ar    1  UNL1        0.0040
      2 C           0.4995    3.2071   19.1810 C.ar    1  UNL1        0.0719
      3 C           1.3555    3.9997   18.2381 C.ar    1  UNL1        0.1049
      4 N           2.7662    3.5063   18.3665 N.ar    1  UNL1       -0.2242
      5 N           4.0383    3.9147   17.6847 N.ar    1  UNL1       -0.1422
      6 C           5.3263    3.2254   18.0251 C.ar    1  UNL1        0.2211
      7 N           5.3422    2.1278   19.0474 N.ar    1  UNL1       -0.2060
      8 C           4.0701    1.7195   19.7293 C.ar    1  UNL1        0.1515
      9 C           2.7821    2.4088   19.3888 C.ar    1  UNL1        0.1107
     10 C          -0.9786    3.3693   19.3781 C.ar    1  UNL1        0.2525
     11 N          -1.8887    4.2312   18.5542 N.ar    1  UNL1       -0.1057
     12 N          -3.2787    4.0927   19.1006 N.ar    1  UNL1       -0.0923
     13 C          -3.2278    3.1451   20.2623 C.ar    1  UNL1        0.3086
     14 O          -1.8062    2.6981   20.4338 O.2     1  UNL1       -0.4048
     15 N          -4.3936    2.7193   21.1046 N.pl3   1  UNL1       -0.2871
     16 H          -4.5575    1.7629   21.2710 H       1  UNL1        0.1512
     17 C          -5.3099    3.7508   21.6934 C.3     1  UNL1        0.0925
     18 C          -5.7168    3.6574   23.1341 C.3     1  UNL1        0.0386
     19 C          -4.7024    3.2949   24.1779 C.3     1  UNL1        0.0739
     20 N          -3.5183    4.1849   24.4141 N.3     1  UNL1       -0.2703
     21 C          -2.1836    3.8283   23.8298 C.3     1  UNL1        0.0897
     22 C          -3.6689    5.4316   25.2346 C.3     1  UNL1        0.0897
     23 C           0.9398    1.6074   22.3772 C.3     1  UNL1        0.0047
     24 C           0.9396    1.2301   20.9253 C.3     1  UNL1        0.0241
     25 C           0.4978   -0.1408   20.5068 C.3     1  UNL1        0.0047
     26 N           4.0860    0.6220   20.7516 N.pl3   1  UNL1       -0.2949
     27 H           3.9219    0.8300   21.6997 H       1  UNL1        0.1537
     28 C           4.3520   -0.7925   20.3292 C.ar    1  UNL1        0.0775
     29 C           5.2416   -1.6688   21.1605 C.ar    1  UNL1        0.0237
     30 C           5.5075   -3.0833   20.7381 C.ar    1  UNL1        0.0821
     31 C           4.8839   -3.6216   19.4846 C.ar    1  UNL1        0.1468
     32 F           5.1499   -5.0362   19.0623 F       1  UNL1       -0.2039
     33 C           3.9944   -2.7455   18.6534 C.ar    1  UNL1        0.0607
     34 C           3.7284   -1.3309   19.0757 C.ar    1  UNL1        0.1557
     35 F           2.8388   -0.4547   18.2445 F       1  UNL1       -0.2028
     36 C           6.3971   -3.9596   21.5694 C.2     1  UNL1        0.2480
     37 O           7.4318   -4.8207   20.9077 O.2     1  UNL1       -0.2701
     38 N           6.2520   -3.9746   23.0622 N.am    1  UNL1       -0.3024
     39 H           5.5730   -3.4093   23.4965 H       1  UNL1        0.1497
     40 C           7.1416   -4.8508   23.8935 C.3     1  UNL1        0.0720
     41 C           8.3269   -5.7629   24.0077 C.3     1  UNL1        0.0213
     42 C           7.4970   -5.4563   25.2189 C.3     1  UNL1        0.0213
@<TRIPOS>BOND
     1    23    24    1
     2    24    25    1
     3    24     1    1
     4     1     2   ar
     5     2    10    1
     6    10    11   ar
     7    11    12   ar
     8    12    13   ar
     9    13    15    1
    10    15    17    1
    11    17    18    1
    12    18    19    1
    13    19    20    1
    14    20    21    1
    15    20    22    1
    16    13    14   ar
    17     2     3   ar
    18     3     4   ar
    19     4     5   ar
    20     5     6   ar
    21     6     7   ar
    22     7     8   ar
    23     8    26    1
    24    26    28    1
    25    28    29   ar
    26    29    30   ar
    27    30    36    1
    28    36    37    2
    29    36    38   am
    30    38    40    1
    31    40    41    1
    32    41    42    1
    33    30    31   ar
    34    31    32    1
    35    31    33   ar
    36    33    34   ar
    37    34    35    1
    38     8     9   ar
    39     9     1   ar
    40    14    10   ar
    41     9     4   ar
    42    34    28   ar
    43    42    40    1
    44    15    16    1
    45    26    27    1
    46    38    39    1
@<TRIPOS>MOLECULE
*****
 42 46 0 0 0
SMALL
GASTEIGER

@<TRIPOS>ATOM
      1 C           3.2449    1.4748   32.3116 C.ar    1  UNL1        0.0040
      2 C           1.9860    2.2624   32.5232 C.ar    1  UNL1        0.0719
      3 C           1.0505    1.9537   31.3920 C.ar    1  UNL1        0.1049
      4 N           1.7313    0.9753   30.4813 N.ar    1  UNL1       -0.2242
      5 N           1.2915    0.3157   29.2080 N.ar    1  UNL1       -0.1422
      6 C           2.2079   -0.6399   28.5030 C.ar    1  UNL1        0.2211
      7 N           3.5641   -0.9359   29.0714 N.ar    1  UNL1       -0.2060
      8 C           4.0039   -0.2763   30.3447 C.ar    1  UNL1        0.1515
      9 C           3.0875    0.6793   31.0497 C.ar    1  UNL1        0.1107
     10 C           1.7108    3.1950   33.6653 C.ar    1  UNL1        0.2525
     11 N           0.9521    4.4865   33.5860 N.ar    1  UNL1       -0.1057
     12 N           0.9184    5.0895   34.9590 N.ar    1  UNL1       -0.0923
     13 C           1.6563    4.1706   35.8870 C.ar    1  UNL1        0.3086
     14 O           2.1460    2.9998   35.0875 O.2     1  UNL1       -0.4048
     15 N           1.8674    4.3850   37.3565 N.pl3   1  UNL1       -0.2871
     16 H           1.2580    3.9676   38.0074 H       1  UNL1        0.1512
     17 C           3.0070    5.2353   37.8344 C.3     1  UNL1        0.0925
     18 C           3.9065    4.7386   38.9271 C.3     1  UNL1        0.0386
     19 C           3.9714    3.2723   39.2366 C.3     1  UNL1        0.0739
     20 N           4.3114    2.2915   38.1537 N.3     1  UNL1       -0.2703
     21 C           5.5137    2.5192   37.2861 C.3     1  UNL1        0.0897
     22 C           3.4492    1.0831   37.9385 C.3     1  UNL1        0.0897
     23 C           4.5163    0.5530   34.3814 C.3     1  UNL1        0.0047
     24 C           4.4497    1.4815   33.2051 C.3     1  UNL1        0.0241
     25 C           5.5880    2.4165   32.9225 C.3     1  UNL1        0.0047
     26 N           5.3602   -0.5722   30.9131 N.pl3   1  UNL1       -0.2949
     27 H           5.9138    0.1586   31.2716 H       1  UNL1        0.1537
     28 C           5.8728   -1.9817   30.9353 C.ar    1  UNL1        0.0775
     29 C           6.3528   -2.6253   29.6682 C.ar    1  UNL1        0.0237
     30 C           6.8654   -4.0348   29.6905 C.ar    1  UNL1        0.0821
     31 C           6.8980   -4.8008   30.9797 C.ar    1  UNL1        0.1468
     32 F           7.4107   -6.2103   31.0019 F       1  UNL1       -0.2039
     33 C           6.4180   -4.1572   32.2468 C.ar    1  UNL1        0.0607
     34 C           5.9054   -2.7477   32.2246 C.ar    1  UNL1        0.1557
     35 F           5.4254   -2.1042   33.4917 F       1  UNL1       -0.2028
     36 C           7.3454   -4.6784   28.4234 C.2     1  UNL1        0.2480
     37 O           8.5121   -4.0963   27.6819 O.2     1  UNL1       -0.2701
     38 N           6.6586   -5.9040   27.8979 N.am    1  UNL1       -0.3024
     39 H           5.8928   -6.2860   28.3846 H       1  UNL1        0.1497
     40 C           7.1386   -6.5476   26.6308 C.3     1  UNL1        0.0720
     41 C           7.5786   -6.4329   25.2014 C.3     1  UNL1        0.0213
     42 C           7.5298   -7.7769   25.8656 C.3     1  UNL1        0.0213
@<TRIPOS>BOND
     1    23    24    1
     2    24    25    1
     3    24     1    1
     4     1     2   ar
     5     2    10    1
     6    10    11   ar
     7    11    12   ar
     8    12    13   ar
     9    13    15    1
    10    15    17    1
    11    17    18    1
    12    18    19    1
    13    19    20    1
    14    20    21    1
    15    20    22    1
    16    13    14   ar
    17     2     3   ar
    18     3     4   ar
    19     4     5   ar
    20     5     6   ar
    21     6     7   ar
    22     7     8   ar
    23     8    26    1
    24    26    28    1
    25    28    29   ar
    26    29    30   ar
    27    30    36    1
    28    36    37    2
    29    36    38   am
    30    38    40    1
    31    40    41    1
    32    41    42    1
    33    30    31   ar
    34    31    32    1
    35    31    33   ar
    36    33    34   ar
    37    34    35    1
    38     8     9   ar
    39     9     1   ar
    40    14    10   ar
    41     9     4   ar
    42    34    28   ar
    43    42    40    1
    44    15    16    1
    45    26    27    1
    46    38    39    1
@<TRIPOS>MOLECULE
*****
 42 46 0 0 0
SMALL
GASTEIGER

@<TRIPOS>ATOM
      1 C           8.1153   -4.4146   26.3530 C.ar    1  UNL1        0.0040
      2 C           8.2562   -5.3865   27.4868 C.ar    1  UNL1        0.0719
      3 C           8.5323   -6.7411   26.9046 C.ar    1  UNL1        0.1049
      4 N           8.5621   -6.6063   25.4110 N.ar    1  UNL1       -0.2242
      5 N           8.7905   -7.6071   24.3173 N.ar    1  UNL1       -0.1422
      6 C           8.7612   -7.1701   22.8827 C.ar    1  UNL1        0.2211
      7 N           8.5035   -5.7323   22.5418 N.ar    1  UNL1       -0.2060
      8 C           8.2751   -4.7315   23.6354 C.ar    1  UNL1        0.1515
      9 C           8.3043   -5.1685   25.0700 C.ar    1  UNL1        0.1107
     10 C           8.1412   -5.0610   28.9466 C.ar    1  UNL1        0.2525
     11 N           9.2748   -4.7073   29.8630 N.ar    1  UNL1       -0.1057
     12 N           8.7067   -4.4597   31.2290 N.ar    1  UNL1       -0.0923
     13 C           7.2219   -4.6605   31.1568 C.ar    1  UNL1        0.3086
     14 O           6.8725   -5.0321   29.7462 O.2     1  UNL1       -0.4048
     15 N           6.2561   -4.5151   32.2953 N.pl3   1  UNL1       -0.2871
     16 H           5.8710   -5.3158   32.7194 H       1  UNL1        0.1512
     17 C           5.8771   -3.1499   32.7876 C.3     1  UNL1        0.0925
     18 C           6.3376   -1.9304   32.0455 C.3     1  UNL1        0.0386
     19 C           6.1710   -0.5717   32.6589 C.3     1  UNL1        0.0739
     20 N           5.0467   -0.3146   33.6181 N.3     1  UNL1       -0.2703
     21 C           3.6559   -0.0936   33.1015 C.3     1  UNL1        0.0897
     22 C           5.3132   -0.2785   35.0938 C.3     1  UNL1        0.0897
     23 C           6.4184   -2.4566   26.5453 C.3     1  UNL1        0.0047
     24 C           7.8347   -2.9466   26.4798 C.3     1  UNL1        0.0241
     25 C           8.9701   -1.9685   26.5412 C.3     1  UNL1        0.0047
     26 N           8.0173   -3.2937   23.2945 N.pl3   1  UNL1       -0.2949
     27 H           8.5466   -2.5834   23.7242 H       1  UNL1        0.1537
     28 C           6.9533   -2.9380   22.2989 C.ar    1  UNL1        0.0775
     29 C           7.3256   -2.2627   21.0123 C.ar    1  UNL1        0.0237
     30 C           6.2615   -1.9071   20.0167 C.ar    1  UNL1        0.0821
     31 C           4.8251   -2.2267   20.3076 C.ar    1  UNL1        0.1468
     32 F           3.7611   -1.8710   19.3120 F       1  UNL1       -0.2039
     33 C           4.4528   -2.9020   21.5942 C.ar    1  UNL1        0.0607
     34 C           5.5169   -3.2577   22.5899 C.ar    1  UNL1        0.1557
     35 F           5.1446   -3.9329   23.8765 F       1  UNL1       -0.2028
     36 C           6.6338   -1.2318   18.7300 C.2     1  UNL1        0.2480
     37 O           6.8138   -2.0436   17.4816 O.2     1  UNL1       -0.2701
     38 N           6.8261    0.2554   18.6918 N.am    1  UNL1       -0.3024
     39 H           6.7079    0.7882   19.5112 H       1  UNL1        0.1497
     40 C           7.1984    0.9307   17.4052 C.3     1  UNL1        0.0720
     41 C           8.1627    1.7502   16.5999 C.3     1  UNL1        0.0213
     42 C           6.8789    1.2809   15.9822 C.3     1  UNL1        0.0213
@<TRIPOS>BOND
     1    23    24    1
     2    24    25    1
     3    24     1    1
     4     1     2   ar
     5     2    10    1
     6    10    11   ar
     7    11    12   ar
     8    12    13   ar
     9    13    15    1
    10    15    17    1
    11    17    18    1
    12    18    19    1
    13    19    20    1
    14    20    21    1
    15    20    22    1
    16    13    14   ar
    17     2     3   ar
    18     3     4   ar
    19     4     5   ar
    20     5     6   ar
    21     6     7   ar
    22     7     8   ar
    23     8    26    1
    24    26    28    1
    25    28    29   ar
    26    29    30   ar
    27    30    36    1
    28    36    37    2
    29    36    38   am
    30    38    40    1
    31    40    41    1
    32    41    42    1
    33    30    31   ar
    34    31    32    1
    35    31    33   ar
    36    33    34   ar
    37    34    35    1
    38     8     9   ar
    39     9     1   ar
    40    14    10   ar
    41     9     4   ar
    42    34    28   ar
    43    42    40    1
    44    15    16    1
    45    26    27    1
    46    38    39    1
@<TRIPOS>MOLECULE
*****
 42 46 0 0 0
SMALL
GASTEIGER

@<TRIPOS>ATOM
      1 C           2.6230    1.0261   19.8057 C.ar    1  UNL1        0.0040
      2 C           2.5451    2.4149   19.2442 C.ar    1  UNL1        0.0719
      3 C           3.7124    2.6082   18.3221 C.ar    1  UNL1        0.1049
      4 N           4.5117    1.3389   18.3138 N.ar    1  UNL1       -0.2242
      5 N           5.7656    0.9471   17.5897 N.ar    1  UNL1       -0.1422
      6 C           6.3462   -0.4224   17.7826 C.ar    1  UNL1        0.2211
      7 N           5.6729   -1.4002   18.6995 N.ar    1  UNL1       -0.2060
      8 C           4.4190   -1.0084   19.4235 C.ar    1  UNL1        0.1515
      9 C           3.8384    0.3611   19.2307 C.ar    1  UNL1        0.1107
     10 C           1.4859    3.4318   19.5509 C.ar    1  UNL1        0.2525
     11 N           1.6881    4.9153   19.6426 N.ar    1  UNL1       -0.1057
     12 N           0.3658    5.5441   19.9681 N.ar    1  UNL1       -0.0923
     13 C          -0.6537    4.4493   20.0775 C.ar    1  UNL1        0.3086
     14 O           0.0386    3.1438   19.8197 O.2     1  UNL1       -0.4048
     15 N          -2.1098    4.6284   20.3900 N.pl3   1  UNL1       -0.2871
     16 H          -2.4827    5.5333   20.4965 H       1  UNL1        0.1512
     17 C          -2.9978    3.4288   20.5401 C.3     1  UNL1        0.0925
     18 C          -4.4287    3.6022   20.9552 C.3     1  UNL1        0.0386
     19 C          -4.9248    2.9673   22.2204 C.3     1  UNL1        0.0739
     20 N          -5.7519    3.7643   23.1853 N.3     1  UNL1       -0.2703
     21 C          -5.2722    3.9716   24.5913 C.3     1  UNL1        0.0897
     22 C          -7.0587    4.3539   22.7440 C.3     1  UNL1        0.0897
     23 C           0.6764   -0.6225   20.2984 C.3     1  UNL1        0.0047
     24 C           1.6554    0.4104   20.7724 C.3     1  UNL1        0.0241
     25 C           1.6668    0.8276   22.2132 C.3     1  UNL1        0.0047
     26 N           3.7458   -1.9862   20.3404 N.pl3   1  UNL1       -0.2949
     27 H           2.8872   -2.3926   20.0818 H       1  UNL1        0.1537
     28 C           4.3806   -2.3447   21.6512 C.ar    1  UNL1        0.0775
     29 C           4.0144   -1.5882   22.8937 C.ar    1  UNL1        0.0237
     30 C           4.6493   -1.9467   24.2046 C.ar    1  UNL1        0.0821
     31 C           5.6504   -3.0617   24.2730 C.ar    1  UNL1        0.1468
     32 F           6.2853   -3.4202   25.5840 F       1  UNL1       -0.2039
     33 C           6.0166   -3.8181   23.0306 C.ar    1  UNL1        0.0607
     34 C           5.3817   -3.4596   21.7197 C.ar    1  UNL1        0.1557
     35 F           5.7480   -4.2161   20.4773 F       1  UNL1       -0.2028
     36 C           4.2831   -1.1903   25.4471 C.2     1  UNL1        0.2480
     37 O           4.5712    0.2786   25.5432 O.2     1  UNL1       -0.2701
     38 N           3.6287   -1.9028   26.5934 N.am    1  UNL1       -0.3024
     39 H           3.4396   -2.8669   26.5304 H       1  UNL1        0.1497
     40 C           3.2625   -1.1464   27.8359 C.3     1  UNL1        0.0720
     41 C           2.2270   -0.4847   28.6961 C.3     1  UNL1        0.0213
     42 C           3.6635   -0.4980   29.1276 C.3     1  UNL1        0.0213
@<TRIPOS>BOND
     1    23    24    1
     2    24    25    1
     3    24     1    1
     4     1     2   ar
     5     2    10    1
     6    10    11   ar
     7    11    12   ar
     8    12    13   ar
     9    13    15    1
    10    15    17    1
    11    17    18    1
    12    18    19    1
    13    19    20    1
    14    20    21    1
    15    20    22    1
    16    13    14   ar
    17     2     3   ar
    18     3     4   ar
    19     4     5   ar
    20     5     6   ar
    21     6     7   ar
    22     7     8   ar
    23     8    26    1
    24    26    28    1
    25    28    29   ar
    26    29    30   ar
    27    30    36    1
    28    36    37    2
    29    36    38   am
    30    38    40    1
    31    40    41    1
    32    41    42    1
    33    30    31   ar
    34    31    32    1
    35    31    33   ar
    36    33    34   ar
    37    34    35    1
    38     8     9   ar
    39     9     1   ar
    40    14    10   ar
    41     9     4   ar
    42    34    28   ar
    43    42    40    1
    44    15    16    1
    45    26    27    1
    46    38    39    1
@<TRIPOS>MOLECULE
*****
 42 46 0 0 0
SMALL
GASTEIGER

@<TRIPOS>ATOM
      1 C           3.8983   -0.2707   29.1654 C.ar    1  UNL1        0.0040
      2 C           3.1452   -0.3802   30.4579 C.ar    1  UNL1        0.0719
      3 C           1.7338    0.0637   30.2110 C.ar    1  UNL1        0.1049
      4 N           1.6147    0.4475   28.7658 N.ar    1  UNL1       -0.2242
      5 N           0.4609    0.9585   27.9549 N.ar    1  UNL1       -0.1422
      6 C           0.6449    1.2627   26.4977 C.ar    1  UNL1        0.2211
      7 N           1.9827    1.0560   25.8514 N.ar    1  UNL1       -0.2060
      8 C           3.1364    0.5451   26.6624 C.ar    1  UNL1        0.1515
      9 C           2.9524    0.2408   28.1196 C.ar    1  UNL1        0.1107
     10 C           3.7051   -0.8509   31.7675 C.ar    1  UNL1        0.2525
     11 N           3.5660   -2.2298   32.3413 N.ar    1  UNL1       -0.1057
     12 N           4.2773   -2.2564   33.6616 N.ar    1  UNL1       -0.0923
     13 C           4.8561   -0.8940   33.9039 C.ar    1  UNL1        0.3086
     14 O           4.5024   -0.0253   32.7332 O.2     1  UNL1       -0.4048
     15 N           5.6493   -0.4739   35.1057 N.pl3   1  UNL1       -0.2871
     16 H           6.6142   -0.6641   35.1497 H       1  UNL1        0.1512
     17 C           4.9722    0.2360   36.2405 C.3     1  UNL1        0.0925
     18 C           4.4867    1.6438   36.0615 C.3     1  UNL1        0.0386
     19 C           3.0148    1.9324   36.0399 C.3     1  UNL1        0.0739
     20 N           2.3136    2.3485   37.2990 N.3     1  UNL1       -0.2703
     21 C           1.7850    3.7456   37.4363 C.3     1  UNL1        0.0897
     22 C           2.1410    1.3677   38.4206 C.3     1  UNL1        0.0897
     23 C           6.3607    0.4811   28.8166 C.3     1  UNL1        0.0047
     24 C           5.3436   -0.6127   28.9554 C.3     1  UNL1        0.0241
     25 C           5.7720   -2.0484   28.8841 C.3     1  UNL1        0.0047
     26 N           4.4742    0.3384   26.0161 N.pl3   1  UNL1       -0.2949
     27 H           5.2160    0.9554   26.2118 H       1  UNL1        0.1537
     28 C           4.6818   -0.8083   25.0717 C.ar    1  UNL1        0.0775
     29 C           5.5399   -1.9694   25.4789 C.ar    1  UNL1        0.0237
     30 C           5.7475   -3.1161   24.5345 C.ar    1  UNL1        0.0821
     31 C           5.0970   -3.1018   23.1829 C.ar    1  UNL1        0.1468
     32 F           5.3046   -4.2487   22.2385 F       1  UNL1       -0.2039
     33 C           4.2389   -1.9409   22.7758 C.ar    1  UNL1        0.0607
     34 C           4.0313   -0.7941   23.7202 C.ar    1  UNL1        0.1557
     35 F           3.1732    0.3669   23.3130 F       1  UNL1       -0.2028
     36 C           6.6056   -4.2772   24.9416 C.2     1  UNL1        0.2480
     37 O           7.7681   -4.6867   24.0868 O.2     1  UNL1       -0.2701
     38 N           6.3010   -5.0287   26.2036 N.am    1  UNL1       -0.3024
     39 H           5.5380   -4.7599   26.7646 H       1  UNL1        0.1497
     40 C           7.1590   -6.1897   26.6107 C.3     1  UNL1        0.0720
     41 C           8.1464   -6.8066   27.5566 C.3     1  UNL1        0.0213
     42 C           7.6579   -7.5836   26.3702 C.3     1  UNL1        0.0213
@<TRIPOS>BOND
     1    23    24    1
     2    24    25    1
     3    24     1    1
     4     1     2   ar
     5     2    10    1
     6    10    11   ar
     7    11    12   ar
     8    12    13   ar
     9    13    15    1
    10    15    17    1
    11    17    18    1
    12    18    19    1
    13    19    20    1
    14    20    21    1
    15    20    22    1
    16    13    14   ar
    17     2     3   ar
    18     3     4   ar
    19     4     5   ar
    20     5     6   ar
    21     6     7   ar
    22     7     8   ar
    23     8    26    1
    24    26    28    1
    25    28    29   ar
    26    29    30   ar
    27    30    36    1
    28    36    37    2
    29    36    38   am
    30    38    40    1
    31    40    41    1
    32    41    42    1
    33    30    31   ar
    34    31    32    1
    35    31    33   ar
    36    33    34   ar
    37    34    35    1
    38     8     9   ar
    39     9     1   ar
    40    14    10   ar
    41     9     4   ar
    42    34    28   ar
    43    42    40    1
    44    15    16    1
    45    26    27    1
    46    38    39    1
