@<TRIPOS>MOLECULE
*****
 35 39 0 0 0
SMALL
GASTEIGER

@<TRIPOS>ATOM
      1 C           5.8798    3.3582   39.8843 C.ar    1  UNL1        0.1060
      2 C           7.3031    3.3455   39.4111 C.ar    1  UNL1        0.0215
      3 C           7.6941    2.5043   38.2323 C.ar    1  UNL1        0.0383
      4 C           6.6618    1.6757   37.5268 C.ar    1  UNL1        0.1410
      5 C           5.2384    1.6884   38.0000 C.ar    1  UNL1        0.0700
      6 C           4.8474    2.5297   39.1788 C.ar    1  UNL1        0.0242
      7 C           4.2061    0.8598   37.2945 C.2     1  UNL1        0.1795
      8 O           2.7827    0.8725   37.7678 O.2     1  UNL1       -0.2911
      9 C           4.5971    0.0185   36.1157 C.3     1  UNL1        0.1092
     10 C           6.0204    0.0059   35.6425 C.3     1  UNL1        0.1436
     11 C           4.9881   -0.8227   34.9370 C.3     1  UNL1        0.0620
     12 C           5.3791   -1.6639   33.7583 C.3     1  UNL1        0.0985
     13 N           6.8024   -1.6766   33.2851 N.am    1  UNL1       -0.2640
     14 C           7.1934   -2.5178   32.1063 C.2     1  UNL1        0.3039
     15 O           8.6168   -2.5305   31.6331 O.2     1  UNL1       -0.2526
     16 N           6.1611   -3.3464   31.4008 N.am    1  UNL1       -0.2904
     17 C           7.8348   -0.8480   33.9906 C.3     1  UNL1        0.0985
     18 C           7.4437   -0.0068   35.1693 C.3     1  UNL1        0.0620
     19 O           7.0528    0.8345   36.3481 O.3     1  UNL1       -0.4819
     20 H           5.2269   -3.3381   31.7114 H       1  UNL1        0.1509
     21 C           6.5521   -4.1877   30.2220 C.3     1  UNL1        0.0734
     22 C           7.0268   -5.6097   30.2725 C.3     1  UNL1        0.0200
     23 C           7.3051   -6.0555   28.8675 C.3     1  UNL1        0.0061
     24 C           7.0023   -4.9090   27.9488 C.3     1  UNL1        0.0240
     25 C           6.5369   -3.7547   28.7860 C.3     1  UNL1        0.0240
     26 C           7.1407   -4.9157   26.4553 C.ar    1  UNL1       -0.0224
     27 C           6.5361   -3.8105   25.6410 C.ar    1  UNL1       -0.0043
     28 C           6.6745   -3.8172   24.1475 C.ar    1  UNL1       -0.0003
     29 C           7.4173   -4.9292   23.4681 C.ar    1  UNL1       -0.0000
     30 C           8.0219   -6.0345   24.2823 C.ar    1  UNL1       -0.0003
     31 C           7.8835   -6.0277   25.7759 C.ar    1  UNL1       -0.0043
     32 C           5.0977    5.0407   42.2418 C.3     1  UNL1        0.1816
     33 S           5.4887    4.1994   41.0630 S.O2    1  UNL1        0.0105
     34 O           4.8376    5.1878   40.1416 O.2     1  UNL1       -0.1686
     35 O           6.1399    3.2110   41.9844 O.2     1  UNL1       -0.1686
@<TRIPOS>BOND
     1    32    33    1
     2    33    34    2
     3    33    35    2
     4    33     1    1
     5     1     2   ar
     6     2     3   ar
     7     3     4   ar
     8     4     5   ar
     9     5     6   ar
    10     5     7    1
    11     7     8    2
    12     7     9    1
    13     9    10    1
    14    10    11    1
    15    11    12    1
    16    12    13    1
    17    13    14   am
    18    14    15    2
    19    14    16   am
    20    21    16    1
    21    21    22    1
    22    22    23    1
    23    23    24    1
    24    24    26    1
    25    26    27   ar
    26    27    28   ar
    27    28    29   ar
    28    29    30   ar
    29    30    31   ar
    30    24    25    1
    31    13    17    1
    32    17    18    1
    33    10    19    1
    34     6     1   ar
    35    18    10    1
    36    19     4    1
    37    25    21    1
    38    31    26   ar
    39    16    20    1
@<TRIPOS>MOLECULE
*****
 35 39 0 0 0
SMALL
GASTEIGER

@<TRIPOS>ATOM
      1 C           2.3555    3.2489   35.9965 C.ar    1  UNL1        0.1060
      2 C           1.6603    4.3837   35.3045 C.ar    1  UNL1        0.0215
      3 C           1.4406    4.3362   33.8215 C.ar    1  UNL1        0.0383
      4 C           1.9161    3.1537   33.0304 C.ar    1  UNL1        0.1410
      5 C           2.6112    2.0189   33.7223 C.ar    1  UNL1        0.0700
      6 C           2.8309    2.0665   35.2055 C.ar    1  UNL1        0.0242
      7 C           3.0867    0.8364   32.9313 C.2     1  UNL1        0.1795
      8 O           3.7819   -0.2984   33.6233 O.2     1  UNL1       -0.2911
      9 C           2.8670    0.7888   31.4482 C.3     1  UNL1        0.1092
     10 C           2.1718    1.9237   30.7562 C.3     1  UNL1        0.1436
     11 C           2.6473    0.7413   29.9652 C.3     1  UNL1        0.0620
     12 C           2.4276    0.6937   28.4821 C.3     1  UNL1        0.0985
     13 N           1.7324    1.8286   27.7902 N.am    1  UNL1       -0.2640
     14 C           1.5127    1.7810   26.3070 C.2     1  UNL1        0.3039
     15 O           0.8175    2.9158   25.6151 O.2     1  UNL1       -0.2526
     16 N           1.9881    0.5986   25.5160 N.am    1  UNL1       -0.2904
     17 C           1.2569    3.0110   28.5812 C.3     1  UNL1        0.0985
     18 C           1.4767    3.0586   30.0642 C.3     1  UNL1        0.0620
     19 O           1.6964    3.1062   31.5473 O.3     1  UNL1       -0.4819
     20 H           2.4444   -0.1463   25.9702 H       1  UNL1        0.1509
     21 C           1.7684    0.5510   24.0329 C.3     1  UNL1        0.0734
     22 C           0.5989    1.1331   23.2958 C.3     1  UNL1        0.0200
     23 C           0.7873    0.8548   21.8339 C.3     1  UNL1        0.0061
     24 C           2.0733    0.1007   21.6676 C.3     1  UNL1        0.0240
     25 C           2.6796   -0.0871   23.0266 C.3     1  UNL1        0.0240
     26 C           2.6514   -0.3811   20.3701 C.ar    1  UNL1       -0.0224
     27 C           3.2821   -1.7396   20.2883 C.ar    1  UNL1       -0.0043
     28 C           3.8602   -2.2214   18.9909 C.ar    1  UNL1       -0.0003
     29 C           3.8076   -1.3447   17.7749 C.ar    1  UNL1       -0.0000
     30 C           3.1768    0.0139   17.8565 C.ar    1  UNL1       -0.0003
     31 C           2.5988    0.4956   19.1541 C.ar    1  UNL1       -0.0043
     32 C           2.7949    3.3440   38.9626 C.3     1  UNL1        0.1816
     33 S           2.5752    3.2964   37.4795 S.O2    1  UNL1        0.0105
     34 O           2.0375    1.9017   37.6039 O.2     1  UNL1       -0.1686
     35 O           3.1129    4.6912   37.3551 O.2     1  UNL1       -0.1686
@<TRIPOS>BOND
     1    32    33    1
     2    33    34    2
     3    33    35    2
     4    33     1    1
     5     1     2   ar
     6     2     3   ar
     7     3     4   ar
     8     4     5   ar
     9     5     6   ar
    10     5     7    1
    11     7     8    2
    12     7     9    1
    13     9    10    1
    14    10    11    1
    15    11    12    1
    16    12    13    1
    17    13    14   am
    18    14    15    2
    19    14    16   am
    20    21    16    1
    21    21    22    1
    22    22    23    1
    23    23    24    1
    24    24    26    1
    25    26    27   ar
    26    27    28   ar
    27    28    29   ar
    28    29    30   ar
    29    30    31   ar
    30    24    25    1
    31    13    17    1
    32    17    18    1
    33    10    19    1
    34     6     1   ar
    35    18    10    1
    36    19     4    1
    37    25    21    1
    38    31    26   ar
    39    16    20    1
@<TRIPOS>MOLECULE
*****
 35 39 0 0 0
SMALL
GASTEIGER

@<TRIPOS>ATOM
      1 C           3.4258    1.4831   35.4224 C.ar    1  UNL1        0.1060
      2 C           2.4142    2.2154   34.5915 C.ar    1  UNL1        0.0215
      3 C           2.3234    1.9537   33.1173 C.ar    1  UNL1        0.0383
      4 C           3.2443    0.9596   32.4740 C.ar    1  UNL1        0.1410
      5 C           4.2558    0.2272   33.3049 C.ar    1  UNL1        0.0700
      6 C           4.3466    0.4890   34.7791 C.ar    1  UNL1        0.0242
      7 C           5.1767   -0.7668   32.6616 C.2     1  UNL1        0.1795
      8 O           6.1882   -1.4992   33.4925 O.2     1  UNL1       -0.2911
      9 C           5.0859   -1.0286   31.1874 C.3     1  UNL1        0.1092
     10 C           4.0743   -0.2963   30.3565 C.3     1  UNL1        0.1436
     11 C           4.9952   -1.2904   29.7132 C.3     1  UNL1        0.0620
     12 C           4.9044   -1.5521   28.2390 C.3     1  UNL1        0.0985
     13 N           3.8928   -0.8198   27.4081 N.am    1  UNL1       -0.2640
     14 C           3.8021   -1.0815   25.9339 C.2     1  UNL1        0.3039
     15 O           2.7905   -0.3492   25.1030 O.2     1  UNL1       -0.2526
     16 N           4.7229   -2.0756   25.2906 N.am    1  UNL1       -0.2904
     17 C           2.9720    0.1743   28.0514 C.3     1  UNL1        0.0985
     18 C           3.0628    0.4361   29.5256 C.3     1  UNL1        0.0620
     19 O           3.1535    0.6978   30.9998 O.3     1  UNL1       -0.4819
     20 H           5.3868   -2.5563   25.8360 H       1  UNL1        0.1509
     21 C           4.6322   -2.3374   23.8164 C.3     1  UNL1        0.0734
     22 C           5.0010   -3.6157   23.1237 C.3     1  UNL1        0.0200
     23 C           4.7535   -3.4352   21.6552 C.3     1  UNL1        0.0061
     24 C           4.2316   -2.0454   21.4405 C.3     1  UNL1        0.0240
     25 C           4.1567   -1.3669   22.7762 C.3     1  UNL1        0.0240
     26 C           3.8516   -1.4403   20.1217 C.ar    1  UNL1       -0.0224
     27 C           4.4819   -1.9423   18.8566 C.ar    1  UNL1       -0.0043
     28 C           4.1019   -1.3372   17.5378 C.ar    1  UNL1       -0.0003
     29 C           3.0913   -0.2300   17.4840 C.ar    1  UNL1       -0.0000
     30 C           2.4609    0.2722   18.7492 C.ar    1  UNL1       -0.0003
     31 C           2.8410   -0.3330   20.0680 C.ar    1  UNL1       -0.0043
     32 C           3.6073    2.0066   38.3708 C.3     1  UNL1        0.1816
     33 S           3.5165    1.7448   36.8966 S.O2    1  UNL1        0.0105
     34 O           4.9715    1.3813   36.8715 O.2     1  UNL1       -0.1686
     35 O           2.0615    2.1084   36.9216 O.2     1  UNL1       -0.1686
@<TRIPOS>BOND
     1    32    33    1
     2    33    34    2
     3    33    35    2
     4    33     1    1
     5     1     2   ar
     6     2     3   ar
     7     3     4   ar
     8     4     5   ar
     9     5     6   ar
    10     5     7    1
    11     7     8    2
    12     7     9    1
    13     9    10    1
    14    10    11    1
    15    11    12    1
    16    12    13    1
    17    13    14   am
    18    14    15    2
    19    14    16   am
    20    21    16    1
    21    21    22    1
    22    22    23    1
    23    23    24    1
    24    24    26    1
    25    26    27   ar
    26    27    28   ar
    27    28    29   ar
    28    29    30   ar
    29    30    31   ar
    30    24    25    1
    31    13    17    1
    32    17    18    1
    33    10    19    1
    34     6     1   ar
    35    18    10    1
    36    19     4    1
    37    25    21    1
    38    31    26   ar
    39    16    20    1
@<TRIPOS>MOLECULE
*****
 35 39 0 0 0
SMALL
GASTEIGER

@<TRIPOS>ATOM
      1 C          -8.1349    6.4439   24.3226 C.ar    1  UNL1        0.1060
      2 C          -7.0968    6.2765   25.3923 C.ar    1  UNL1        0.0215
      3 C          -5.7773    5.6430   25.0643 C.ar    1  UNL1        0.0383
      4 C          -5.4959    5.1769   23.6666 C.ar    1  UNL1        0.1410
      5 C          -6.5340    5.3443   22.5969 C.ar    1  UNL1        0.0700
      6 C          -7.8535    5.9778   22.9249 C.ar    1  UNL1        0.0242
      7 C          -6.2526    4.8782   21.1992 C.2     1  UNL1        0.1795
      8 O          -7.2908    5.0456   20.1295 O.2     1  UNL1       -0.2911
      9 C          -4.9331    4.2446   20.8712 C.3     1  UNL1        0.1092
     10 C          -3.8950    4.0772   21.9409 C.3     1  UNL1        0.1436
     11 C          -3.6136    3.6111   20.5432 C.3     1  UNL1        0.0620
     12 C          -2.2942    2.9776   20.2152 C.3     1  UNL1        0.0985
     13 N          -1.2560    2.8102   21.2849 N.am    1  UNL1       -0.2640
     14 C           0.0635    2.1767   20.9569 C.2     1  UNL1        0.3039
     15 O           1.1016    2.0092   22.0266 O.2     1  UNL1       -0.2526
     16 N           0.3449    1.7106   19.5592 N.am    1  UNL1       -0.2904
     17 C          -1.5374    3.2763   22.6826 C.3     1  UNL1        0.0985
     18 C          -2.8569    3.9098   23.0106 C.3     1  UNL1        0.0620
     19 O          -4.1764    4.5433   23.3386 O.3     1  UNL1       -0.4819
     20 H          -0.3365    1.8205   18.8572 H       1  UNL1        0.1509
     21 C           1.6644    1.0770   19.2312 C.3     1  UNL1        0.0734
     22 C           2.7623    1.6971   18.4188 C.3     1  UNL1        0.0200
     23 C           3.8942    0.7155   18.3435 C.3     1  UNL1        0.0061
     24 C           3.4956   -0.5111   19.1093 C.3     1  UNL1        0.0240
     25 C           2.1176   -0.2877   19.6580 C.3     1  UNL1        0.0240
     26 C           4.3288   -1.7446   19.2941 C.ar    1  UNL1       -0.0224
     27 C           3.7672   -3.0893   18.9387 C.ar    1  UNL1       -0.0043
     28 C           4.6004   -4.3228   19.1235 C.ar    1  UNL1       -0.0003
     29 C           5.9953   -4.2117   19.6636 C.ar    1  UNL1       -0.0000
     30 C           6.5571   -2.8669   20.0190 C.ar    1  UNL1       -0.0003
     31 C           5.7237   -1.6334   19.8342 C.ar    1  UNL1       -0.0043
     32 C         -10.7739    7.7109   24.9785 C.3     1  UNL1        0.1816
     33 S          -9.4544    7.0774   24.6505 S.O2    1  UNL1        0.0105
     34 O          -9.1368    6.9815   26.1134 O.2     1  UNL1       -0.1686
     35 O          -9.7719    7.1733   23.1877 O.2     1  UNL1       -0.1686
@<TRIPOS>BOND
     1    32    33    1
     2    33    34    2
     3    33    35    2
     4    33     1    1
     5     1     2   ar
     6     2     3   ar
     7     3     4   ar
     8     4     5   ar
     9     5     6   ar
    10     5     7    1
    11     7     8    2
    12     7     9    1
    13     9    10    1
    14    10    11    1
    15    11    12    1
    16    12    13    1
    17    13    14   am
    18    14    15    2
    19    14    16   am
    20    21    16    1
    21    21    22    1
    22    22    23    1
    23    23    24    1
    24    24    26    1
    25    26    27   ar
    26    27    28   ar
    27    28    29   ar
    28    29    30   ar
    29    30    31   ar
    30    24    25    1
    31    13    17    1
    32    17    18    1
    33    10    19    1
    34     6     1   ar
    35    18    10    1
    36    19     4    1
    37    25    21    1
    38    31    26   ar
    39    16    20    1
@<TRIPOS>MOLECULE
*****
 35 39 0 0 0
SMALL
GASTEIGER

@<TRIPOS>ATOM
      1 C           5.8788    3.5313   40.3787 C.ar    1  UNL1        0.1060
      2 C           7.2568    3.6646   39.8014 C.ar    1  UNL1        0.0215
      3 C           7.6114    2.9465   38.5331 C.ar    1  UNL1        0.0383
      4 C           6.5879    2.0951   37.8420 C.ar    1  UNL1        0.1410
      5 C           5.2098    1.9618   38.4192 C.ar    1  UNL1        0.0700
      6 C           4.8553    2.6799   39.6876 C.ar    1  UNL1        0.0242
      7 C           4.1864    1.1104   37.7281 C.2     1  UNL1        0.1795
      8 O           2.8083    0.9771   38.3054 O.2     1  UNL1       -0.2911
      9 C           4.5409    0.3923   36.4598 C.3     1  UNL1        0.1092
     10 C           5.9190    0.5256   35.8825 C.3     1  UNL1        0.1436
     11 C           4.8955   -0.3257   35.1915 C.3     1  UNL1        0.0620
     12 C           5.2501   -1.0438   33.9232 C.3     1  UNL1        0.0985
     13 N           6.6281   -0.9105   33.3459 N.am    1  UNL1       -0.2640
     14 C           6.9827   -1.6286   32.0776 C.2     1  UNL1        0.3039
     15 O           8.3607   -1.4953   31.5003 O.2     1  UNL1       -0.2526
     16 N           5.9592   -2.4799   31.3865 N.am    1  UNL1       -0.2904
     17 C           7.6516   -0.0591   34.0370 C.3     1  UNL1        0.0985
     18 C           7.2970    0.6589   35.3053 C.3     1  UNL1        0.0620
     19 O           6.9425    1.3771   36.5737 O.3     1  UNL1       -0.4819
     20 H           5.0547   -2.5674   31.7654 H       1  UNL1        0.1509
     21 C           6.3137   -3.1980   30.1181 C.3     1  UNL1        0.0734
     22 C           6.2050   -2.6409   28.7297 C.3     1  UNL1        0.0200
     23 C           6.6633   -3.6979   27.7689 C.3     1  UNL1        0.0061
     24 C           7.0553   -4.9081   28.5637 C.3     1  UNL1        0.0240
     25 C           6.8392   -4.5992   30.0156 C.3     1  UNL1        0.0240
     26 C           7.5725   -6.2004   28.0048 C.ar    1  UNL1       -0.0224
     27 C           8.5490   -7.0214   28.7937 C.ar    1  UNL1       -0.0043
     28 C           9.0662   -8.3136   28.2348 C.ar    1  UNL1       -0.0003
     29 C           8.6069   -8.7850   26.8869 C.ar    1  UNL1       -0.0000
     30 C           7.6304   -7.9640   26.0978 C.ar    1  UNL1       -0.0003
     31 C           7.1132   -6.6717   26.6569 C.ar    1  UNL1       -0.0043
     32 C           5.1696    4.9674   42.9154 C.3     1  UNL1        0.1816
     33 S           5.5242    4.2493   41.6470 S.O2    1  UNL1        0.0105
     34 O           4.8924    5.3498   40.8473 O.2     1  UNL1       -0.1686
     35 O           6.1561    3.1488   42.4467 O.2     1  UNL1       -0.1686
@<TRIPOS>BOND
     1    32    33    1
     2    33    34    2
     3    33    35    2
     4    33     1    1
     5     1     2   ar
     6     2     3   ar
     7     3     4   ar
     8     4     5   ar
     9     5     6   ar
    10     5     7    1
    11     7     8    2
    12     7     9    1
    13     9    10    1
    14    10    11    1
    15    11    12    1
    16    12    13    1
    17    13    14   am
    18    14    15    2
    19    14    16   am
    20    21    16    1
    21    21    22    1
    22    22    23    1
    23    23    24    1
    24    24    26    1
    25    26    27   ar
    26    27    28   ar
    27    28    29   ar
    28    29    30   ar
    29    30    31   ar
    30    24    25    1
    31    13    17    1
    32    17    18    1
    33    10    19    1
    34     6     1   ar
    35    18    10    1
    36    19     4    1
    37    25    21    1
    38    31    26   ar
    39    16    20    1
@<TRIPOS>MOLECULE
*****
 35 39 0 0 0
SMALL
GASTEIGER

@<TRIPOS>ATOM
      1 C           3.8889    0.9246   35.9179 C.ar    1  UNL1        0.1060
      2 C           4.7318   -0.2224   35.4447 C.ar    1  UNL1        0.0215
      3 C           4.7624   -0.5797   33.9882 C.ar    1  UNL1        0.0383
      4 C           3.9501    0.2099   33.0049 C.ar    1  UNL1        0.1410
      5 C           3.1072    1.3568   33.4782 C.ar    1  UNL1        0.0700
      6 C           3.0766    1.7142   34.9348 C.ar    1  UNL1        0.0242
      7 C           2.2949    2.1464   32.4950 C.2     1  UNL1        0.1795
      8 O           1.4520    3.2934   32.9683 O.2     1  UNL1       -0.2911
      9 C           2.3255    1.7890   31.0385 C.3     1  UNL1        0.1092
     10 C           3.1684    0.6421   30.5652 C.3     1  UNL1        0.1436
     11 C           2.3561    1.4317   29.5820 C.3     1  UNL1        0.0620
     12 C           2.3868    1.0743   28.1256 C.3     1  UNL1        0.0985
     13 N           3.2297   -0.0727   27.6523 N.am    1  UNL1       -0.2640
     14 C           3.2603   -0.4300   26.1958 C.2     1  UNL1        0.3039
     15 O           4.1032   -1.5770   25.7225 O.2     1  UNL1       -0.2526
     16 N           2.4480    0.3596   25.2126 N.am    1  UNL1       -0.2904
     17 C           4.0419   -0.8623   28.6355 C.3     1  UNL1        0.0985
     18 C           4.0113   -0.5049   30.0920 C.3     1  UNL1        0.0620
     19 O           3.9807   -0.1475   31.5485 O.3     1  UNL1       -0.4819
     20 H           1.8947    1.1123   25.5232 H       1  UNL1        0.1509
     21 C           2.4786    0.0022   23.7561 C.3     1  UNL1        0.0734
     22 C           1.6411    0.6239   22.6780 C.3     1  UNL1        0.0200
     23 C           1.9969   -0.0336   21.3775 C.3     1  UNL1        0.0061
     24 C           3.0543   -1.0616   21.6519 C.3     1  UNL1        0.0240
     25 C           3.3519   -1.0395   23.1219 C.3     1  UNL1        0.0240
     26 C           3.7005   -1.9549   20.6350 C.ar    1  UNL1       -0.0224
     27 C           3.8171   -1.5060   19.2084 C.ar    1  UNL1       -0.0043
     28 C           4.4633   -2.3993   18.1915 C.ar    1  UNL1       -0.0003
     29 C           4.9930   -3.7416   18.6009 C.ar    1  UNL1       -0.0000
     30 C           4.8764   -4.1906   20.0274 C.ar    1  UNL1       -0.0003
     31 C           4.2302   -3.2972   21.0444 C.ar    1  UNL1       -0.0043
     32 C           3.8276    1.6394   38.8309 C.3     1  UNL1        0.1816
     33 S           3.8583    1.2820   37.3744 S.O2    1  UNL1        0.0105
     34 O           5.2914    0.8600   37.5081 O.2     1  UNL1       -0.1686
     35 O           2.4251    1.7039   37.2407 O.2     1  UNL1       -0.1686
@<TRIPOS>BOND
     1    32    33    1
     2    33    34    2
     3    33    35    2
     4    33     1    1
     5     1     2   ar
     6     2     3   ar
     7     3     4   ar
     8     4     5   ar
     9     5     6   ar
    10     5     7    1
    11     7     8    2
    12     7     9    1
    13     9    10    1
    14    10    11    1
    15    11    12    1
    16    12    13    1
    17    13    14   am
    18    14    15    2
    19    14    16   am
    20    21    16    1
    21    21    22    1
    22    22    23    1
    23    23    24    1
    24    24    26    1
    25    26    27   ar
    26    27    28   ar
    27    28    29   ar
    28    29    30   ar
    29    30    31   ar
    30    24    25    1
    31    13    17    1
    32    17    18    1
    33    10    19    1
    34     6     1   ar
    35    18    10    1
    36    19     4    1
    37    25    21    1
    38    31    26   ar
    39    16    20    1
@<TRIPOS>MOLECULE
*****
 35 39 0 0 0
SMALL
GASTEIGER

@<TRIPOS>ATOM
      1 C           4.7834   -2.9229   21.5127 C.ar    1  UNL1        0.1060
      2 C           3.8062   -1.8505   21.8936 C.ar    1  UNL1        0.0215
      3 C           3.7057   -1.4000   23.3208 C.ar    1  UNL1        0.0383
      4 C           4.5822   -2.0220   24.3672 C.ar    1  UNL1        0.1410
      5 C           5.5594   -3.0944   23.9863 C.ar    1  UNL1        0.0700
      6 C           5.6600   -3.5448   22.5590 C.ar    1  UNL1        0.0242
      7 C           6.4360   -3.7163   25.0326 C.2     1  UNL1        0.1795
      8 O           7.4131   -4.7887   24.6517 O.2     1  UNL1       -0.2911
      9 C           6.3354   -3.2659   26.4598 C.3     1  UNL1        0.1092
     10 C           5.3583   -2.1935   26.8408 C.3     1  UNL1        0.1436
     11 C           6.2348   -2.8154   27.8870 C.3     1  UNL1        0.0620
     12 C           6.1342   -2.3650   29.3142 C.3     1  UNL1        0.0985
     13 N           5.1571   -1.2925   29.6951 N.am    1  UNL1       -0.2640
     14 C           5.0565   -0.8421   31.1224 C.2     1  UNL1        0.3039
     15 O           4.0794    0.2303   31.5033 O.2     1  UNL1       -0.2526
     16 N           5.9331   -1.4640   32.1687 N.am    1  UNL1       -0.2904
     17 C           4.2805   -0.6706   28.6488 C.3     1  UNL1        0.0985
     18 C           4.3811   -1.1210   27.2217 C.3     1  UNL1        0.0620
     19 O           4.4817   -1.5715   25.7944 O.3     1  UNL1       -0.4819
     20 H           6.5744   -2.1679   31.9187 H       1  UNL1        0.1509
     21 C           5.8325   -1.0136   33.5960 C.3     1  UNL1        0.0734
     22 C           4.6091   -1.0900   34.4604 C.3     1  UNL1        0.0200
     23 C           4.9581   -0.5313   35.8081 C.3     1  UNL1        0.0061
     24 C           6.3973   -0.1096   35.7764 C.3     1  UNL1        0.0240
     25 C           6.9377   -0.4077   34.4093 C.3     1  UNL1        0.0240
     26 C           7.1618    0.5026   36.9124 C.ar    1  UNL1       -0.0224
     27 C           6.6581    1.7547   37.5670 C.ar    1  UNL1       -0.0043
     28 C           7.4226    2.3670   38.7030 C.ar    1  UNL1       -0.0003
     29 C           8.6910    1.7272   39.1845 C.ar    1  UNL1       -0.0000
     30 C           9.1949    0.4751   38.5299 C.ar    1  UNL1       -0.0003
     31 C           8.4303   -0.1371   37.3939 C.ar    1  UNL1       -0.0043
     32 C           4.9846   -3.8239   18.6583 C.3     1  UNL1        0.1816
     33 S           4.8840   -3.3733   20.0855 S.O2    1  UNL1        0.0105
     34 O           3.8453   -2.3645   19.6939 O.2     1  UNL1       -0.1686
     35 O           5.9226   -4.3822   20.4771 O.2     1  UNL1       -0.1686
@<TRIPOS>BOND
     1    32    33    1
     2    33    34    2
     3    33    35    2
     4    33     1    1
     5     1     2   ar
     6     2     3   ar
     7     3     4   ar
     8     4     5   ar
     9     5     6   ar
    10     5     7    1
    11     7     8    2
    12     7     9    1
    13     9    10    1
    14    10    11    1
    15    11    12    1
    16    12    13    1
    17    13    14   am
    18    14    15    2
    19    14    16   am
    20    21    16    1
    21    21    22    1
    22    22    23    1
    23    23    24    1
    24    24    26    1
    25    26    27   ar
    26    27    28   ar
    27    28    29   ar
    28    29    30   ar
    29    30    31   ar
    30    24    25    1
    31    13    17    1
    32    17    18    1
    33    10    19    1
    34     6     1   ar
    35    18    10    1
    36    19     4    1
    37    25    21    1
    38    31    26   ar
    39    16    20    1
@<TRIPOS>MOLECULE
*****
 35 39 0 0 0
SMALL
GASTEIGER

@<TRIPOS>ATOM
      1 C           3.2277    1.8144   36.0803 C.ar    1  UNL1        0.1060
      2 C           4.3142    0.7981   35.8885 C.ar    1  UNL1        0.0215
      3 C           4.5946    0.2490   34.5211 C.ar    1  UNL1        0.0383
      4 C           3.7887    0.7163   33.3454 C.ar    1  UNL1        0.1410
      5 C           2.7023    1.7326   33.5372 C.ar    1  UNL1        0.0700
      6 C           2.4218    2.2817   34.9047 C.ar    1  UNL1        0.0242
      7 C           1.8964    2.1999   32.3616 C.2     1  UNL1        0.1795
      8 O           0.8100    3.2163   32.5533 O.2     1  UNL1       -0.2911
      9 C           2.1769    1.6509   30.9941 C.3     1  UNL1        0.1092
     10 C           3.2633    0.6345   30.8023 C.3     1  UNL1        0.1436
     11 C           2.4574    1.1018   29.6267 C.3     1  UNL1        0.0620
     12 C           2.7379    0.5528   28.2593 C.3     1  UNL1        0.0985
     13 N           3.8243   -0.4636   28.0675 N.am    1  UNL1       -0.2640
     14 C           4.1048   -1.0126   26.7000 C.2     1  UNL1        0.3039
     15 O           5.1912   -2.0290   26.5082 O.2     1  UNL1       -0.2526
     16 N           3.2989   -0.5454   25.5244 N.am    1  UNL1       -0.2904
     17 C           4.6302   -0.9309   29.2431 C.3     1  UNL1        0.0985
     18 C           4.3497   -0.3818   30.6105 C.3     1  UNL1        0.0620
     19 O           4.0692    0.1672   31.9780 O.3     1  UNL1       -0.4819
     20 H           2.5858    0.1217   25.6503 H       1  UNL1        0.1509
     21 C           3.5793   -1.0944   24.1569 C.3     1  UNL1        0.0734
     22 C           4.2322   -2.4100   23.8520 C.3     1  UNL1        0.0200
     23 C           4.3126   -2.5530   22.3609 C.3     1  UNL1        0.0061
     24 C           3.7093   -1.3257   21.7444 C.3     1  UNL1        0.0240
     25 C           3.2562   -0.4243   22.8544 C.3     1  UNL1        0.0240
     26 C           3.5817   -1.0486   20.2759 C.ar    1  UNL1       -0.0224
     27 C           4.4326   -1.7985   19.2943 C.ar    1  UNL1       -0.0043
     28 C           4.3050   -1.5214   17.8257 C.ar    1  UNL1       -0.0003
     29 C           3.3264   -0.4942   17.3386 C.ar    1  UNL1       -0.0000
     30 C           2.4754    0.2559   18.3201 C.ar    1  UNL1       -0.0003
     31 C           2.6032   -0.0214   19.7887 C.ar    1  UNL1       -0.0043
     32 C           2.6667    2.9126   38.8151 C.3     1  UNL1        0.1816
     33 S           2.9472    2.3635   37.4477 S.O2    1  UNL1        0.0105
     34 O           4.1266    1.6127   37.9911 O.2     1  UNL1       -0.1686
     35 O           1.7679    3.1143   36.9043 O.2     1  UNL1       -0.1686
@<TRIPOS>BOND
     1    32    33    1
     2    33    34    2
     3    33    35    2
     4    33     1    1
     5     1     2   ar
     6     2     3   ar
     7     3     4   ar
     8     4     5   ar
     9     5     6   ar
    10     5     7    1
    11     7     8    2
    12     7     9    1
    13     9    10    1
    14    10    11    1
    15    11    12    1
    16    12    13    1
    17    13    14   am
    18    14    15    2
    19    14    16   am
    20    21    16    1
    21    21    22    1
    22    22    23    1
    23    23    24    1
    24    24    26    1
    25    26    27   ar
    26    27    28   ar
    27    28    29   ar
    28    29    30   ar
    29    30    31   ar
    30    24    25    1
    31    13    17    1
    32    17    18    1
    33    10    19    1
    34     6     1   ar
    35    18    10    1
    36    19     4    1
    37    25    21    1
    38    31    26   ar
    39    16    20    1
@<TRIPOS>MOLECULE
*****
 35 39 0 0 0
SMALL
GASTEIGER

@<TRIPOS>ATOM
      1 C           5.1361    4.1585   40.4457 C.ar    1  UNL1        0.1060
      2 C           5.6465    2.8288   39.9751 C.ar    1  UNL1        0.0215
      3 C           5.2097    2.2851   38.6471 C.ar    1  UNL1        0.0383
      4 C           4.2625    3.0711   37.7897 C.ar    1  UNL1        0.1410
      5 C           3.7521    4.4008   38.2603 C.ar    1  UNL1        0.0700
      6 C           4.1889    4.9445   39.5884 C.ar    1  UNL1        0.0242
      7 C           2.8049    5.1867   37.4030 C.2     1  UNL1        0.1795
      8 O           2.2945    6.5164   37.8736 O.2     1  UNL1       -0.2911
      9 C           2.3681    4.6430   36.0749 C.3     1  UNL1        0.1092
     10 C           2.8785    3.3134   35.6043 C.3     1  UNL1        0.1436
     11 C           1.9313    4.0993   34.7470 C.3     1  UNL1        0.0620
     12 C           1.4946    3.5556   33.4190 C.3     1  UNL1        0.0985
     13 N           2.0050    2.2260   32.9484 N.am    1  UNL1       -0.2640
     14 C           1.5682    1.6823   31.6203 C.2     1  UNL1        0.3039
     15 O           2.0786    0.3526   31.1497 O.2     1  UNL1       -0.2526
     16 N           0.6210    2.4682   30.7629 N.am    1  UNL1       -0.2904
     17 C           2.9522    1.4400   33.8057 C.3     1  UNL1        0.0985
     18 C           3.3889    1.9837   35.1337 C.3     1  UNL1        0.0620
     19 O           3.8257    2.5274   36.4617 O.3     1  UNL1       -0.4819
     20 H           0.2860    3.3409   31.0719 H       1  UNL1        0.1509
     21 C           0.1842    1.9245   29.4349 C.3     1  UNL1        0.0734
     22 C          -0.5980    0.6641   29.2124 C.3     1  UNL1        0.0200
     23 C          -0.8128    0.5064   27.7362 C.3     1  UNL1        0.0061
     24 C          -0.1633    1.6694   27.0464 C.3     1  UNL1        0.0240
     25 C           0.4528    2.5458   28.0963 C.3     1  UNL1        0.0240
     26 C          -0.1349    1.9131   25.5667 C.ar    1  UNL1       -0.0224
     27 C           0.7261    1.0605   24.6825 C.ar    1  UNL1       -0.0043
     28 C           0.7545    1.3042   23.2028 C.ar    1  UNL1       -0.0003
     29 C          -0.0782    2.4005   22.6071 C.ar    1  UNL1       -0.0000
     30 C          -0.9393    3.2531   23.4913 C.ar    1  UNL1       -0.0003
     31 C          -0.9676    3.0093   24.9711 C.ar    1  UNL1       -0.0043
     32 C           6.0097    5.2460   43.1018 C.3     1  UNL1        0.1816
     33 S           5.5729    4.7022   41.7737 S.O2    1  UNL1        0.0105
     34 O           5.9066    3.3137   42.2325 O.2     1  UNL1       -0.1686
     35 O           5.2391    6.0908   41.3150 O.2     1  UNL1       -0.1686
@<TRIPOS>BOND
     1    32    33    1
     2    33    34    2
     3    33    35    2
     4    33     1    1
     5     1     2   ar
     6     2     3   ar
     7     3     4   ar
     8     4     5   ar
     9     5     6   ar
    10     5     7    1
    11     7     8    2
    12     7     9    1
    13     9    10    1
    14    10    11    1
    15    11    12    1
    16    12    13    1
    17    13    14   am
    18    14    15    2
    19    14    16   am
    20    21    16    1
    21    21    22    1
    22    22    23    1
    23    23    24    1
    24    24    26    1
    25    26    27   ar
    26    27    28   ar
    27    28    29   ar
    28    29    30   ar
    29    30    31   ar
    30    24    25    1
    31    13    17    1
    32    17    18    1
    33    10    19    1
    34     6     1   ar
    35    18    10    1
    36    19     4    1
    37    25    21    1
    38    31    26   ar
    39    16    20    1
