@<TRIPOS>MOLECULE
*****
 32 34 0 0 0
SMALL
GASTEIGER

@<TRIPOS>ATOM
      1 C          -9.5937  -18.1104   21.7038 C.3     1  UNL1        0.0377
      2 C         -10.1538  -18.9540   20.5972 C.3     1  UNL1        0.0075
      3 C          -9.2320  -19.5943   19.6021 C.3     1  UNL1        0.0219
      4 C          -7.7500  -19.3910   19.7137 C.3     1  UNL1        0.0950
      5 N          -7.1899  -18.5474   20.8203 N.am    1  UNL1       -0.2637
      6 C          -5.7079  -18.3441   20.9319 C.2     1  UNL1        0.3077
      7 O          -5.1479  -17.5005   22.0386 O.2     1  UNL1       -0.2522
      8 N          -4.7860  -18.9844   19.9369 N.am    1  UNL1       -0.2681
      9 C          -8.1117  -17.9071   21.8154 C.3     1  UNL1        0.0989
     10 H          -5.1536  -19.5381   19.2105 H       1  UNL1        0.1564
     11 C          -3.3041  -18.7811   20.0485 C.ar    1  UNL1        0.0516
     12 C          -2.5790  -17.9674   19.0178 C.ar    1  UNL1        0.0156
     13 C          -1.0972  -17.7640   19.1294 C.ar    1  UNL1        0.0127
     14 C          -0.3402  -18.3743   20.2716 C.ar    1  UNL1        0.0578
     15 CL          1.1418  -18.1709   20.3832 Cl      1  UNL1       -0.0822
     16 C          -1.0652  -19.1879   21.3023 C.ar    1  UNL1        0.0127
     17 C          -2.5472  -19.3913   21.1907 C.ar    1  UNL1        0.0156
     18 C         -11.0578  -18.0084   22.0140 C.ar    1  UNL1       -0.0212
     19 C         -12.0228  -17.5841   20.9469 C.ar    1  UNL1       -0.0042
     20 C         -13.4868  -17.4821   21.2571 C.ar    1  UNL1       -0.0004
     21 C         -13.9858  -17.8045   22.6345 C.ar    1  UNL1        0.0038
     22 C         -13.0209  -18.2288   23.7016 C.ar    1  UNL1        0.0711
     23 C         -11.5569  -18.3308   23.3914 C.ar    1  UNL1       -0.0004
     24 C         -13.5199  -18.5511   25.0789 C.3     1  UNL1        0.4186
     25 F         -14.0189  -18.8734   26.4563 F       1  UNL1       -0.1659
     26 F         -14.9143  -18.1934   24.6574 F       1  UNL1       -0.1659
     27 F         -12.1255  -18.9088   25.5004 F       1  UNL1       -0.1659
     28 C          -9.5421  -17.2314   22.9182 C.3     1  UNL1        0.0116
     29 C          -8.6225  -16.0468   22.9481 C.3     1  UNL1        0.0421
     30 O          -6.7958  -14.8356   24.3431 O.co2   1  UNL1       -0.5492
     31 C          -8.1329  -15.5102   24.2605 C.2     1  UNL1        0.0503
     32 O          -8.9807  -15.6483   25.4903 O.co2   1  UNL1       -0.5492
@<TRIPOS>UNITY_ATOM_ATTR
30 1
charge -1
@<TRIPOS>BOND
     1    30    31   ar
     2    31    32   ar
     3    31    29    1
     4    29    28    1
     5    28     1    1
     6     1    18    1
     7    18    19   ar
     8    19    20   ar
     9    20    21   ar
    10    21    22   ar
    11    22    24    1
    12    24    25    1
    13    24    26    1
    14    24    27    1
    15    22    23   ar
    16     1     2    1
    17     2     3    1
    18     3     4    1
    19     4     5    1
    20     5     6   am
    21     6     7    2
    22     6     8   am
    23     8    11    1
    24    11    12   ar
    25    12    13   ar
    26    13    14   ar
    27    14    15    1
    28    14    16   ar
    29    16    17   ar
    30     5     9    1
    31     9     1    1
    32    23    18   ar
    33    17    11   ar
    34     8    10    1
@<TRIPOS>MOLECULE
*****
 32 34 0 0 0
SMALL
GASTEIGER

@<TRIPOS>ATOM
      1 C           4.1397   -1.6222   22.2010 C.3     1  UNL1        0.0377
      2 C           3.2308   -0.5840   22.7890 C.3     1  UNL1        0.0075
      3 C           3.1888   -0.3785   24.2742 C.3     1  UNL1        0.0219
      4 C           4.0557   -1.2113   25.1715 C.3     1  UNL1        0.0950
      5 N           4.9646   -2.2495   24.5834 N.am    1  UNL1       -0.2637
      6 C           5.8316   -3.0823   25.4806 C.2     1  UNL1        0.3077
      7 O           6.7405   -4.1206   24.8925 O.2     1  UNL1       -0.2522
      8 N           5.7895   -2.8768   26.9659 N.am    1  UNL1       -0.2681
      9 C           5.0067   -2.4550   23.0982 C.3     1  UNL1        0.0989
     10 H           5.1930   -2.1953   27.3519 H       1  UNL1        0.1564
     11 C           6.6565   -3.7096   27.8630 C.ar    1  UNL1        0.0516
     12 C           7.9632   -3.1653   28.3593 C.ar    1  UNL1        0.0156
     13 C           8.8302   -3.9980   29.2564 C.ar    1  UNL1        0.0127
     14 C           8.3905   -5.3751   29.6572 C.ar    1  UNL1        0.0578
     15 CL          9.2575   -6.2078   30.5544 Cl      1  UNL1       -0.0822
     16 C           7.0838   -5.9193   29.1609 C.ar    1  UNL1        0.0127
     17 C           6.2168   -5.0865   28.2637 C.ar    1  UNL1        0.0156
     18 C           3.5129   -1.0853   20.9484 C.ar    1  UNL1       -0.0212
     19 C           2.0300   -0.8682   20.8854 C.ar    1  UNL1       -0.0042
     20 C           1.4033   -0.3313   19.6329 C.ar    1  UNL1       -0.0004
     21 C           2.2593   -0.0115   18.4434 C.ar    1  UNL1        0.0038
     22 C           3.7421   -0.2286   18.5064 C.ar    1  UNL1        0.0711
     23 C           4.3689   -0.7655   19.7589 C.ar    1  UNL1       -0.0004
     24 C           4.5982    0.0913   17.3169 C.3     1  UNL1        0.4186
     25 F           5.4542    0.4111   16.1274 F       1  UNL1       -0.1659
     26 F           5.4813    0.9417   18.1811 F       1  UNL1       -0.1659
     27 F           3.7151   -0.7592   16.4527 F       1  UNL1       -0.1659
     28 C           4.8310   -2.4741   21.1779 C.3     1  UNL1        0.0116
     29 C           4.5231   -3.9395   21.0903 C.3     1  UNL1        0.0421
     30 O           4.8876   -5.7103   19.2244 O.co2   1  UNL1       -0.5492
     31 C           4.1225   -4.5445   19.7774 C.2     1  UNL1        0.0503
     32 O           2.9570   -3.9839   19.0177 O.co2   1  UNL1       -0.5492
@<TRIPOS>UNITY_ATOM_ATTR
30 1
charge -1
@<TRIPOS>BOND
     1    30    31   ar
     2    31    32   ar
     3    31    29    1
     4    29    28    1
     5    28     1    1
     6     1    18    1
     7    18    19   ar
     8    19    20   ar
     9    20    21   ar
    10    21    22   ar
    11    22    24    1
    12    24    25    1
    13    24    26    1
    14    24    27    1
    15    22    23   ar
    16     1     2    1
    17     2     3    1
    18     3     4    1
    19     4     5    1
    20     5     6   am
    21     6     7    2
    22     6     8   am
    23     8    11    1
    24    11    12   ar
    25    12    13   ar
    26    13    14   ar
    27    14    15    1
    28    14    16   ar
    29    16    17   ar
    30     5     9    1
    31     9     1    1
    32    23    18   ar
    33    17    11   ar
    34     8    10    1
@<TRIPOS>MOLECULE
*****
 32 34 0 0 0
SMALL
GASTEIGER

@<TRIPOS>ATOM
      1 C           2.7075   -0.2572   21.7541 C.3     1  UNL1        0.0377
      2 C           1.6217    0.3478   20.9144 C.3     1  UNL1        0.0075
      3 C           0.5359    1.1559   21.5610 C.3     1  UNL1        0.0219
      4 C           0.5359    1.3589   23.0472 C.3     1  UNL1        0.0950
      5 N           1.6217    0.7539   23.8868 N.am    1  UNL1       -0.2637
      6 C           1.6217    0.9570   25.3730 C.2     1  UNL1        0.3077
      7 O           2.7075    0.3519   26.2126 O.2     1  UNL1       -0.2522
      8 N           0.5359    1.7651   26.0196 N.am    1  UNL1       -0.2681
      9 C           2.7075   -0.0542   23.2403 C.3     1  UNL1        0.0989
     10 H          -0.1767    2.1622   25.4685 H       1  UNL1        0.1564
     11 C           0.5360    1.9681   27.5057 C.ar    1  UNL1        0.0516
     12 C          -0.0797    0.9362   28.4037 C.ar    1  UNL1        0.0156
     13 C          -0.0797    1.1391   29.8898 C.ar    1  UNL1        0.0127
     14 C           0.5361    2.3740   30.4782 C.ar    1  UNL1        0.0578
     15 CL          0.5361    2.5770   31.9644 Cl      1  UNL1       -0.0822
     16 C           1.1517    3.4059   29.5803 C.ar    1  UNL1        0.0127
     17 C           1.1517    3.2029   28.0941 C.ar    1  UNL1        0.0156
     18 C           3.1363   -0.7271   20.3956 C.ar    1  UNL1       -0.0212
     19 C           3.1998    0.2418   19.2523 C.ar    1  UNL1       -0.0042
     20 C           3.6287   -0.2281   17.8939 C.ar    1  UNL1       -0.0004
     21 C           3.9940   -1.6670   17.6788 C.ar    1  UNL1        0.0038
     22 C           3.9305   -2.6359   18.8221 C.ar    1  UNL1        0.0711
     23 C           3.5017   -2.1660   20.1805 C.ar    1  UNL1       -0.0004
     24 C           4.2958   -4.0748   18.6070 C.3     1  UNL1        0.4186
     25 F           4.6611   -5.5136   18.3919 F       1  UNL1       -0.1659
     26 F           5.6893   -3.6650   18.2326 F       1  UNL1       -0.1659
     27 F           2.9023   -4.4845   18.9814 F       1  UNL1       -0.1659
     28 C           3.9422   -1.0255   22.1219 C.3     1  UNL1        0.0116
     29 C           4.0641   -1.6417   23.4840 C.3     1  UNL1        0.0421
     30 O           5.9030   -2.7626   24.9374 O.co2   1  UNL1       -0.5492
     31 C           5.0326   -2.7635   23.7157 C.2     1  UNL1        0.0503
     32 O           5.1307   -3.8862   22.7257 O.co2   1  UNL1       -0.5492
@<TRIPOS>UNITY_ATOM_ATTR
30 1
charge -1
@<TRIPOS>BOND
     1    30    31   ar
     2    31    32   ar
     3    31    29    1
     4    29    28    1
     5    28     1    1
     6     1    18    1
     7    18    19   ar
     8    19    20   ar
     9    20    21   ar
    10    21    22   ar
    11    22    24    1
    12    24    25    1
    13    24    26    1
    14    24    27    1
    15    22    23   ar
    16     1     2    1
    17     2     3    1
    18     3     4    1
    19     4     5    1
    20     5     6   am
    21     6     7    2
    22     6     8   am
    23     8    11    1
    24    11    12   ar
    25    12    13   ar
    26    13    14   ar
    27    14    15    1
    28    14    16   ar
    29    16    17   ar
    30     5     9    1
    31     9     1    1
    32    23    18   ar
    33    17    11   ar
    34     8    10    1
@<TRIPOS>MOLECULE
*****
 32 34 0 0 0
SMALL
GASTEIGER

@<TRIPOS>ATOM
      1 C           2.2075    0.0512   20.2698 C.3     1  UNL1        0.0377
      2 C           1.9409    0.5008   18.8638 C.3     1  UNL1        0.0075
      3 C           0.9336    1.5804   18.5999 C.3     1  UNL1        0.0219
      4 C           0.1929    2.2106   19.7420 C.3     1  UNL1        0.0950
      5 N           0.4595    1.7610   21.1480 N.am    1  UNL1       -0.2637
      6 C          -0.2811    2.3912   22.2901 C.2     1  UNL1        0.3077
      7 O          -0.0144    1.9416   23.6961 O.2     1  UNL1       -0.2522
      8 N          -1.2884    3.4709   22.0262 N.am    1  UNL1       -0.2681
      9 C           1.4668    0.6814   21.4119 C.3     1  UNL1        0.0989
     10 H          -1.4634    3.7659   21.1034 H       1  UNL1        0.1564
     11 C          -2.0290    4.1009   23.1683 C.ar    1  UNL1        0.0516
     12 C          -1.4118    5.2394   23.9254 C.ar    1  UNL1        0.0156
     13 C          -2.1524    5.8695   25.0675 C.ar    1  UNL1        0.0127
     14 C          -3.5101    5.3612   25.4526 C.ar    1  UNL1        0.0578
     15 CL         -4.2507    5.9914   26.5948 Cl      1  UNL1       -0.0822
     16 C          -4.1272    4.2228   24.6956 C.ar    1  UNL1        0.0127
     17 C          -3.3867    3.5926   23.5534 C.ar    1  UNL1        0.0156
     18 C           3.1551   -0.8429   19.5263 C.ar    1  UNL1       -0.0212
     19 C           4.1504   -0.2527   18.5719 C.ar    1  UNL1       -0.0042
     20 C           5.0979   -1.1469   17.8285 C.ar    1  UNL1       -0.0004
     21 C           5.0501   -2.6312   18.0395 C.ar    1  UNL1        0.0038
     22 C           4.0549   -3.2213   18.9940 C.ar    1  UNL1        0.0711
     23 C           3.1073   -2.3272   19.7374 C.ar    1  UNL1       -0.0004
     24 C           4.0071   -4.7056   19.2051 C.3     1  UNL1        0.4186
     25 F           3.9593   -6.1900   19.4161 F       1  UNL1       -0.1659
     26 F           2.5387   -4.7020   18.8985 F       1  UNL1       -0.1659
     27 F           5.4754   -4.7093   19.5116 F       1  UNL1       -0.1659
     28 C           2.8032   -0.7088   21.4176 C.3     1  UNL1        0.0116
     29 C           3.2096    0.0156   22.6666 C.3     1  UNL1        0.0421
     30 O           3.0434   -0.2500   25.2457 O.co2   1  UNL1       -0.5492
     31 C           3.5164   -0.7566   23.9154 C.2     1  UNL1        0.0503
     32 O           4.2962   -2.0354   23.8339 O.co2   1  UNL1       -0.5492
@<TRIPOS>UNITY_ATOM_ATTR
30 1
charge -1
@<TRIPOS>BOND
     1    30    31   ar
     2    31    32   ar
     3    31    29    1
     4    29    28    1
     5    28     1    1
     6     1    18    1
     7    18    19   ar
     8    19    20   ar
     9    20    21   ar
    10    21    22   ar
    11    22    24    1
    12    24    25    1
    13    24    26    1
    14    24    27    1
    15    22    23   ar
    16     1     2    1
    17     2     3    1
    18     3     4    1
    19     4     5    1
    20     5     6   am
    21     6     7    2
    22     6     8   am
    23     8    11    1
    24    11    12   ar
    25    12    13   ar
    26    13    14   ar
    27    14    15    1
    28    14    16   ar
    29    16    17   ar
    30     5     9    1
    31     9     1    1
    32    23    18   ar
    33    17    11   ar
    34     8    10    1
@<TRIPOS>MOLECULE
*****
 32 34 0 0 0
SMALL
GASTEIGER

@<TRIPOS>ATOM
      1 C           3.8446   -1.3215   22.0100 C.3     1  UNL1        0.0377
      2 C           4.7753   -2.4297   22.4043 C.3     1  UNL1        0.0075
      3 C           5.0318   -2.7133   23.8547 C.3     1  UNL1        0.0219
      4 C           4.3576   -1.8887   24.9108 C.3     1  UNL1        0.0950
      5 N           3.4269   -0.7804   24.5165 N.am    1  UNL1       -0.2637
      6 C           2.7526    0.0442   25.5727 C.2     1  UNL1        0.3077
      7 O           1.8219    1.1525   25.1783 O.2     1  UNL1       -0.2522
      8 N           3.0092   -0.2394   27.0231 N.am    1  UNL1       -0.2681
      9 C           3.1703   -0.4968   23.0661 C.3     1  UNL1        0.0989
     10 H           3.6201   -0.9668   27.2819 H       1  UNL1        0.1564
     11 C           2.3349    0.5853   28.0791 C.ar    1  UNL1        0.0516
     12 C           3.0465    1.7610   28.6805 C.ar    1  UNL1        0.0156
     13 C           2.3723    2.5857   29.7365 C.ar    1  UNL1        0.0127
     14 C           0.9866    2.2348   30.1913 C.ar    1  UNL1        0.0578
     15 CL          0.3124    3.0595   31.2474 Cl      1  UNL1       -0.0822
     16 C           0.2751    1.0591   29.5899 C.ar    1  UNL1        0.0127
     17 C           0.9493    0.2344   28.5339 C.ar    1  UNL1        0.0156
     18 C           4.2437   -1.8216   20.6532 C.ar    1  UNL1       -0.0212
     19 C           3.9690   -3.2449   20.2678 C.ar    1  UNL1       -0.0042
     20 C           4.3681   -3.7449   18.9111 C.ar    1  UNL1       -0.0004
     21 C           5.0419   -2.8215   17.9398 C.ar    1  UNL1        0.0038
     22 C           5.3165   -1.3982   18.3252 C.ar    1  UNL1        0.0711
     23 C           4.9174   -0.8982   19.6819 C.ar    1  UNL1       -0.0004
     24 C           5.9902   -0.4748   17.3539 C.3     1  UNL1        0.4186
     25 F           6.6640    0.4486   16.3825 F       1  UNL1       -0.1659
     26 F           4.6961   -0.3092   16.6137 F       1  UNL1       -0.1659
     27 F           7.2843   -0.6404   18.0940 F       1  UNL1       -0.1659
     28 C           3.0524   -0.3869   21.1445 C.3     1  UNL1        0.0116
     29 C           1.5610   -0.5236   21.0621 C.3     1  UNL1        0.0421
     30 O           1.2429    0.3668   18.6421 O.co2   1  UNL1       -0.5492
     31 C           0.7868    0.2918   20.0691 C.2     1  UNL1        0.0503
     32 O          -0.4435    1.0320   20.5033 O.co2   1  UNL1       -0.5492
@<TRIPOS>UNITY_ATOM_ATTR
30 1
charge -1
@<TRIPOS>BOND
     1    30    31   ar
     2    31    32   ar
     3    31    29    1
     4    29    28    1
     5    28     1    1
     6     1    18    1
     7    18    19   ar
     8    19    20   ar
     9    20    21   ar
    10    21    22   ar
    11    22    24    1
    12    24    25    1
    13    24    26    1
    14    24    27    1
    15    22    23   ar
    16     1     2    1
    17     2     3    1
    18     3     4    1
    19     4     5    1
    20     5     6   am
    21     6     7    2
    22     6     8   am
    23     8    11    1
    24    11    12   ar
    25    12    13   ar
    26    13    14   ar
    27    14    15    1
    28    14    16   ar
    29    16    17   ar
    30     5     9    1
    31     9     1    1
    32    23    18   ar
    33    17    11   ar
    34     8    10    1
@<TRIPOS>MOLECULE
*****
 32 34 0 0 0
SMALL
GASTEIGER

@<TRIPOS>ATOM
      1 C           2.0705    0.1649   20.9576 C.3     1  UNL1        0.0377
      2 C           3.0613   -0.5362   21.8388 C.3     1  UNL1        0.0075
      3 C           3.0465   -0.3000   23.3201 C.3     1  UNL1        0.0219
      4 C           2.0407    0.6373   23.9200 C.3     1  UNL1        0.0950
      5 N           1.0498    1.3384   23.0388 N.am    1  UNL1       -0.2637
      6 C           0.0440    2.2756   23.6388 C.2     1  UNL1        0.3077
      7 O          -0.9468    2.9767   22.7575 O.2     1  UNL1       -0.2522
      8 N           0.0291    2.5118   25.1200 N.am    1  UNL1       -0.2681
      9 C           1.0647    1.1022   21.5576 C.3     1  UNL1        0.0989
     10 H           0.6795    2.0516   25.6984 H       1  UNL1        0.1564
     11 C          -0.9766    3.4491   25.7199 C.ar    1  UNL1        0.0516
     12 C          -2.3826    2.9855   25.9621 C.ar    1  UNL1        0.0156
     13 C          -3.3884    3.9227   26.5619 C.ar    1  UNL1        0.0127
     14 C          -2.9884    5.3235   26.9196 C.ar    1  UNL1        0.0578
     15 CL         -3.9943    6.2607   27.5195 Cl      1  UNL1       -0.0822
     16 C          -1.5825    5.7870   26.6775 C.ar    1  UNL1        0.0127
     17 C          -0.5767    4.8497   26.0776 C.ar    1  UNL1        0.0156
     18 C           2.8229   -0.6240   19.9273 C.ar    1  UNL1       -0.0212
     19 C           3.4052    0.0681   18.7307 C.ar    1  UNL1       -0.0042
     20 C           4.1576   -0.7209   17.7004 C.ar    1  UNL1       -0.0004
     21 C           4.3276   -2.2019   17.8668 C.ar    1  UNL1        0.0038
     22 C           3.7453   -2.8940   19.0634 C.ar    1  UNL1        0.0711
     23 C           2.9929   -2.1050   20.0936 C.ar    1  UNL1       -0.0004
     24 C           3.9153   -4.3750   19.2297 C.3     1  UNL1        0.4186
     25 F           4.0853   -5.8560   19.3960 F       1  UNL1       -0.1659
     26 F           2.4973   -4.5873   18.7891 F       1  UNL1       -0.1659
     27 F           5.3333   -4.1627   19.6703 F       1  UNL1       -0.1659
     28 C           1.3409    0.5921   19.7185 C.3     1  UNL1        0.0116
     29 C           0.6410    1.9182   19.6798 C.3     1  UNL1        0.0421
     30 O           2.1916    3.4148   18.2287 O.co2   1  UNL1       -0.5492
     31 C           0.8367    2.8356   18.5093 C.2     1  UNL1        0.0503
     32 O          -0.3225    3.1737   17.6195 O.co2   1  UNL1       -0.5492
@<TRIPOS>UNITY_ATOM_ATTR
30 1
charge -1
@<TRIPOS>BOND
     1    30    31   ar
     2    31    32   ar
     3    31    29    1
     4    29    28    1
     5    28     1    1
     6     1    18    1
     7    18    19   ar
     8    19    20   ar
     9    20    21   ar
    10    21    22   ar
    11    22    24    1
    12    24    25    1
    13    24    26    1
    14    24    27    1
    15    22    23   ar
    16     1     2    1
    17     2     3    1
    18     3     4    1
    19     4     5    1
    20     5     6   am
    21     6     7    2
    22     6     8   am
    23     8    11    1
    24    11    12   ar
    25    12    13   ar
    26    13    14   ar
    27    14    15    1
    28    14    16   ar
    29    16    17   ar
    30     5     9    1
    31     9     1    1
    32    23    18   ar
    33    17    11   ar
    34     8    10    1
@<TRIPOS>MOLECULE
*****
 32 34 0 0 0
SMALL
GASTEIGER

@<TRIPOS>ATOM
      1 C           4.4319   -2.0181   23.9369 C.3     1  UNL1        0.0377
      2 C           5.4134   -3.0348   23.4340 C.3     1  UNL1        0.0075
      3 C           6.4361   -3.6148   24.3654 C.3     1  UNL1        0.0219
      4 C           6.4774   -3.1780   25.7998 C.3     1  UNL1        0.0950
      5 N           5.4960   -2.1612   26.3028 N.am    1  UNL1       -0.2637
      6 C           5.5373   -1.7244   27.7372 C.2     1  UNL1        0.3077
      7 O           4.5558   -0.7077   28.2401 O.2     1  UNL1       -0.2522
      8 N           6.5600   -2.3044   28.6686 N.am    1  UNL1       -0.2681
      9 C           4.4732   -1.5813   25.3713 C.3     1  UNL1        0.0989
     10 H           7.2042   -2.9717   28.3386 H       1  UNL1        0.1564
     11 C           6.6013   -1.8676   30.1030 C.ar    1  UNL1        0.0516
     12 C           6.0672   -2.7684   31.1770 C.ar    1  UNL1        0.0156
     13 C           6.1084   -2.3317   32.6113 C.ar    1  UNL1        0.0127
     14 C           6.6836   -0.9940   32.9718 C.ar    1  UNL1        0.0578
     15 CL          6.7248   -0.5573   34.4063 Cl      1  UNL1       -0.0822
     16 C           7.2177   -0.0932   31.8979 C.ar    1  UNL1        0.0127
     17 C           7.1765   -0.5300   30.4635 C.ar    1  UNL1        0.0156
     18 C           3.9973   -2.1132   22.5043 C.ar    1  UNL1       -0.0212
     19 C           3.1413   -1.0360   21.9072 C.ar    1  UNL1       -0.0042
     20 C           2.7067   -1.1312   20.4747 C.ar    1  UNL1       -0.0004
     21 C           3.1282   -2.3036   19.6394 C.ar    1  UNL1        0.0038
     22 C           3.9843   -3.3808   20.2365 C.ar    1  UNL1        0.0711
     23 C           4.4188   -3.2856   21.6690 C.ar    1  UNL1       -0.0004
     24 C           4.4058   -4.5533   19.4012 C.3     1  UNL1        0.4186
     25 F           4.8273   -5.7257   18.5659 F       1  UNL1       -0.1659
     26 F           3.0046   -4.6878   18.8831 F       1  UNL1       -0.1659
     27 F           5.8070   -4.4187   19.9194 F       1  UNL1       -0.1659
     28 C           3.2995   -1.0344   23.9423 C.3     1  UNL1        0.0116
     29 C           3.1513   -0.0676   25.0796 C.3     1  UNL1        0.0421
     30 O           2.5096    2.4002   25.5777 O.co2   1  UNL1       -0.5492
     31 C           2.1753    1.0669   24.9773 C.2     1  UNL1        0.0503
     32 O           0.8652    0.8680   24.2745 O.co2   1  UNL1       -0.5492
@<TRIPOS>UNITY_ATOM_ATTR
30 1
charge -1
@<TRIPOS>BOND
     1    30    31   ar
     2    31    32   ar
     3    31    29    1
     4    29    28    1
     5    28     1    1
     6     1    18    1
     7    18    19   ar
     8    19    20   ar
     9    20    21   ar
    10    21    22   ar
    11    22    24    1
    12    24    25    1
    13    24    26    1
    14    24    27    1
    15    22    23   ar
    16     1     2    1
    17     2     3    1
    18     3     4    1
    19     4     5    1
    20     5     6   am
    21     6     7    2
    22     6     8   am
    23     8    11    1
    24    11    12   ar
    25    12    13   ar
    26    13    14   ar
    27    14    15    1
    28    14    16   ar
    29    16    17   ar
    30     5     9    1
    31     9     1    1
    32    23    18   ar
    33    17    11   ar
    34     8    10    1
@<TRIPOS>MOLECULE
*****
 32 34 0 0 0
SMALL
GASTEIGER

@<TRIPOS>ATOM
      1 C           5.9534   -3.4267   23.8502 C.3     1  UNL1        0.0377
      2 C           6.5289   -3.4862   25.2341 C.3     1  UNL1        0.0075
      3 C           5.9994   -2.5804   26.3061 C.3     1  UNL1        0.0219
      4 C           4.8944   -1.6152   25.9941 C.3     1  UNL1        0.0950
      5 N           4.3189   -1.5557   24.6102 N.am    1  UNL1       -0.2637
      6 C           3.2139   -0.5904   24.2983 C.2     1  UNL1        0.3077
      7 O           2.6385   -0.5310   22.9143 O.2     1  UNL1       -0.2522
      8 N           2.6844    0.3153   25.3703 N.am    1  UNL1       -0.2681
      9 C           4.8484   -2.4614   23.5382 C.3     1  UNL1        0.0989
     10 H           3.0621    0.2763   26.2786 H       1  UNL1        0.1564
     11 C           1.5794    1.2806   25.0583 C.ar    1  UNL1        0.0516
     12 C           1.8095    2.3926   24.0781 C.ar    1  UNL1        0.0156
     13 C           0.7047    3.3578   23.7661 C.ar    1  UNL1        0.0127
     14 C          -0.6304    3.2111   24.4341 C.ar    1  UNL1        0.0578
     15 CL         -1.7353    4.1764   24.1220 Cl      1  UNL1       -0.0822
     16 C          -0.8605    2.0992   25.4142 C.ar    1  UNL1        0.0127
     17 C           0.2445    1.1339   25.7263 C.ar    1  UNL1        0.0156
     18 C           6.9827   -4.5009   23.6583 C.ar    1  UNL1       -0.0212
     19 C           7.8659   -4.4854   22.4460 C.ar    1  UNL1       -0.0042
     20 C           8.8951   -5.5596   22.2542 C.ar    1  UNL1       -0.0004
     21 C           9.0412   -6.6492   23.2747 C.ar    1  UNL1        0.0038
     22 C           8.1580   -6.6647   24.4870 C.ar    1  UNL1        0.0711
     23 C           7.1287   -5.5905   24.6788 C.ar    1  UNL1       -0.0004
     24 C           8.3040   -7.7543   25.5074 C.3     1  UNL1        0.4186
     25 F           8.4501   -8.8440   26.5279 F       1  UNL1       -0.1659
     26 F           7.1174   -7.2169   26.2511 F       1  UNL1       -0.1659
     27 F           9.4906   -8.2918   24.7638 F       1  UNL1       -0.1659
     28 C           5.7354   -3.7403   22.3996 C.3     1  UNL1        0.0116
     29 C           4.3421   -3.9043   21.8689 C.3     1  UNL1        0.0421
     30 O           3.4285   -2.9415   19.6354 O.co2   1  UNL1       -0.5492
     31 C           4.1129   -4.0406   20.3927 C.2     1  UNL1        0.0503
     32 O           4.5682   -5.2760   19.6740 O.co2   1  UNL1       -0.5492
@<TRIPOS>UNITY_ATOM_ATTR
30 1
charge -1
@<TRIPOS>BOND
     1    30    31   ar
     2    31    32   ar
     3    31    29    1
     4    29    28    1
     5    28     1    1
     6     1    18    1
     7    18    19   ar
     8    19    20   ar
     9    20    21   ar
    10    21    22   ar
    11    22    24    1
    12    24    25    1
    13    24    26    1
    14    24    27    1
    15    22    23   ar
    16     1     2    1
    17     2     3    1
    18     3     4    1
    19     4     5    1
    20     5     6   am
    21     6     7    2
    22     6     8   am
    23     8    11    1
    24    11    12   ar
    25    12    13   ar
    26    13    14   ar
    27    14    15    1
    28    14    16   ar
    29    16    17   ar
    30     5     9    1
    31     9     1    1
    32    23    18   ar
    33    17    11   ar
    34     8    10    1
@<TRIPOS>MOLECULE
*****
 32 34 0 0 0
SMALL
GASTEIGER

@<TRIPOS>ATOM
      1 C          -9.8414  -17.8543   22.4087 C.3     1  UNL1        0.0377
      2 C          -9.9813  -17.1848   23.7436 C.3     1  UNL1        0.0075
      3 C          -8.7612  -16.7133   24.4778 C.3     1  UNL1        0.0219
      4 C          -7.4011  -16.9113   23.8769 C.3     1  UNL1        0.0950
      5 N          -7.2612  -17.5808   22.5419 N.am    1  UNL1       -0.2637
      6 C          -5.9011  -17.7787   21.9410 C.2     1  UNL1        0.3077
      7 O          -5.7613  -18.4482   20.6060 O.2     1  UNL1       -0.2522
      8 N          -4.6810  -17.3072   22.6751 N.am    1  UNL1       -0.2681
      9 C          -8.4813  -18.0523   21.8078 C.3     1  UNL1        0.0989
     10 H          -4.7728  -16.8678   23.5514 H       1  UNL1        0.1564
     11 C          -3.3210  -17.5052   22.0742 C.ar    1  UNL1        0.0516
     12 C          -2.4995  -16.3170   21.6698 C.ar    1  UNL1        0.0156
     13 C          -1.1396  -16.5149   21.0689 C.ar    1  UNL1        0.0127
     14 C          -0.6009  -17.9010   20.8723 C.ar    1  UNL1        0.0578
     15 CL          0.7591  -18.0990   20.2713 Cl      1  UNL1       -0.0822
     16 C          -1.4223  -19.0892   21.2767 C.ar    1  UNL1        0.0127
     17 C          -2.7824  -18.8913   21.8776 C.ar    1  UNL1        0.0156
     18 C         -11.3328  -17.8936   22.5647 C.ar    1  UNL1       -0.0212
     19 C         -12.2178  -17.6159   21.3859 C.ar    1  UNL1       -0.0042
     20 C         -13.7091  -17.6552   21.5420 C.ar    1  UNL1       -0.0004
     21 C         -14.3154  -17.9722   22.8769 C.ar    1  UNL1        0.0038
     22 C         -13.4304  -18.2498   24.0557 C.ar    1  UNL1        0.0711
     23 C         -11.9391  -18.2105   23.8996 C.ar    1  UNL1       -0.0004
     24 C         -14.0367  -18.5668   25.3906 C.3     1  UNL1        0.4186
     25 F         -14.6430  -18.8837   26.7255 F       1  UNL1       -0.1659
     26 F         -15.4065  -18.5105   24.7818 F       1  UNL1       -0.1659
     27 F         -12.6669  -18.6230   25.9994 F       1  UNL1       -0.1659
     28 C         -10.2194  -18.5374   21.1279 C.3     1  UNL1        0.0116
     29 C          -9.2018  -19.3483   20.3816 C.3     1  UNL1        0.0421
     30 O          -8.5953  -20.9030   18.3903 O.co2   1  UNL1       -0.5492
     31 C          -9.5588  -19.9721   19.0650 C.2     1  UNL1        0.0503
     32 O         -10.8793  -19.6649   18.4231 O.co2   1  UNL1       -0.5492
@<TRIPOS>UNITY_ATOM_ATTR
30 1
charge -1
@<TRIPOS>BOND
     1    30    31   ar
     2    31    32   ar
     3    31    29    1
     4    29    28    1
     5    28     1    1
     6     1    18    1
     7    18    19   ar
     8    19    20   ar
     9    20    21   ar
    10    21    22   ar
    11    22    24    1
    12    24    25    1
    13    24    26    1
    14    24    27    1
    15    22    23   ar
    16     1     2    1
    17     2     3    1
    18     3     4    1
    19     4     5    1
    20     5     6   am
    21     6     7    2
    22     6     8   am
    23     8    11    1
    24    11    12   ar
    25    12    13   ar
    26    13    14   ar
    27    14    15    1
    28    14    16   ar
    29    16    17   ar
    30     5     9    1
    31     9     1    1
    32    23    18   ar
    33    17    11   ar
    34     8    10    1
