@<TRIPOS>MOLECULE
*****
 27 30 0 0 0
SMALL
GASTEIGER

@<TRIPOS>ATOM
      1 C          -5.3795  -18.3790   22.2618 C.2     1  UNL1        0.1394
      2 C          -4.3969  -19.1075   21.3937 C.2     1  UNL1        0.1224
      3 C          -4.8791  -20.1404   20.4187 C.2     1  UNL1        0.3253
      4 N          -3.8964  -20.8689   19.5506 N.pl3   1  UNL1       -0.2459
      5 N          -6.3440  -20.4448   20.3118 N.2     1  UNL1        0.0019
      6 C          -7.3266  -19.7163   21.1799 C.2     1  UNL1        0.3660
      7 N          -8.8196  -19.8026   21.2967 N.2     1  UNL1       -0.0380
      8 C          -9.2601  -18.8230   22.3438 C.2     1  UNL1        0.1900
      9 C          -8.0393  -18.1313   22.8742 C.2     1  UNL1        0.0396
     10 C          -6.8444  -18.6834   22.1549 C.3     1  UNL1        0.1944
     11 H          -2.9349  -20.6691   19.6207 H       1  UNL1        0.2884
     12 H          -4.2128  -21.5468   18.9106 H       1  UNL1        0.2884
     13 C         -10.6732  -18.5782   22.7833 C.ar    1  UNL1        0.0429
     14 C         -11.6355  -17.8866   21.8637 C.ar    1  UNL1        0.0060
     15 C         -13.0486  -17.6417   22.3032 C.ar    1  UNL1        0.0298
     16 C         -13.4994  -18.0884   23.6623 C.ar    1  UNL1        0.1401
     17 F         -14.9125  -17.8436   24.1018 F       1  UNL1       -0.2042
     18 C         -12.5371  -18.7800   24.5819 C.ar    1  UNL1        0.0298
     19 C         -11.1240  -19.0249   24.1424 C.ar    1  UNL1        0.0060
     20 C          -8.0174  -17.0733   23.9373 C.ar    1  UNL1        0.0037
     21 C          -7.5577  -15.6849   23.6043 C.ar    1  UNL1        0.0205
     22 C          -7.5357  -14.6269   24.6674 C.ar    1  UNL1        0.0989
     23 N          -7.9734  -14.9573   26.0635 N.ar    1  UNL1       -0.2423
     24 C          -8.4331  -16.3457   26.3965 C.ar    1  UNL1        0.0989
     25 C          -8.4551  -17.4037   25.3335 C.ar    1  UNL1        0.0205
     26 C          -3.5454  -16.7208   23.0596 C.3     1  UNL1        0.2520
     27 O          -4.8973  -17.3461   23.2367 O.2     1  UNL1       -0.4745
@<TRIPOS>BOND
     1    26    27    1
     2    27     1    1
     3     1     2    2
     4     2     3    1
     5     3     4    1
     6     3     5    2
     7     5     6    1
     8     6     7    2
     9     7     8    1
    10     8    13    1
    11    13    14   ar
    12    14    15   ar
    13    15    16   ar
    14    16    17    1
    15    16    18   ar
    16    18    19   ar
    17     8     9    2
    18     9    20    1
    19    20    21   ar
    20    21    22   ar
    21    22    23   ar
    22    23    24   ar
    23    24    25   ar
    24     9    10    1
    25    10     1    1
    26    10     6    1
    27    19    13   ar
    28    25    20   ar
    29     4    11    1
    30     4    12    1
@<TRIPOS>MOLECULE
*****
 27 30 0 0 0
SMALL
GASTEIGER

@<TRIPOS>ATOM
      1 C           6.1022   -3.6603   23.8667 C.2     1  UNL1        0.1394
      2 C           6.5755   -3.8708   25.2744 C.2     1  UNL1        0.1224
      3 C           6.0822   -2.9767   26.3731 C.2     1  UNL1        0.3253
      4 N           6.5555   -3.1873   27.7809 N.pl3   1  UNL1       -0.2459
      5 N           5.1157   -1.8720   26.0641 N.2     1  UNL1        0.0019
      6 C           4.6425   -1.6615   24.6564 C.2     1  UNL1        0.3660
      7 N           3.6995   -0.6630   24.0533 N.2     1  UNL1       -0.0380
      8 C           3.6099   -0.9400   22.5818 C.2     1  UNL1        0.1900
      9 C           4.4976   -2.1097   22.2755 C.2     1  UNL1        0.0396
     10 C           5.1357   -2.5556   23.5577 C.3     1  UNL1        0.1944
     11 H           7.1899   -3.9123   27.9837 H       1  UNL1        0.2884
     12 H           6.2318   -2.6004   28.5020 H       1  UNL1        0.2884
     13 C           2.7787   -0.1806   21.5907 C.ar    1  UNL1        0.0429
     14 C           2.9504    1.3027   21.4480 C.ar    1  UNL1        0.0060
     15 C           2.1191    2.0620   20.4569 C.ar    1  UNL1        0.0298
     16 C           1.1162    1.3381   19.6083 C.ar    1  UNL1        0.1401
     17 F           0.2849    2.0975   18.6172 F       1  UNL1       -0.2042
     18 C           0.9445   -0.1451   19.7510 C.ar    1  UNL1        0.0298
     19 C           1.7757   -0.9045   20.7421 C.ar    1  UNL1        0.0060
     20 C           4.7098   -2.7255   20.9243 C.ar    1  UNL1        0.0037
     21 C           5.6101   -2.0567   19.9283 C.ar    1  UNL1        0.0205
     22 C           5.8223   -2.6724   18.5771 C.ar    1  UNL1        0.0989
     23 N           5.1343   -3.9571   18.2219 N.ar    1  UNL1       -0.2423
     24 C           4.2339   -4.6260   19.2179 C.ar    1  UNL1        0.0989
     25 C           4.0217   -4.0102   20.5691 C.ar    1  UNL1        0.0205
     26 C           7.8880   -4.2452   22.0726 C.3     1  UNL1        0.2520
     27 O           6.5955   -4.5545   22.7680 O.2     1  UNL1       -0.4745
@<TRIPOS>BOND
     1    26    27    1
     2    27     1    1
     3     1     2    2
     4     2     3    1
     5     3     4    1
     6     3     5    2
     7     5     6    1
     8     6     7    2
     9     7     8    1
    10     8    13    1
    11    13    14   ar
    12    14    15   ar
    13    15    16   ar
    14    16    17    1
    15    16    18   ar
    16    18    19   ar
    17     8     9    2
    18     9    20    1
    19    20    21   ar
    20    21    22   ar
    21    22    23   ar
    22    23    24   ar
    23    24    25   ar
    24     9    10    1
    25    10     1    1
    26    10     6    1
    27    19    13   ar
    28    25    20   ar
    29     4    11    1
    30     4    12    1
@<TRIPOS>MOLECULE
*****
 27 30 0 0 0
SMALL
GASTEIGER

@<TRIPOS>ATOM
      1 C           4.5414    0.4089   36.3151 C.2     1  UNL1        0.1394
      2 C           4.0501    1.0821   37.5623 C.2     1  UNL1        0.1224
      3 C           2.9552    2.1041   37.4813 C.2     1  UNL1        0.3253
      4 N           2.4640    2.7773   38.7286 N.pl3   1  UNL1       -0.2459
      5 N           2.3515    2.4530   36.1533 N.2     1  UNL1        0.0019
      6 C           2.8428    1.7798   34.9061 C.2     1  UNL1        0.3660
      7 N           2.4427    1.9175   33.4670 N.2     1  UNL1       -0.0380
      8 C           3.2903    0.9806   32.6585 C.2     1  UNL1        0.1900
      9 C           4.2143    0.2639   33.5979 C.2     1  UNL1        0.0396
     10 C           3.9377    0.7578   34.9870 C.3     1  UNL1        0.1944
     11 H           2.8602    2.5483   39.6003 H       1  UNL1        0.2884
     12 H           1.7453    3.4481   38.6755 H       1  UNL1        0.2884
     13 C           3.2254    0.7934   31.1717 C.ar    1  UNL1        0.0429
     14 C           3.8910    1.7825   30.2614 C.ar    1  UNL1        0.0060
     15 C           3.8261    1.5953   28.7746 C.ar    1  UNL1        0.0298
     16 C           3.0956    0.4189   28.1980 C.ar    1  UNL1        0.1401
     17 F           3.0307    0.2317   26.7111 F       1  UNL1       -0.2042
     18 C           2.4300   -0.5702   29.1082 C.ar    1  UNL1        0.0298
     19 C           2.4949   -0.3830   30.5951 C.ar    1  UNL1        0.0060
     20 C           5.2356   -0.7660   33.2154 C.ar    1  UNL1        0.0037
     21 C           4.8167   -2.1873   32.9826 C.ar    1  UNL1        0.0205
     22 C           5.8380   -3.2172   32.6001 C.ar    1  UNL1        0.0989
     23 N           7.2783   -2.8258   32.4505 N.ar    1  UNL1       -0.2423
     24 C           7.6972   -1.4044   32.6833 C.ar    1  UNL1        0.0989
     25 C           6.6759   -0.3745   33.0658 C.ar    1  UNL1        0.0205
     26 C           7.0257   -0.1953   36.7766 C.3     1  UNL1        0.2520
     27 O           5.6363   -0.6132   36.3960 O.2     1  UNL1       -0.4745
@<TRIPOS>BOND
     1    26    27    1
     2    27     1    1
     3     1     2    2
     4     2     3    1
     5     3     4    1
     6     3     5    2
     7     5     6    1
     8     6     7    2
     9     7     8    1
    10     8    13    1
    11    13    14   ar
    12    14    15   ar
    13    15    16   ar
    14    16    17    1
    15    16    18   ar
    16    18    19   ar
    17     8     9    2
    18     9    20    1
    19    20    21   ar
    20    21    22   ar
    21    22    23   ar
    22    23    24   ar
    23    24    25   ar
    24     9    10    1
    25    10     1    1
    26    10     6    1
    27    19    13   ar
    28    25    20   ar
    29     4    11    1
    30     4    12    1
@<TRIPOS>MOLECULE
*****
 27 30 0 0 0
SMALL
GASTEIGER

@<TRIPOS>ATOM
      1 C           7.1523   -3.1794   23.4458 C.2     1  UNL1        0.1394
      2 C           8.1531   -4.2950   23.3865 C.2     1  UNL1        0.1224
      3 C           8.3120   -5.0938   22.1268 C.2     1  UNL1        0.3253
      4 N           9.3129   -6.2095   22.0674 N.pl3   1  UNL1       -0.2459
      5 N           7.4701   -4.7769   20.9265 N.2     1  UNL1        0.0019
      6 C           6.4693   -3.6612   20.9859 C.2     1  UNL1        0.3660
      7 N           5.5065   -3.1213   19.9702 N.2     1  UNL1       -0.0380
      8 C           4.7526   -1.9889   20.6021 C.2     1  UNL1        0.1900
      9 C           5.2494   -1.8290   22.0083 C.2     1  UNL1        0.0396
     10 C           6.3103   -2.8624   22.2456 C.3     1  UNL1        0.1944
     11 H           9.8654   -6.4175   22.8552 H       1  UNL1        0.2884
     12 H           9.4172   -6.7338   21.2407 H       1  UNL1        0.2884
     13 C           3.6886   -1.1618   19.9434 C.ar    1  UNL1        0.0429
     14 C           2.2833   -1.1923   20.4670 C.ar    1  UNL1        0.0060
     15 C           1.2194   -0.3651   19.8083 C.ar    1  UNL1        0.0298
     16 C           1.5608    0.4925   18.6260 C.ar    1  UNL1        0.1401
     17 F           0.4968    1.3196   17.9673 F       1  UNL1       -0.2042
     18 C           2.9660    0.5230   18.1024 C.ar    1  UNL1        0.0298
     19 C           4.0300   -0.3042   18.7611 C.ar    1  UNL1        0.0060
     20 C           4.7695   -0.8137   23.0028 C.ar    1  UNL1        0.0037
     21 C           3.6728   -1.1652   23.9638 C.ar    1  UNL1        0.0205
     22 C           3.1929   -0.1500   24.9582 C.ar    1  UNL1        0.0989
     23 N           3.8098    1.2169   24.9918 N.ar    1  UNL1       -0.2423
     24 C           4.9065    1.5685   24.0308 C.ar    1  UNL1        0.0989
     25 C           5.3864    0.5532   23.0363 C.ar    1  UNL1        0.0205
     26 C           7.1081   -3.0547   26.0405 C.3     1  UNL1        0.2520
     27 O           6.9933   -2.3806   24.7055 O.2     1  UNL1       -0.4745
@<TRIPOS>BOND
     1    26    27    1
     2    27     1    1
     3     1     2    2
     4     2     3    1
     5     3     4    1
     6     3     5    2
     7     5     6    1
     8     6     7    2
     9     7     8    1
    10     8    13    1
    11    13    14   ar
    12    14    15   ar
    13    15    16   ar
    14    16    17    1
    15    16    18   ar
    16    18    19   ar
    17     8     9    2
    18     9    20    1
    19    20    21   ar
    20    21    22   ar
    21    22    23   ar
    22    23    24   ar
    23    24    25   ar
    24     9    10    1
    25    10     1    1
    26    10     6    1
    27    19    13   ar
    28    25    20   ar
    29     4    11    1
    30     4    12    1
@<TRIPOS>MOLECULE
*****
 27 30 0 0 0
SMALL
GASTEIGER

@<TRIPOS>ATOM
      1 C           0.0979    2.5767   23.0365 C.2     1  UNL1        0.1394
      2 C          -1.1820    3.3543   22.9526 C.2     1  UNL1        0.1224
      3 C          -1.9813    3.3484   21.6833 C.2     1  UNL1        0.3253
      4 N          -3.2613    4.1261   21.5994 N.pl3   1  UNL1       -0.2459
      5 N          -1.5006    2.5650   20.4979 N.2     1  UNL1        0.0019
      6 C          -0.2207    1.7875   20.5818 C.2     1  UNL1        0.3660
      7 N           0.4991    0.9285   19.5847 N.2     1  UNL1       -0.0380
      8 C           1.7432    0.4035   20.2378 C.2     1  UNL1        0.1900
      9 C           1.7923    0.9379   21.6384 C.2     1  UNL1        0.0396
     10 C           0.5786    1.7933   21.8511 C.3     1  UNL1        0.1944
     11 H          -3.5768    4.6403   22.3774 H       1  UNL1        0.2884
     12 H          -3.7859    4.1222   20.7663 H       1  UNL1        0.2884
     13 C           2.7597   -0.4978   19.6018 C.ar    1  UNL1        0.0429
     14 C           3.7056    0.0468   18.5729 C.ar    1  UNL1        0.0060
     15 C           4.7221   -0.8545   17.9369 C.ar    1  UNL1        0.0298
     16 C           4.7927   -2.3003   18.3299 C.ar    1  UNL1        0.1401
     17 F           5.8092   -3.2016   17.6939 F       1  UNL1       -0.2042
     18 C           3.8469   -2.8449   19.3588 C.ar    1  UNL1        0.0298
     19 C           2.8304   -1.9437   19.9947 C.ar    1  UNL1        0.0060
     20 C           2.8666    0.6650   22.6491 C.ar    1  UNL1        0.0037
     21 C           2.7821   -0.5504   23.5240 C.ar    1  UNL1        0.0205
     22 C           3.8563   -0.8233   24.5346 C.ar    1  UNL1        0.0989
     23 N           5.0152    0.1192   24.6704 N.ar    1  UNL1       -0.2423
     24 C           5.0999    1.3347   23.7956 C.ar    1  UNL1        0.0989
     25 C           4.0256    1.6077   22.7849 C.ar    1  UNL1        0.0205
     26 C           0.5106    1.6800   25.4397 C.3     1  UNL1        0.2520
     27 O           0.8972    2.5825   24.3058 O.2     1  UNL1       -0.4745
@<TRIPOS>BOND
     1    26    27    1
     2    27     1    1
     3     1     2    2
     4     2     3    1
     5     3     4    1
     6     3     5    2
     7     5     6    1
     8     6     7    2
     9     7     8    1
    10     8    13    1
    11    13    14   ar
    12    14    15   ar
    13    15    16   ar
    14    16    17    1
    15    16    18   ar
    16    18    19   ar
    17     8     9    2
    18     9    20    1
    19    20    21   ar
    20    21    22   ar
    21    22    23   ar
    22    23    24   ar
    23    24    25   ar
    24     9    10    1
    25    10     1    1
    26    10     6    1
    27    19    13   ar
    28    25    20   ar
    29     4    11    1
    30     4    12    1
@<TRIPOS>MOLECULE
*****
 27 30 0 0 0
SMALL
GASTEIGER

@<TRIPOS>ATOM
      1 C           3.3292   -1.7334   20.5266 C.2     1  UNL1        0.1394
      2 C           3.4669   -2.7402   19.4232 C.2     1  UNL1        0.1224
      3 C           4.1923   -4.0296   19.6706 C.2     1  UNL1        0.3253
      4 N           4.3300   -5.0363   18.5672 N.pl3   1  UNL1       -0.2459
      5 N           4.7800   -4.3123   21.0214 N.2     1  UNL1        0.0019
      6 C           4.6423   -3.3055   22.1248 C.2     1  UNL1        0.3660
      7 N           5.1136   -3.3064   23.5488 N.2     1  UNL1       -0.0380
      8 C           4.6794   -2.0175   24.1816 C.2     1  UNL1        0.1900
      9 C           3.9399   -1.2201   23.1485 C.2     1  UNL1        0.0396
     10 C           3.9169   -2.0161   21.8774 C.3     1  UNL1        0.1944
     11 H           3.9443   -4.8508   17.6806 H       1  UNL1        0.2884
     12 H           4.8061   -5.8826   18.7295 H       1  UNL1        0.2884
     13 C           4.9393   -1.5995   25.5985 C.ar    1  UNL1        0.0429
     14 C           6.3426   -1.3340   26.0568 C.ar    1  UNL1        0.0060
     15 C           6.6024   -0.9160   27.4738 C.ar    1  UNL1        0.0298
     16 C           5.4589   -0.7634   28.4324 C.ar    1  UNL1        0.1401
     17 F           5.7187   -0.3453   29.8493 F       1  UNL1       -0.2042
     18 C           4.0555   -1.0288   27.9741 C.ar    1  UNL1        0.0298
     19 C           3.7957   -1.4468   26.5571 C.ar    1  UNL1        0.0060
     20 C           3.3302    0.1354   23.3511 C.ar    1  UNL1        0.0037
     21 C           1.9332    0.2576   23.8832 C.ar    1  UNL1        0.0205
     22 C           1.3236    1.6131   24.0858 C.ar    1  UNL1        0.0989
     23 N           2.1111    2.8465   23.7561 N.ar    1  UNL1       -0.2423
     24 C           3.5082    2.7243   23.2239 C.ar    1  UNL1        0.0989
     25 C           4.1178    1.3688   23.0214 C.ar    1  UNL1        0.0205
     26 C           1.1041   -0.4172   20.2689 C.3     1  UNL1        0.2520
     27 O           2.6038   -0.4440   20.2792 O.2     1  UNL1       -0.4745
@<TRIPOS>BOND
     1    26    27    1
     2    27     1    1
     3     1     2    2
     4     2     3    1
     5     3     4    1
     6     3     5    2
     7     5     6    1
     8     6     7    2
     9     7     8    1
    10     8    13    1
    11    13    14   ar
    12    14    15   ar
    13    15    16   ar
    14    16    17    1
    15    16    18   ar
    16    18    19   ar
    17     8     9    2
    18     9    20    1
    19    20    21   ar
    20    21    22   ar
    21    22    23   ar
    22    23    24   ar
    23    24    25   ar
    24     9    10    1
    25    10     1    1
    26    10     6    1
    27    19    13   ar
    28    25    20   ar
    29     4    11    1
    30     4    12    1
@<TRIPOS>MOLECULE
*****
 27 30 0 0 0
SMALL
GASTEIGER

@<TRIPOS>ATOM
      1 C          -3.8956    4.0044   24.1358 C.2     1  UNL1        0.1394
      2 C          -5.3876    4.1501   24.1865 C.2     1  UNL1        0.1224
      3 C          -6.2079    3.9004   22.9557 C.2     1  UNL1        0.3253
      4 N          -7.7000    4.0462   23.0064 N.pl3   1  UNL1       -0.2459
      5 N          -5.5361    3.5050   21.6742 N.2     1  UNL1        0.0019
      6 C          -4.0441    3.3592   21.6235 C.2     1  UNL1        0.3660
      7 N          -3.1094    2.9849   20.5116 N.2     1  UNL1       -0.0380
      8 C          -1.7115    3.0032   21.0552 C.2     1  UNL1        0.1900
      9 C          -1.7822    3.3889   22.5031 C.2     1  UNL1        0.0396
     10 C          -3.2239    3.6089   22.8543 C.3     1  UNL1        0.1944
     11 H          -8.1409    4.3058   23.8475 H       1  UNL1        0.2884
     12 H          -8.2383    3.8824   22.1986 H       1  UNL1        0.2884
     13 C          -0.4622    2.6907   20.2860 C.ar    1  UNL1        0.0429
     14 C           0.1899    3.7527   19.4512 C.ar    1  UNL1        0.0060
     15 C           1.4392    3.4402   18.6820 C.ar    1  UNL1        0.0298
     16 C           2.0364    2.0658   18.7477 C.ar    1  UNL1        0.1401
     17 F           3.2857    1.7533   17.9785 F       1  UNL1       -0.2042
     18 C           1.3843    1.0039   19.5825 C.ar    1  UNL1        0.0298
     19 C           0.1350    1.3163   20.3517 C.ar    1  UNL1        0.0060
     20 C          -0.6161    3.5298   23.4360 C.ar    1  UNL1        0.0037
     21 C          -0.2219    2.3856   24.3220 C.ar    1  UNL1        0.0205
     22 C           0.9442    2.5265   25.2549 C.ar    1  UNL1        0.0989
     23 N           1.7162    3.8117   25.3017 N.ar    1  UNL1       -0.2423
     24 C           1.3220    4.9560   24.4156 C.ar    1  UNL1        0.0989
     25 C           0.1559    4.8151   23.4827 C.ar    1  UNL1        0.0205
     26 C          -3.6623    3.9997   26.7233 C.3     1  UNL1        0.2520
     27 O          -3.0754    4.2541   25.3666 O.2     1  UNL1       -0.4745
@<TRIPOS>BOND
     1    26    27    1
     2    27     1    1
     3     1     2    2
     4     2     3    1
     5     3     4    1
     6     3     5    2
     7     5     6    1
     8     6     7    2
     9     7     8    1
    10     8    13    1
    11    13    14   ar
    12    14    15   ar
    13    15    16   ar
    14    16    17    1
    15    16    18   ar
    16    18    19   ar
    17     8     9    2
    18     9    20    1
    19    20    21   ar
    20    21    22   ar
    21    22    23   ar
    22    23    24   ar
    23    24    25   ar
    24     9    10    1
    25    10     1    1
    26    10     6    1
    27    19    13   ar
    28    25    20   ar
    29     4    11    1
    30     4    12    1
@<TRIPOS>MOLECULE
*****
 27 30 0 0 0
SMALL
GASTEIGER

@<TRIPOS>ATOM
      1 C           7.1620   -5.3810   26.4459 C.2     1  UNL1        0.1394
      2 C           7.5926   -6.6143   27.1831 C.2     1  UNL1        0.1224
      3 C           8.2178   -7.7548   26.4358 C.2     1  UNL1        0.3253
      4 N           8.6484   -8.9881   27.1731 N.pl3   1  UNL1       -0.2459
      5 N           8.4123   -7.6620   24.9514 N.2     1  UNL1        0.0019
      6 C           7.9817   -6.4287   24.2143 C.2     1  UNL1        0.3660
      7 N           8.0453   -6.0529   22.7635 N.2     1  UNL1       -0.0380
      8 C           7.4594   -4.6802   22.6140 C.2     1  UNL1        0.1900
      9 C           7.0337   -4.2076   23.9725 C.2     1  UNL1        0.0396
     10 C           7.3565   -5.2882   24.9615 C.3     1  UNL1        0.1944
     11 H           8.5207   -9.0490   28.1474 H       1  UNL1        0.2884
     12 H           9.0588   -9.7367   26.6827 H       1  UNL1        0.2884
     13 C           7.3231   -3.9146   21.3314 C.ar    1  UNL1        0.0429
     14 C           8.5126   -3.2120   20.7473 C.ar    1  UNL1        0.0060
     15 C           8.3763   -2.4463   19.4646 C.ar    1  UNL1        0.0298
     16 C           7.0505   -2.3833   18.7661 C.ar    1  UNL1        0.1401
     17 F           6.9142   -1.6177   17.4834 F       1  UNL1       -0.2042
     18 C           5.8609   -3.0859   19.3502 C.ar    1  UNL1        0.0298
     19 C           5.9972   -3.8516   20.6328 C.ar    1  UNL1        0.0060
     20 C           6.3970   -2.8863   24.2868 C.ar    1  UNL1        0.0037
     21 C           4.9254   -2.6926   24.0710 C.ar    1  UNL1        0.0205
     22 C           4.2887   -1.3713   24.3854 C.ar    1  UNL1        0.0989
     23 N           5.1237   -0.2436   24.9155 N.ar    1  UNL1       -0.2423
     24 C           6.5954   -0.4372   25.1313 C.ar    1  UNL1        0.0989
     25 C           7.2321   -1.7585   24.8170 C.ar    1  UNL1        0.0205
     26 C           7.3592   -3.4312   28.1516 C.3     1  UNL1        0.2520
     27 O           6.5368   -4.2404   27.1931 O.2     1  UNL1       -0.4745
@<TRIPOS>BOND
     1    26    27    1
     2    27     1    1
     3     1     2    2
     4     2     3    1
     5     3     4    1
     6     3     5    2
     7     5     6    1
     8     6     7    2
     9     7     8    1
    10     8    13    1
    11    13    14   ar
    12    14    15   ar
    13    15    16   ar
    14    16    17    1
    15    16    18   ar
    16    18    19   ar
    17     8     9    2
    18     9    20    1
    19    20    21   ar
    20    21    22   ar
    21    22    23   ar
    22    23    24   ar
    23    24    25   ar
    24     9    10    1
    25    10     1    1
    26    10     6    1
    27    19    13   ar
    28    25    20   ar
    29     4    11    1
    30     4    12    1
@<TRIPOS>MOLECULE
*****
 27 30 0 0 0
SMALL
GASTEIGER

@<TRIPOS>ATOM
      1 C           6.5245   -2.8020   29.6328 C.2     1  UNL1        0.1394
      2 C           6.6004   -3.6138   30.8919 C.2     1  UNL1        0.1224
      3 C           6.7536   -5.1040   30.8153 C.2     1  UNL1        0.3253
      4 N           6.8296   -5.9158   32.0745 N.pl3   1  UNL1       -0.2459
      5 N           6.8309   -5.7824   29.4798 N.2     1  UNL1        0.0019
      6 C           6.7550   -4.9706   28.2208 C.2     1  UNL1        0.3660
      7 N           6.8031   -5.3579   26.7724 N.2     1  UNL1       -0.0380
      8 C           6.6796   -4.1070   25.9538 C.2     1  UNL1        0.1900
      9 C           6.5552   -2.9467   26.8962 C.2     1  UNL1        0.0396
     10 C           6.6018   -3.4804   28.2973 C.3     1  UNL1        0.1944
     11 H           6.7788   -5.4705   32.9510 H       1  UNL1        0.2884
     12 H           6.9301   -6.8938   32.0243 H       1  UNL1        0.2884
     13 C           6.6804   -4.0300   24.4557 C.ar    1  UNL1        0.0429
     14 C           5.4865   -3.4813   23.7323 C.ar    1  UNL1        0.0060
     15 C           5.4873   -3.4043   22.2343 C.ar    1  UNL1        0.0298
     16 C           6.6820   -3.8760   21.4597 C.ar    1  UNL1        0.1401
     17 F           6.6828   -3.7990   19.9617 F       1  UNL1       -0.2042
     18 C           7.8760   -4.4247   22.1831 C.ar    1  UNL1        0.0298
     19 C           7.8752   -4.5017   23.6811 C.ar    1  UNL1        0.0060
     20 C           6.4097   -1.5057   26.5061 C.ar    1  UNL1        0.0037
     21 C           7.6289   -0.6765   26.2304 C.ar    1  UNL1        0.0205
     22 C           7.4834    0.7646   25.8403 C.ar    1  UNL1        0.0989
     23 N           6.1187    1.3765   25.7259 N.ar    1  UNL1       -0.2423
     24 C           4.8994    0.5473   26.0015 C.ar    1  UNL1        0.0989
     25 C           5.0449   -0.8937   26.3916 C.ar    1  UNL1        0.0205
     26 C           5.0547   -0.7126   30.1062 C.3     1  UNL1        0.2520
     27 O           6.3713   -1.3118   29.7093 O.2     1  UNL1       -0.4745
@<TRIPOS>BOND
     1    26    27    1
     2    27     1    1
     3     1     2    2
     4     2     3    1
     5     3     4    1
     6     3     5    2
     7     5     6    1
     8     6     7    2
     9     7     8    1
    10     8    13    1
    11    13    14   ar
    12    14    15   ar
    13    15    16   ar
    14    16    17    1
    15    16    18   ar
    16    18    19   ar
    17     8     9    2
    18     9    20    1
    19    20    21   ar
    20    21    22   ar
    21    22    23   ar
    22    23    24   ar
    23    24    25   ar
    24     9    10    1
    25    10     1    1
    26    10     6    1
    27    19    13   ar
    28    25    20   ar
    29     4    11    1
    30     4    12    1
