@<TRIPOS>MOLECULE
*****
 31 35 0 0 0
SMALL
GASTEIGER

@<TRIPOS>ATOM
      1 N          -7.9031  -20.8728   22.9998 N.pl3   1  UNL1       -0.2927
      2 H          -7.8673  -21.7933   23.3472 H       1  UNL1        0.1541
      3 C          -9.1519  -20.0579   23.1623 C.ar    1  UNL1        0.1629
      4 N          -9.5574  -18.8877   22.3160 N.ar    1  UNL1       -0.2284
      5 C         -10.8706  -18.3766   22.8303 C.ar    1  UNL1        0.0666
      6 C         -11.2767  -19.2310   23.9944 C.ar    1  UNL1        0.0237
      7 S         -10.2145  -20.2701   24.1995 S.2     1  UNL1       -0.0561
      8 C         -12.5612  -18.9525   24.7171 C.3     1  UNL1        0.0343
      9 C         -13.4396  -17.8196   24.2758 C.3     1  UNL1        0.0060
     10 C         -13.0335  -16.9652   23.1117 C.3     1  UNL1        0.0107
     11 C         -11.7490  -17.2437   22.3890 C.3     1  UNL1        0.0627
     12 C         -11.3429  -16.3893   21.2249 C.ar    1  UNL1       -0.0169
     13 C         -10.0898  -15.5682   21.2983 C.ar    1  UNL1       -0.0039
     14 C          -9.6837  -14.7138   20.1342 C.ar    1  UNL1       -0.0003
     15 C         -10.5307  -14.6805   18.8967 C.ar    1  UNL1       -0.0000
     16 C         -11.7838  -15.5016   18.8233 C.ar    1  UNL1       -0.0003
     17 C         -12.1899  -16.3560   19.9874 C.ar    1  UNL1       -0.0039
     18 C          -4.8754  -18.4512   22.1520 C.ar    1  UNL1        0.1404
     19 C          -6.0696  -19.0387   22.8438 C.ar    1  UNL1        0.0515
     20 C          -6.7089  -20.2854   22.3079 C.ar    1  UNL1        0.0528
     21 C          -6.1539  -20.9445   21.0801 C.ar    1  UNL1        0.0149
     22 C          -4.9597  -20.3570   20.3883 C.ar    1  UNL1        0.0048
     23 C          -4.3204  -19.1104   20.9242 C.ar    1  UNL1        0.0416
     24 C          -3.1262  -18.5228   20.2323 C.ar    1  UNL1        0.0526
     25 C          -3.1160  -17.8990   18.8683 C.ar    1  UNL1        0.1056
     26 N          -1.7160  -17.4466   18.5759 N.ar    1  UNL1       -0.2412
     27 C          -0.8610  -17.7909   19.7594 C.ar    1  UNL1        0.0887
     28 C           0.6076  -17.5180   19.8952 C.3     1  UNL1        0.0594
     29 S          -1.7325  -18.4561   20.7830 S.2     1  UNL1       -0.0706
     30 C          -4.8726  -16.4657   23.8277 C.3     1  UNL1        0.2525
     31 O          -4.2361  -17.2045   22.6879 O.3     1  UNL1       -0.4714
@<TRIPOS>BOND
     1    30    31    1
     2    31    18    1
     3    18    19   ar
     4    19    20   ar
     5    20     1    1
     6     1     3    1
     7     3     4   ar
     8     4     5   ar
     9     5     6   ar
    10     6     7   ar
    11     6     8    1
    12     8     9    1
    13     9    10    1
    14    10    11    1
    15    11    12    1
    16    12    13   ar
    17    13    14   ar
    18    14    15   ar
    19    15    16   ar
    20    16    17   ar
    21    20    21   ar
    22    21    22   ar
    23    22    23   ar
    24    23    24    1
    25    24    25   ar
    26    25    26   ar
    27    26    27   ar
    28    27    28    1
    29    27    29   ar
    30    23    18   ar
    31    29    24   ar
    32     7     3   ar
    33    17    12   ar
    34    11     5    1
    35     1     2    1
@<TRIPOS>MOLECULE
*****
 31 35 0 0 0
SMALL
GASTEIGER

@<TRIPOS>ATOM
      1 N         -16.4490   -2.5153   20.1011 N.pl3   1  UNL1       -0.2927
      2 H         -16.8653   -1.8533   20.6991 H       1  UNL1        0.1541
      3 C         -15.1275   -2.2176   19.4569 C.ar    1  UNL1        0.1629
      4 N         -14.0272   -3.2053   19.2045 N.ar    1  UNL1       -0.2284
      5 C         -12.8940   -2.4780   18.5435 C.ar    1  UNL1        0.0666
      6 C         -13.2939   -1.0408   18.3873 C.ar    1  UNL1        0.0237
      7 S         -14.6744   -0.8798   18.9518 S.2     1  UNL1       -0.0561
      8 C         -12.3496   -0.0643   17.7513 C.3     1  UNL1        0.0343
      9 C         -11.0052   -0.5251   17.2715 C.3     1  UNL1        0.0060
     10 C         -10.6052   -1.9623   17.4277 C.3     1  UNL1        0.0107
     11 C         -11.5496   -2.9387   18.0637 C.3     1  UNL1        0.0627
     12 C         -11.1496   -4.3760   18.2199 C.ar    1  UNL1       -0.0169
     13 C         -11.9539   -5.4546   17.5570 C.ar    1  UNL1       -0.0039
     14 C         -11.5539   -6.8918   17.7133 C.ar    1  UNL1       -0.0003
     15 C         -10.3496   -7.2504   18.5324 C.ar    1  UNL1       -0.0000
     16 C          -9.5453   -6.1717   19.1953 C.ar    1  UNL1       -0.0003
     17 C          -9.9453   -4.7345   19.0391 C.ar    1  UNL1       -0.0039
     18 C         -17.0232   -6.3948   19.4932 C.ar    1  UNL1        0.1404
     19 C         -16.3361   -5.0885   19.7601 C.ar    1  UNL1        0.0515
     20 C         -17.1361   -3.8217   19.8342 C.ar    1  UNL1        0.0528
     21 C         -18.6231   -3.8614   19.6415 C.ar    1  UNL1        0.0149
     22 C         -19.3102   -5.1678   19.3746 C.ar    1  UNL1        0.0048
     23 C         -18.5102   -6.4345   19.3005 C.ar    1  UNL1        0.0416
     24 C         -19.1973   -7.7410   19.0336 C.ar    1  UNL1        0.0526
     25 C         -19.9391   -8.5688   20.0408 C.ar    1  UNL1        0.1056
     26 N         -20.4635   -9.7885   19.3424 N.ar    1  UNL1       -0.2412
     27 C         -20.0457   -9.7143   17.9036 C.ar    1  UNL1        0.0887
     28 C         -20.3560  -10.7275   16.8421 C.3     1  UNL1        0.0594
     29 S         -19.2632   -8.4489   17.7128 S.2     1  UNL1       -0.0706
     30 C         -15.1974   -7.8387   18.3391 C.3     1  UNL1        0.2525
     31 O         -16.2232   -7.6616   19.4191 O.3     1  UNL1       -0.4714
@<TRIPOS>BOND
     1    30    31    1
     2    31    18    1
     3    18    19   ar
     4    19    20   ar
     5    20     1    1
     6     1     3    1
     7     3     4   ar
     8     4     5   ar
     9     5     6   ar
    10     6     7   ar
    11     6     8    1
    12     8     9    1
    13     9    10    1
    14    10    11    1
    15    11    12    1
    16    12    13   ar
    17    13    14   ar
    18    14    15   ar
    19    15    16   ar
    20    16    17   ar
    21    20    21   ar
    22    21    22   ar
    23    22    23   ar
    24    23    24    1
    25    24    25   ar
    26    25    26   ar
    27    26    27   ar
    28    27    28    1
    29    27    29   ar
    30    23    18   ar
    31    29    24   ar
    32     7     3   ar
    33    17    12   ar
    34    11     5    1
    35     1     2    1
@<TRIPOS>MOLECULE
*****
 31 35 0 0 0
SMALL
GASTEIGER

@<TRIPOS>ATOM
      1 N          -7.4405  -19.7128   19.8581 N.pl3   1  UNL1       -0.2927
      2 H          -7.5278  -20.1435   18.9771 H       1  UNL1        0.1541
      3 C          -6.0841  -19.3437   20.3814 C.ar    1  UNL1        0.1629
      4 N          -5.8043  -18.5419   21.6179 N.ar    1  UNL1       -0.2284
      5 C          -4.3166  -18.4141   21.7608 C.ar    1  UNL1        0.0666
      6 C          -3.6769  -19.1370   20.6126 C.ar    1  UNL1        0.0237
      7 S          -4.7693  -19.7114   19.7601 S.2     1  UNL1       -0.0561
      8 C          -2.1824  -19.1787   20.4917 C.3     1  UNL1        0.0343
      9 C          -1.3276  -18.4976   21.5190 C.3     1  UNL1        0.0060
     10 C          -1.9673  -17.7747   22.6671 C.3     1  UNL1        0.0107
     11 C          -3.4618  -17.7330   22.7880 C.3     1  UNL1        0.0627
     12 C          -4.1015  -17.0101   23.9362 C.ar    1  UNL1       -0.0169
     13 C          -4.9793  -15.8215   23.6786 C.ar    1  UNL1       -0.0039
     14 C          -5.6190  -15.0986   24.8267 C.ar    1  UNL1       -0.0003
     15 C          -5.3809  -15.5644   26.2325 C.ar    1  UNL1       -0.0000
     16 C          -4.5030  -16.7531   26.4901 C.ar    1  UNL1       -0.0003
     17 C          -3.8633  -17.4760   25.3420 C.ar    1  UNL1       -0.0039
     18 C         -11.0052  -18.3248   20.9147 C.ar    1  UNL1        0.1404
     19 C          -9.7818  -18.6118   20.0957 C.ar    1  UNL1        0.0515
     20 C          -8.6640  -19.4259   20.6771 C.ar    1  UNL1        0.0528
     21 C          -8.7697  -19.9529   22.0775 C.ar    1  UNL1        0.0149
     22 C          -9.9933  -19.6659   22.8964 C.ar    1  UNL1        0.0048
     23 C         -11.1110  -18.8519   22.3150 C.ar    1  UNL1        0.0416
     24 C         -12.3345  -18.5649   23.1340 C.ar    1  UNL1        0.0526
     25 C         -13.6107  -17.9591   22.6298 C.ar    1  UNL1        0.1056
     26 N         -14.5616  -17.8531   23.7851 N.ar    1  UNL1       -0.2412
     27 C         -13.8730  -18.3933   25.0033 C.ar    1  UNL1        0.0887
     28 C         -14.4580  -18.4787   26.3818 C.3     1  UNL1        0.0594
     29 S         -12.4966  -18.8333   24.6009 S.2     1  UNL1       -0.0706
     30 C         -11.8520  -16.1327   19.8067 C.3     1  UNL1        0.2525
     31 O         -12.1230  -17.5108   20.3333 O.3     1  UNL1       -0.4714
@<TRIPOS>BOND
     1    30    31    1
     2    31    18    1
     3    18    19   ar
     4    19    20   ar
     5    20     1    1
     6     1     3    1
     7     3     4   ar
     8     4     5   ar
     9     5     6   ar
    10     6     7   ar
    11     6     8    1
    12     8     9    1
    13     9    10    1
    14    10    11    1
    15    11    12    1
    16    12    13   ar
    17    13    14   ar
    18    14    15   ar
    19    15    16   ar
    20    16    17   ar
    21    20    21   ar
    22    21    22   ar
    23    22    23   ar
    24    23    24    1
    25    24    25   ar
    26    25    26   ar
    27    26    27   ar
    28    27    28    1
    29    27    29   ar
    30    23    18   ar
    31    29    24   ar
    32     7     3   ar
    33    17    12   ar
    34    11     5    1
    35     1     2    1
@<TRIPOS>MOLECULE
*****
 31 35 0 0 0
SMALL
GASTEIGER

@<TRIPOS>ATOM
      1 N          -7.3623  -19.7834   19.8462 N.pl3   1  UNL1       -0.2927
      2 H          -7.4461  -20.2548   18.9860 H       1  UNL1        0.1541
      3 C          -6.0092  -19.3762   20.3495 C.ar    1  UNL1        0.1629
      4 N          -5.7335  -18.5720   21.5853 N.ar    1  UNL1       -0.2284
      5 C          -4.2481  -18.4005   21.7050 C.ar    1  UNL1        0.0666
      6 C          -3.6058  -19.0988   20.5432 C.ar    1  UNL1        0.0237
      7 S          -4.6942  -19.7018   19.7055 S.2     1  UNL1       -0.0561
      8 C          -2.1128  -19.0953   20.3982 C.3     1  UNL1        0.0343
      9 C          -1.2622  -18.3936   21.4150 C.3     1  UNL1        0.0060
     10 C          -1.9045  -17.6953   22.5768 C.3     1  UNL1        0.0107
     11 C          -3.3975  -17.6988   22.7218 C.3     1  UNL1        0.0627
     12 C          -4.0398  -17.0005   23.8837 C.ar    1  UNL1       -0.0169
     13 C          -4.9278  -15.8147   23.6484 C.ar    1  UNL1       -0.0039
     14 C          -5.5701  -15.1164   24.8102 C.ar    1  UNL1       -0.0003
     15 C          -5.3244  -15.6039   26.2073 C.ar    1  UNL1       -0.0000
     16 C          -4.4364  -16.7896   26.4426 C.ar    1  UNL1       -0.0003
     17 C          -3.7941  -17.4879   25.2808 C.ar    1  UNL1       -0.0039
     18 C          -9.6764  -18.6183   22.8524 C.ar    1  UNL1        0.1404
     19 C          -8.4510  -18.9293   22.0451 C.ar    1  UNL1        0.0515
     20 C          -8.5876  -19.4724   20.6535 C.ar    1  UNL1        0.0528
     21 C          -9.9495  -19.7044   20.0693 C.ar    1  UNL1        0.0149
     22 C         -11.1749  -19.3934   20.8767 C.ar    1  UNL1        0.0048
     23 C         -11.0383  -18.8503   22.2682 C.ar    1  UNL1        0.0416
     24 C         -12.2637  -18.5393   23.0756 C.ar    1  UNL1        0.0526
     25 C         -13.4916  -17.8355   22.5787 C.ar    1  UNL1        0.1056
     26 N         -14.4631  -17.7387   23.7176 N.ar    1  UNL1       -0.2412
     27 C         -13.8355  -18.3825   24.9182 C.ar    1  UNL1        0.0887
     28 C         -14.4578  -18.5093   26.2770 C.3     1  UNL1        0.0594
     29 S         -12.4761  -18.8773   24.5214 S.2     1  UNL1       -0.0706
     30 C          -9.2001  -16.6294   24.4548 C.3     1  UNL1        0.2525
     31 O          -9.5398  -18.0751   24.2440 O.3     1  UNL1       -0.4714
@<TRIPOS>BOND
     1    30    31    1
     2    31    18    1
     3    18    19   ar
     4    19    20   ar
     5    20     1    1
     6     1     3    1
     7     3     4   ar
     8     4     5   ar
     9     5     6   ar
    10     6     7   ar
    11     6     8    1
    12     8     9    1
    13     9    10    1
    14    10    11    1
    15    11    12    1
    16    12    13   ar
    17    13    14   ar
    18    14    15   ar
    19    15    16   ar
    20    16    17   ar
    21    20    21   ar
    22    21    22   ar
    23    22    23   ar
    24    23    24    1
    25    24    25   ar
    26    25    26   ar
    27    26    27   ar
    28    27    28    1
    29    27    29   ar
    30    23    18   ar
    31    29    24   ar
    32     7     3   ar
    33    17    12   ar
    34    11     5    1
    35     1     2    1
@<TRIPOS>MOLECULE
*****
 31 35 0 0 0
SMALL
GASTEIGER

@<TRIPOS>ATOM
      1 N           5.5598   -1.3896   24.6816 N.pl3   1  UNL1       -0.2927
      2 H           6.5250   -1.3167   24.8617 H       1  UNL1        0.1541
      3 C           5.0806   -1.9848   23.3909 C.ar    1  UNL1        0.1629
      4 N           4.2070   -1.3063   22.3777 N.ar    1  UNL1       -0.2284
      5 C           3.9772   -2.2652   21.2473 C.ar    1  UNL1        0.0666
      6 C           4.7088   -3.5363   21.5619 C.ar    1  UNL1        0.0237
      7 S           5.3907   -3.3630   22.8866 S.2     1  UNL1       -0.0561
      8 C           4.6596   -4.6874   20.6013 C.3     1  UNL1        0.0343
      9 C           3.8788   -4.5672   19.3263 C.3     1  UNL1        0.0060
     10 C           3.1472   -3.2961   19.0118 C.3     1  UNL1        0.0107
     11 C           3.1964   -2.1451   19.9723 C.3     1  UNL1        0.0627
     12 C           2.4648   -0.8739   19.6578 C.ar    1  UNL1       -0.0169
     13 C           1.1180   -0.6139   20.2647 C.ar    1  UNL1       -0.0039
     14 C           0.3864    0.6573   19.9502 C.ar    1  UNL1       -0.0003
     15 C           1.0015    1.6684   19.0287 C.ar    1  UNL1       -0.0000
     16 C           2.3483    1.4083   18.4218 C.ar    1  UNL1       -0.0003
     17 C           3.0799    0.1372   18.7363 C.ar    1  UNL1       -0.0039
     18 C           2.5863    0.6434   26.3476 C.ar    1  UNL1        0.1404
     19 C           3.5775    0.1592   25.3312 C.ar    1  UNL1        0.0515
     20 C           4.5686   -0.9054   25.6980 C.ar    1  UNL1        0.0528
     21 C           4.5684   -1.4858   27.0812 C.ar    1  UNL1        0.0149
     22 C           3.5771   -1.0016   28.0975 C.ar    1  UNL1        0.0048
     23 C           2.5861    0.0630   27.7307 C.ar    1  UNL1        0.0416
     24 C           1.5948    0.5472   28.7471 C.ar    1  UNL1        0.0526
     25 C           0.2051    0.0184   28.9447 C.ar    1  UNL1        0.1056
     26 N          -0.4294    0.7896   30.0641 N.ar    1  UNL1       -0.2412
     27 C           0.5682    1.7949   30.5581 C.ar    1  UNL1        0.0887
     28 C           0.3527    2.7775   31.6707 C.3     1  UNL1        0.0594
     29 S           1.8192    1.6451   29.7442 S.2     1  UNL1       -0.0706
     30 C           0.3258    1.3388   25.2722 C.3     1  UNL1        0.2525
     31 O           1.5953    1.7080   25.9808 O.3     1  UNL1       -0.4714
@<TRIPOS>BOND
     1    30    31    1
     2    31    18    1
     3    18    19   ar
     4    19    20   ar
     5    20     1    1
     6     1     3    1
     7     3     4   ar
     8     4     5   ar
     9     5     6   ar
    10     6     7   ar
    11     6     8    1
    12     8     9    1
    13     9    10    1
    14    10    11    1
    15    11    12    1
    16    12    13   ar
    17    13    14   ar
    18    14    15   ar
    19    15    16   ar
    20    16    17   ar
    21    20    21   ar
    22    21    22   ar
    23    22    23   ar
    24    23    24    1
    25    24    25   ar
    26    25    26   ar
    27    26    27   ar
    28    27    28    1
    29    27    29   ar
    30    23    18   ar
    31    29    24   ar
    32     7     3   ar
    33    17    12   ar
    34    11     5    1
    35     1     2    1
@<TRIPOS>MOLECULE
*****
 31 35 0 0 0
SMALL
GASTEIGER

@<TRIPOS>ATOM
      1 N          -0.0186    3.0991   19.9716 N.pl3   1  UNL1       -0.2927
      2 H           0.1842    3.8079   19.3191 H       1  UNL1        0.1541
      3 C          -1.1687    3.2603   20.9209 C.ar    1  UNL1        0.1629
      4 N          -1.0712    3.3682   22.4139 N.ar    1  UNL1       -0.2284
      5 C          -2.4605    3.5164   22.9596 C.ar    1  UNL1        0.0666
      6 C          -3.4167    3.5002   21.8040 C.ar    1  UNL1        0.0237
      7 S          -2.6183    3.3419   20.5440 S.2     1  UNL1       -0.0561
      8 C          -4.8907    3.6317   22.0483 C.3     1  UNL1        0.0343
      9 C          -5.4087    3.7794   23.4482 C.3     1  UNL1        0.0060
     10 C          -4.4525    3.7956   24.6039 C.3     1  UNL1        0.0107
     11 C          -2.9784    3.6641   24.3596 C.3     1  UNL1        0.0627
     12 C          -2.0223    3.6804   25.5152 C.ar    1  UNL1       -0.0169
     13 C          -1.8060    4.9452   26.2920 C.ar    1  UNL1       -0.0039
     14 C          -0.8498    4.9614   27.4476 C.ar    1  UNL1       -0.0003
     15 C          -0.1100    3.7128   27.8265 C.ar    1  UNL1       -0.0000
     16 C          -0.3263    2.4480   27.0497 C.ar    1  UNL1       -0.0003
     17 C          -1.2825    2.4318   25.8941 C.ar    1  UNL1       -0.0039
     18 C           3.1344    0.6969   19.7766 C.ar    1  UNL1        0.1404
     19 C           2.2932    1.9380   19.7318 C.ar    1  UNL1        0.0515
     20 C           0.8226    1.8580   20.0163 C.ar    1  UNL1        0.0528
     21 C           0.1932    0.5369   20.3457 C.ar    1  UNL1        0.0149
     22 C           1.0345   -0.7043   20.3904 C.ar    1  UNL1        0.0048
     23 C           2.5050   -0.6242   20.1059 C.ar    1  UNL1        0.0416
     24 C           3.3463   -1.8654   20.1506 C.ar    1  UNL1        0.0526
     25 C           4.2238   -2.2950   21.2887 C.ar    1  UNL1        0.1056
     26 N           4.8776   -3.5900   20.9066 N.ar    1  UNL1       -0.2412
     27 C           4.4040   -3.9605   19.5324 C.ar    1  UNL1        0.0887
     28 C           4.8062   -5.1823   18.7609 C.3     1  UNL1        0.0594
     29 S           3.4576   -2.8947   19.0652 S.2     1  UNL1       -0.0706
     30 C           5.0978    0.7438   18.0756 C.3     1  UNL1        0.2525
     31 O           4.6050    0.7769   19.4920 O.3     1  UNL1       -0.4714
@<TRIPOS>BOND
     1    30    31    1
     2    31    18    1
     3    18    19   ar
     4    19    20   ar
     5    20     1    1
     6     1     3    1
     7     3     4   ar
     8     4     5   ar
     9     5     6   ar
    10     6     7   ar
    11     6     8    1
    12     8     9    1
    13     9    10    1
    14    10    11    1
    15    11    12    1
    16    12    13   ar
    17    13    14   ar
    18    14    15   ar
    19    15    16   ar
    20    16    17   ar
    21    20    21   ar
    22    21    22   ar
    23    22    23   ar
    24    23    24    1
    25    24    25   ar
    26    25    26   ar
    27    26    27   ar
    28    27    28    1
    29    27    29   ar
    30    23    18   ar
    31    29    24   ar
    32     7     3   ar
    33    17    12   ar
    34    11     5    1
    35     1     2    1
@<TRIPOS>MOLECULE
*****
 31 35 0 0 0
SMALL
GASTEIGER

@<TRIPOS>ATOM
      1 N          -7.4266  -20.7167   21.0185 N.pl3   1  UNL1       -0.2927
      2 H          -7.6086  -21.6799   20.9269 H       1  UNL1        0.1541
      3 C          -8.5194  -19.7847   21.4510 C.ar    1  UNL1        0.1629
      4 N          -8.4918  -18.8929   22.6568 N.ar    1  UNL1       -0.2284
      5 C          -9.7871  -18.1378   22.7047 C.ar    1  UNL1        0.0666
      6 C         -10.6152  -18.5630   21.5284 C.ar    1  UNL1        0.0237
      7 S          -9.8317  -19.5808   20.7536 S.2     1  UNL1       -0.0561
      8 C         -11.9756  -17.9684   21.3149 C.3     1  UNL1        0.0343
      9 C         -12.5079  -16.9487   22.2775 C.3     1  UNL1        0.0060
     10 C         -11.6798  -16.5236   23.4538 C.3     1  UNL1        0.0107
     11 C         -10.3194  -17.1181   23.6673 C.3     1  UNL1        0.0627
     12 C          -9.4913  -16.6930   24.8435 C.ar    1  UNL1       -0.0169
     13 C          -9.5093  -17.5033   26.1056 C.ar    1  UNL1       -0.0039
     14 C          -8.6812  -17.0782   27.2818 C.ar    1  UNL1       -0.0003
     15 C          -7.8351  -15.8426   27.1960 C.ar    1  UNL1       -0.0000
     16 C          -7.8170  -15.0323   25.9339 C.ar    1  UNL1       -0.0003
     17 C          -8.6451  -15.4574   24.7577 C.ar    1  UNL1       -0.0039
     18 C          -4.1652  -18.4621   21.1926 C.ar    1  UNL1        0.1404
     19 C          -5.5353  -18.9976   21.4856 C.ar    1  UNL1        0.0515
     20 C          -6.0564  -20.1812   20.7255 C.ar    1  UNL1        0.0528
     21 C          -5.2072  -20.8293   19.6724 C.ar    1  UNL1        0.0149
     22 C          -3.8370  -20.2937   19.3795 C.ar    1  UNL1        0.0048
     23 C          -3.3160  -19.1102   20.1395 C.ar    1  UNL1        0.0416
     24 C          -1.9458  -18.5747   19.8466 C.ar    1  UNL1        0.0526
     25 C          -1.4653  -18.0591   18.5224 C.ar    1  UNL1        0.1056
     26 N          -0.0380  -17.6264   18.6837 N.ar    1  UNL1       -0.2412
     27 C           0.3634  -17.8747   20.1076 C.ar    1  UNL1        0.0887
     28 C           1.7078  -17.5873   20.7074 C.3     1  UNL1        0.0594
     29 S          -0.8156  -18.4607   20.8262 S.2     1  UNL1       -0.0706
     30 C          -3.9179  -17.1510   23.4219 C.3     1  UNL1        0.2525
     31 O          -3.6441  -17.2785   21.9527 O.3     1  UNL1       -0.4714
@<TRIPOS>BOND
     1    30    31    1
     2    31    18    1
     3    18    19   ar
     4    19    20   ar
     5    20     1    1
     6     1     3    1
     7     3     4   ar
     8     4     5   ar
     9     5     6   ar
    10     6     7   ar
    11     6     8    1
    12     8     9    1
    13     9    10    1
    14    10    11    1
    15    11    12    1
    16    12    13   ar
    17    13    14   ar
    18    14    15   ar
    19    15    16   ar
    20    16    17   ar
    21    20    21   ar
    22    21    22   ar
    23    22    23   ar
    24    23    24    1
    25    24    25   ar
    26    25    26   ar
    27    26    27   ar
    28    27    28    1
    29    27    29   ar
    30    23    18   ar
    31    29    24   ar
    32     7     3   ar
    33    17    12   ar
    34    11     5    1
    35     1     2    1
@<TRIPOS>MOLECULE
*****
 31 35 0 0 0
SMALL
GASTEIGER

@<TRIPOS>ATOM
      1 N         -16.8874   -1.8290   20.1005 N.pl3   1  UNL1       -0.2927
      2 H         -17.6533   -2.2969   20.5051 H       1  UNL1        0.1541
      3 C         -17.0031   -0.3792   19.7334 C.ar    1  UNL1        0.1629
      4 N         -16.6375    0.7836   20.6076 N.ar    1  UNL1       -0.2284
      5 C         -16.9131    2.0438   19.8422 C.ar    1  UNL1        0.0666
      6 C         -17.4490    1.6599   18.4948 C.ar    1  UNL1        0.0237
      7 S         -17.5046    0.1624   18.4276 S.2     1  UNL1       -0.0561
      8 C         -17.8171    2.7234   17.5032 C.3     1  UNL1        0.0343
      9 C         -17.6493    4.1709   17.8590 C.3     1  UNL1        0.0060
     10 C         -17.1134    4.5548   19.2063 C.3     1  UNL1        0.0107
     11 C         -16.7452    3.4913   20.1979 C.3     1  UNL1        0.0627
     12 C         -16.2093    3.8752   21.5453 C.ar    1  UNL1       -0.0169
     13 C         -14.8677    4.5364   21.6581 C.ar    1  UNL1       -0.0039
     14 C         -14.3317    4.9204   23.0055 C.ar    1  UNL1       -0.0003
     15 C         -15.1374    4.6431   24.2400 C.ar    1  UNL1       -0.0000
     16 C         -16.4790    3.9818   24.1271 C.ar    1  UNL1       -0.0003
     17 C         -17.0149    3.5979   22.7797 C.ar    1  UNL1       -0.0039
     18 C         -13.2599   -2.6883   18.7393 C.ar    1  UNL1        0.1404
     19 C         -14.5425   -1.9515   18.9887 C.ar    1  UNL1        0.0515
     20 C         -15.6049   -2.5658   19.8512 C.ar    1  UNL1        0.0528
     21 C         -15.3847   -3.9169   20.4644 C.ar    1  UNL1        0.0149
     22 C         -14.1021   -4.6537   20.2151 C.ar    1  UNL1        0.0048
     23 C         -13.0398   -4.0394   19.3526 C.ar    1  UNL1        0.0416
     24 C         -11.7572   -4.7762   19.1032 C.ar    1  UNL1        0.0526
     25 C         -10.3895   -4.1648   19.0280 C.ar    1  UNL1        0.1056
     26 N          -9.4041   -5.2645   18.7636 N.ar    1  UNL1       -0.2412
     27 C         -10.1629   -6.5554   18.6754 C.ar    1  UNL1        0.0887
     28 C          -9.5712   -7.9102   18.4218 C.3     1  UNL1        0.0594
     29 S         -11.6171   -6.2536   18.8852 S.2     1  UNL1       -0.0706
     30 C         -11.9060   -0.6060   17.9770 C.3     1  UNL1        0.2525
     31 O         -12.1975   -2.0740   17.8768 O.3     1  UNL1       -0.4714
@<TRIPOS>BOND
     1    30    31    1
     2    31    18    1
     3    18    19   ar
     4    19    20   ar
     5    20     1    1
     6     1     3    1
     7     3     4   ar
     8     4     5   ar
     9     5     6   ar
    10     6     7   ar
    11     6     8    1
    12     8     9    1
    13     9    10    1
    14    10    11    1
    15    11    12    1
    16    12    13   ar
    17    13    14   ar
    18    14    15   ar
    19    15    16   ar
    20    16    17   ar
    21    20    21   ar
    22    21    22   ar
    23    22    23   ar
    24    23    24    1
    25    24    25   ar
    26    25    26   ar
    27    26    27   ar
    28    27    28    1
    29    27    29   ar
    30    23    18   ar
    31    29    24   ar
    32     7     3   ar
    33    17    12   ar
    34    11     5    1
    35     1     2    1
@<TRIPOS>MOLECULE
*****
 31 35 0 0 0
SMALL
GASTEIGER

@<TRIPOS>ATOM
      1 N           5.1728   -1.2592   33.8796 N.pl3   1  UNL1       -0.2927
      2 H           5.4261   -2.2105   33.8797 H       1  UNL1        0.1541
      3 C           5.4546   -0.4078   35.0820 C.ar    1  UNL1        0.1629
      4 N           4.4358    0.1133   36.0517 N.ar    1  UNL1       -0.2284
      5 C           5.1563    0.9151   37.0948 C.ar    1  UNL1        0.0666
      6 C           6.6204    0.8896   36.7697 C.ar    1  UNL1        0.0237
      7 S           6.8047    0.0720   35.5257 S.2     1  UNL1       -0.0561
      8 C           7.5965    1.6141   37.6484 C.3     1  UNL1        0.0343
      9 C           7.1085    2.3641   38.8523 C.3     1  UNL1        0.0060
     10 C           5.6444    2.3896   39.1774 C.3     1  UNL1        0.0107
     11 C           4.6683    1.6651   38.2987 C.3     1  UNL1        0.0627
     12 C           3.2041    1.6906   38.6238 C.ar    1  UNL1       -0.0169
     13 C           2.5299    0.4562   39.1448 C.ar    1  UNL1       -0.0039
     14 C           1.0658    0.4817   39.4699 C.ar    1  UNL1       -0.0003
     15 C           0.2759    1.7417   39.2740 C.ar    1  UNL1       -0.0000
     16 C           0.9501    2.9762   38.7530 C.ar    1  UNL1       -0.0003
     17 C           2.4142    2.9506   38.4279 C.ar    1  UNL1       -0.0039
     18 C           2.5714    0.7260   31.6341 C.ar    1  UNL1        0.1404
     19 C           3.2392    0.1279   32.8367 C.ar    1  UNL1        0.0515
     20 C           4.5050   -0.6611   32.6770 C.ar    1  UNL1        0.0528
     21 C           5.1029   -0.8519   31.3146 C.ar    1  UNL1        0.0149
     22 C           4.4351   -0.2537   30.1119 C.ar    1  UNL1        0.0048
     23 C           3.1694    0.5352   30.2717 C.ar    1  UNL1        0.0416
     24 C           2.5015    1.1334   29.0691 C.ar    1  UNL1        0.0526
     25 C           2.8013    2.4758   28.4707 C.ar    1  UNL1        0.1056
     26 N           1.9018    2.6662   27.2855 N.ar    1  UNL1       -0.2412
     27 C           1.0461    1.4415   27.1515 C.ar    1  UNL1        0.0887
     28 C           0.0029    1.2056   26.0999 C.3     1  UNL1        0.0594
     29 S           1.4168    0.4942   28.2538 S.2     1  UNL1       -0.0706
     30 C           1.2985    2.7601   32.6302 C.3     1  UNL1        0.2525
     31 O           1.3057    1.5150   31.7938 O.3     1  UNL1       -0.4714
@<TRIPOS>BOND
     1    30    31    1
     2    31    18    1
     3    18    19   ar
     4    19    20   ar
     5    20     1    1
     6     1     3    1
     7     3     4   ar
     8     4     5   ar
     9     5     6   ar
    10     6     7   ar
    11     6     8    1
    12     8     9    1
    13     9    10    1
    14    10    11    1
    15    11    12    1
    16    12    13   ar
    17    13    14   ar
    18    14    15   ar
    19    15    16   ar
    20    16    17   ar
    21    20    21   ar
    22    21    22   ar
    23    22    23   ar
    24    23    24    1
    25    24    25   ar
    26    25    26   ar
    27    26    27   ar
    28    27    28    1
    29    27    29   ar
    30    23    18   ar
    31    29    24   ar
    32     7     3   ar
    33    17    12   ar
    34    11     5    1
    35     1     2    1
