@<TRIPOS>MOLECULE
*****
 41 42 0 0 0
SMALL
GASTEIGER

@<TRIPOS>ATOM
      1 C           2.5454    2.9077   18.6278 C.ar    1  UNL1        0.1414
      2 N           3.5804    1.9441   18.1278 N.ar    1  UNL1       -0.2291
      3 C           2.9737    0.5722   18.1252 C.ar    1  UNL1        0.1641
      4 S           1.5637    0.6881   18.6236 S.2     1  UNL1       -0.0619
      5 C           1.2990    2.1315   18.9343 C.ar    1  UNL1        0.0539
      6 C           0.0135    2.6990   19.4592 C.ar    1  UNL1        0.0191
      7 C          -0.3589    2.5057   20.8994 C.ar    1  UNL1        0.0028
      8 C          -1.6443    3.0732   21.4243 C.ar    1  UNL1        0.0208
      9 C          -2.5573    3.8340   20.5092 C.ar    1  UNL1        0.1333
     10 C          -2.1849    4.0273   19.0691 C.ar    1  UNL1        0.0867
     11 CL         -3.0980    4.7882   18.1539 Cl      1  UNL1       -0.0800
     12 C          -0.8995    3.4598   18.5441 C.ar    1  UNL1        0.0700
     13 CL         -0.5271    3.6532   17.1040 Cl      1  UNL1       -0.0813
     14 S          -3.8428    4.4015   21.0341 S.O2    1  UNL1        0.0613
     15 O          -4.5654    3.1576   20.6092 O.2     1  UNL1       -0.1530
     16 O          -3.1202    5.6454   21.4590 O.2     1  UNL1       -0.1530
     17 N          -5.1282    4.9690   21.5590 N.3     1  UNL1       -0.1723
     18 H          -5.8220    4.8600   20.8193 H       1  UNL1        0.1491
     19 C          -5.7385    4.4112   22.8107 C.3     1  UNL1        0.1701
     20 C          -7.2266    4.2522   22.9131 C.3     1  UNL1        0.0278
     21 C          -4.8608    4.0126   23.9599 C.3     1  UNL1        0.4118
     22 F          -3.9831    3.6140   25.1091 F       1  UNL1       -0.1685
     23 F          -4.6789    5.4569   24.3219 F       1  UNL1       -0.1685
     24 F          -5.0427    2.5684   23.5979 F       1  UNL1       -0.1685
     25 C           3.6570   -0.6933   17.6990 C.2     1  UNL1        0.2699
     26 O           3.9312   -0.9448   16.2459 O.2     1  UNL1       -0.2679
     27 N           4.0661   -1.7072   18.7259 N.am    1  UNL1       -0.2969
     28 H           3.8861   -1.5422   19.6796 H       1  UNL1        0.1499
     29 C           4.7494   -2.9727   18.2997 C.3     1  UNL1        0.1166
     30 C           5.4199   -3.8435   19.3206 C.3     1  UNL1        0.1064
     31 C           6.2600   -2.6812   19.7603 C.3     1  UNL1        0.0311
     32 C           4.5798   -5.0058   18.8809 C.3     1  UNL1        0.0311
     33 O           6.0903   -4.7143   20.3414 O.3     1  UNL1       -0.3851
     34 H           6.7470   -4.1933   20.8296 H       1  UNL1        0.2103
     35 N           3.1504    4.9490   20.1169 N.am    1  UNL1       -0.2748
     36 C           2.7252    4.3878   18.7925 C.2     1  UNL1        0.2673
     37 O           2.4799    5.3067   17.6325 O.2     1  UNL1       -0.2682
     38 C           2.1392    7.3061   20.5312 C.3     1  UNL1        0.0233
     39 C           3.3302    6.4290   20.2816 C.3     1  UNL1        0.0938
     40 C           3.3957    4.0300   21.2769 C.3     1  UNL1        0.0938
     41 C           2.5504    4.1382   22.5113 C.3     1  UNL1        0.0233
@<TRIPOS>BOND
     1    38    39    1
     2    39    35    1
     3    35    40    1
     4    40    41    1
     5    35    36   am
     6    36    37    2
     7    36     1    1
     8     1     2   ar
     9     2     3   ar
    10     3    25    1
    11    25    26    2
    12    25    27   am
    13    27    29    1
    14    29    30    1
    15    30    31    1
    16    30    32    1
    17    30    33    1
    18     3     4   ar
    19     4     5   ar
    20     5     6    1
    21     6     7   ar
    22     7     8   ar
    23     8     9   ar
    24     9    14    1
    25    14    15    2
    26    14    16    2
    27    14    17    1
    28    17    19    1
    29    19    20    1
    30    19    21    1
    31    21    22    1
    32    21    23    1
    33    21    24    1
    34     9    10   ar
    35    10    11    1
    36    10    12   ar
    37    12    13    1
    38     5     1   ar
    39    12     6   ar
    40    27    28    1
    41    33    34    1
    42    17    18    1
@<TRIPOS>MOLECULE
*****
 41 42 0 0 0
SMALL
GASTEIGER

@<TRIPOS>ATOM
      1 C           0.5655    4.0953   20.0793 C.ar    1  UNL1        0.1414
      2 N          -0.6444    4.9208   19.7560 N.ar    1  UNL1       -0.2291
      3 C          -1.2636    4.3665   18.5072 C.ar    1  UNL1        0.1641
      4 S          -0.4363    3.1984   18.0587 S.2     1  UNL1       -0.0619
      5 C           0.6942    3.0308   19.0303 C.ar    1  UNL1        0.0539
      6 C           1.7652    1.9826   18.9645 C.ar    1  UNL1        0.0191
      7 C           3.0780    2.2919   18.3080 C.ar    1  UNL1        0.0028
      8 C           4.1490    1.2438   18.2422 C.ar    1  UNL1        0.0208
      9 C           3.9072   -0.1136   18.8329 C.ar    1  UNL1        0.1333
     10 C           2.5945   -0.4229   19.4894 C.ar    1  UNL1        0.0867
     11 CL          2.3528   -1.7804   20.0801 Cl      1  UNL1       -0.0800
     12 C           1.5235    0.6252   19.5552 C.ar    1  UNL1        0.0700
     13 CL          0.2107    0.3159   20.2117 Cl      1  UNL1       -0.0813
     14 S           4.9783   -1.1618   18.7671 S.O2    1  UNL1        0.0613
     15 O           4.4924   -1.5729   17.4089 O.2     1  UNL1       -0.1530
     16 O           5.4642   -0.7506   20.1253 O.2     1  UNL1       -0.1530
     17 N           6.0492   -2.2099   18.7012 N.3     1  UNL1       -0.1723
     18 H           6.9341   -1.7390   18.8900 H       1  UNL1        0.1491
     19 C           5.9899   -3.4011   19.6110 C.3     1  UNL1        0.1701
     20 C           7.1694   -3.7481   20.4702 C.3     1  UNL1        0.0278
     21 C           4.7510   -4.2452   19.6615 C.3     1  UNL1        0.4118
     22 F           3.5121   -5.0893   19.7121 F       1  UNL1       -0.1685
     23 F           4.5694   -3.8920   21.1080 F       1  UNL1       -0.1685
     24 F           4.9326   -4.5984   18.2151 F       1  UNL1       -0.1685
     25 C          -2.4940    4.8887   17.8264 C.2     1  UNL1        0.2699
     26 O          -2.3680    5.8686   16.6978 O.2     1  UNL1       -0.2679
     27 N          -3.8504    4.4308   18.2742 N.am    1  UNL1       -0.2969
     28 H          -3.9331    3.7877   19.0150 H       1  UNL1        0.1499
     29 C          -5.0808    4.9530   17.5935 C.3     1  UNL1        0.1166
     30 C          -6.4387    4.5959   18.1213 C.3     1  UNL1        0.1064
     31 C          -7.0022    5.8491   17.5196 C.3     1  UNL1        0.0311
     32 C          -5.8753    3.3427   18.7230 C.3     1  UNL1        0.0311
     33 O          -7.7965    4.2388   18.6491 O.3     1  UNL1       -0.3851
     34 H          -8.4328    4.9259   18.3960 H       1  UNL1        0.2103
     35 N           1.1444    3.7070   22.5821 N.am    1  UNL1       -0.2748
     36 C           1.4853    4.2986   21.2466 C.2     1  UNL1        0.2673
     37 O           2.7462    5.0936   21.0782 O.2     1  UNL1       -0.2682
     38 C           2.4852    2.7383   24.5856 C.3     1  UNL1        0.0233
     39 C           2.0642    3.9104   23.7494 C.3     1  UNL1        0.0938
     40 C          -0.1165    2.9120   22.7504 C.3     1  UNL1        0.0938
     41 C          -1.1691    3.3707   23.7155 C.3     1  UNL1        0.0233
@<TRIPOS>BOND
     1    38    39    1
     2    39    35    1
     3    35    40    1
     4    40    41    1
     5    35    36   am
     6    36    37    2
     7    36     1    1
     8     1     2   ar
     9     2     3   ar
    10     3    25    1
    11    25    26    2
    12    25    27   am
    13    27    29    1
    14    29    30    1
    15    30    31    1
    16    30    32    1
    17    30    33    1
    18     3     4   ar
    19     4     5   ar
    20     5     6    1
    21     6     7   ar
    22     7     8   ar
    23     8     9   ar
    24     9    14    1
    25    14    15    2
    26    14    16    2
    27    14    17    1
    28    17    19    1
    29    19    20    1
    30    19    21    1
    31    21    22    1
    32    21    23    1
    33    21    24    1
    34     9    10   ar
    35    10    11    1
    36    10    12   ar
    37    12    13    1
    38     5     1   ar
    39    12     6   ar
    40    27    28    1
    41    33    34    1
    42    17    18    1
@<TRIPOS>MOLECULE
*****
 41 42 0 0 0
SMALL
GASTEIGER

@<TRIPOS>ATOM
      1 C           3.2723    0.4875   18.3730 C.ar    1  UNL1        0.1414
      2 N           2.1061    1.4284   18.3038 N.ar    1  UNL1       -0.2291
      3 C           1.3382    1.3099   19.5869 C.ar    1  UNL1        0.1641
      4 S           2.0298    0.2958   20.4490 S.2     1  UNL1       -0.0619
      5 C           3.2251   -0.2125   19.6988 C.ar    1  UNL1        0.0539
      6 C           4.2018   -1.2403   20.1884 C.ar    1  UNL1        0.0191
      7 C           4.0174   -2.6836   19.8240 C.ar    1  UNL1        0.0028
      8 C           4.9941   -3.7115   20.3136 C.ar    1  UNL1        0.0208
      9 C           6.1551   -3.2960   21.1676 C.ar    1  UNL1        0.1333
     10 C           6.3394   -1.8526   21.5320 C.ar    1  UNL1        0.0867
     11 CL          7.5005   -1.4372   22.3860 Cl      1  UNL1       -0.0800
     12 C           5.3628   -0.8248   21.0424 C.ar    1  UNL1        0.0700
     13 CL          5.5472    0.6185   21.4068 Cl      1  UNL1       -0.0813
     14 S           7.1318   -4.3238   21.6572 S.O2    1  UNL1        0.0613
     15 O           8.0490   -3.9955   20.5167 O.2     1  UNL1       -0.1530
     16 O           6.2145   -4.6522   22.7977 O.2     1  UNL1       -0.1530
     17 N           8.1085   -5.3516   22.1468 N.3     1  UNL1       -0.1723
     18 H           8.9983   -5.1538   21.6890 H       1  UNL1        0.1491
     19 C           8.3944   -5.4755   23.6141 C.3     1  UNL1        0.1701
     20 C           9.0303   -4.3355   24.3531 C.3     1  UNL1        0.0278
     21 C           8.0446   -6.7393   24.3423 C.3     1  UNL1        0.4118
     22 F           7.6948   -8.0032   25.0704 F       1  UNL1       -0.1685
     23 F           7.3831   -5.9345   25.4214 F       1  UNL1       -0.1685
     24 F           8.7061   -7.5442   23.2631 F       1  UNL1       -0.1685
     25 C           0.0967    2.0718   19.9450 C.2     1  UNL1        0.2699
     26 O          -0.6498    1.7405   21.2032 O.2     1  UNL1       -0.2679
     27 N          -0.3983    3.1649   19.0450 N.am    1  UNL1       -0.2969
     28 H           0.0917    3.3823   18.2192 H       1  UNL1        0.1499
     29 C          -1.6398    3.9268   19.4031 C.3     1  UNL1        0.1166
     30 C          -2.8461    3.8553   18.5144 C.3     1  UNL1        0.1064
     31 C          -1.9727    4.0600   17.3122 C.3     1  UNL1        0.0311
     32 C          -3.7196    3.6506   19.7166 C.3     1  UNL1        0.0311
     33 O          -4.0524    3.7839   17.6258 O.3     1  UNL1       -0.3851
     34 H          -3.7799    3.8932   16.7013 H       1  UNL1        0.2103
     35 N           5.4900    1.1976   17.2208 N.am    1  UNL1       -0.2748
     36 C           4.3044    0.2826   17.3040 C.2     1  UNL1        0.2673
     37 O           4.1508   -0.8374   16.3180 O.2     1  UNL1       -0.2682
     38 C           7.8334    1.7172   16.2266 C.3     1  UNL1        0.0233
     39 C           6.5221    0.9928   16.1518 C.3     1  UNL1        0.0938
     40 C           5.6436    2.3177   18.2067 C.3     1  UNL1        0.0938
     41 C           5.1165    3.6831   17.8787 C.3     1  UNL1        0.0233
@<TRIPOS>BOND
     1    38    39    1
     2    39    35    1
     3    35    40    1
     4    40    41    1
     5    35    36   am
     6    36    37    2
     7    36     1    1
     8     1     2   ar
     9     2     3   ar
    10     3    25    1
    11    25    26    2
    12    25    27   am
    13    27    29    1
    14    29    30    1
    15    30    31    1
    16    30    32    1
    17    30    33    1
    18     3     4   ar
    19     4     5   ar
    20     5     6    1
    21     6     7   ar
    22     7     8   ar
    23     8     9   ar
    24     9    14    1
    25    14    15    2
    26    14    16    2
    27    14    17    1
    28    17    19    1
    29    19    20    1
    30    19    21    1
    31    21    22    1
    32    21    23    1
    33    21    24    1
    34     9    10   ar
    35    10    11    1
    36    10    12   ar
    37    12    13    1
    38     5     1   ar
    39    12     6   ar
    40    27    28    1
    41    33    34    1
    42    17    18    1
@<TRIPOS>MOLECULE
*****
 41 42 0 0 0
SMALL
GASTEIGER

@<TRIPOS>ATOM
      1 C           6.0755   -2.0944   19.5916 C.ar    1  UNL1        0.1414
      2 N           7.1229   -3.0715   20.0368 N.ar    1  UNL1       -0.2291
      3 C           6.7523   -3.5560   21.4072 C.ar    1  UNL1        0.1641
      4 S           5.4759   -2.8783   21.8090 S.2     1  UNL1       -0.0619
      5 C           5.0576   -1.9750   20.6869 C.ar    1  UNL1        0.0539
      6 C           3.8358   -1.1050   20.6641 C.ar    1  UNL1        0.0191
      7 C           2.5355   -1.6513   20.1534 C.ar    1  UNL1        0.0028
      8 C           1.3138   -0.7814   20.1306 C.ar    1  UNL1        0.0208
      9 C           1.3923    0.6348   20.6184 C.ar    1  UNL1        0.1333
     10 C           2.6926    1.1811   21.1291 C.ar    1  UNL1        0.0867
     11 CL          2.7711    2.5975   21.6170 Cl      1  UNL1       -0.0800
     12 C           3.9143    0.3112   21.1519 C.ar    1  UNL1        0.0700
     13 CL          5.2146    0.8576   21.6626 Cl      1  UNL1       -0.0813
     14 S           0.1705    1.5048   20.5956 S.O2    1  UNL1        0.0613
     15 O          -0.1310    1.1184   22.0132 O.2     1  UNL1       -0.1530
     16 O           0.4721    1.8912   19.1780 O.2     1  UNL1       -0.1530
     17 N          -1.0512    2.3747   20.5729 N.3     1  UNL1       -0.1723
     18 H          -1.8458    1.7720   20.7866 H       1  UNL1        0.1491
     19 C          -1.1464    3.5582   21.4896 C.3     1  UNL1        0.1701
     20 C          -0.1310    4.6588   21.4014 C.3     1  UNL1        0.0278
     21 C          -2.2569    3.6411   22.4945 C.3     1  UNL1        0.4118
     22 F          -3.3674    3.7240   23.4994 F       1  UNL1       -0.1685
     23 F          -1.2500    3.8093   23.5934 F       1  UNL1       -0.1685
     24 F          -3.2639    3.4729   21.3955 F       1  UNL1       -0.1685
     25 C           7.5229   -4.5446   22.2312 C.2     1  UNL1        0.2699
     26 O           8.3839   -5.5722   21.5583 O.2     1  UNL1       -0.2679
     27 N           7.4324   -4.5056   23.7280 N.am    1  UNL1       -0.2969
     28 H           6.8673   -3.8312   24.1695 H       1  UNL1        0.1499
     29 C           8.2030   -5.4942   24.5519 C.3     1  UNL1        0.1166
     30 C           7.4873   -6.3658   25.5408 C.3     1  UNL1        0.1064
     31 C           8.1212   -7.5801   24.9295 C.3     1  UNL1        0.0311
     32 C           6.8533   -5.1516   26.1522 C.3     1  UNL1        0.0311
     33 O           6.7716   -7.2374   26.5297 O.3     1  UNL1       -0.3851
     34 H           7.0038   -8.1656   26.3702 H       1  UNL1        0.2103
     35 N           6.9134   -0.1546   18.0800 N.am    1  UNL1       -0.2748
     36 C           6.0505   -1.3648   18.2813 C.2     1  UNL1        0.2673
     37 O           5.1623   -1.8455   17.1721 O.2     1  UNL1       -0.2682
     38 C           7.8098    1.7362   16.5400 C.3     1  UNL1        0.0233
     39 C           6.8884    0.5750   16.7697 C.3     1  UNL1        0.0938
     40 C           7.8015    0.3262   19.1892 C.3     1  UNL1        0.0938
     41 C           9.2112   -0.1759   19.2924 C.3     1  UNL1        0.0233
@<TRIPOS>BOND
     1    38    39    1
     2    39    35    1
     3    35    40    1
     4    40    41    1
     5    35    36   am
     6    36    37    2
     7    36     1    1
     8     1     2   ar
     9     2     3   ar
    10     3    25    1
    11    25    26    2
    12    25    27   am
    13    27    29    1
    14    29    30    1
    15    30    31    1
    16    30    32    1
    17    30    33    1
    18     3     4   ar
    19     4     5   ar
    20     5     6    1
    21     6     7   ar
    22     7     8   ar
    23     8     9   ar
    24     9    14    1
    25    14    15    2
    26    14    16    2
    27    14    17    1
    28    17    19    1
    29    19    20    1
    30    19    21    1
    31    21    22    1
    32    21    23    1
    33    21    24    1
    34     9    10   ar
    35    10    11    1
    36    10    12   ar
    37    12    13    1
    38     5     1   ar
    39    12     6   ar
    40    27    28    1
    41    33    34    1
    42    17    18    1
@<TRIPOS>MOLECULE
*****
 41 42 0 0 0
SMALL
GASTEIGER

@<TRIPOS>ATOM
      1 C           0.2828    3.3288   22.9079 C.ar    1  UNL1        0.1414
      2 N          -0.9692    4.1467   23.0240 N.ar    1  UNL1       -0.2291
      3 C          -1.8229    3.8604   21.8243 C.ar    1  UNL1        0.1641
      4 S          -1.0986    2.8654   20.9668 S.2     1  UNL1       -0.0619
      5 C           0.2028    2.5369   21.6365 C.ar    1  UNL1        0.0539
      6 C           1.2419    1.5837   21.1246 C.ar    1  UNL1        0.0191
      7 C           1.0774    0.1084   21.3399 C.ar    1  UNL1        0.0028
      8 C           2.1163   -0.8447   20.8280 C.ar    1  UNL1        0.0208
      9 C           3.3198   -0.3225   20.1009 C.ar    1  UNL1        0.1333
     10 C           3.4844    1.1528   19.8855 C.ar    1  UNL1        0.0867
     11 CL          4.6879    1.6750   19.1583 Cl      1  UNL1       -0.0800
     12 C           2.4454    2.1059   20.3974 C.ar    1  UNL1        0.0700
     13 CL          2.6099    3.5812   20.1820 Cl      1  UNL1       -0.0813
     14 S           4.3589   -1.2757   19.5890 S.O2    1  UNL1        0.0613
     15 O           3.6064   -1.4023   18.2975 O.2     1  UNL1       -0.1530
     16 O           5.1113   -1.1491   20.8804 O.2     1  UNL1       -0.1530
     17 N           5.3978   -2.2288   19.0770 N.3     1  UNL1       -0.1723
     18 H           6.2990   -1.7602   19.1708 H       1  UNL1        0.1491
     19 C           5.5468   -3.5834   19.7038 C.3     1  UNL1        0.1701
     20 C           6.8453   -3.9744   20.3450 C.3     1  UNL1        0.0278
     21 C           4.3974   -4.5470   19.6895 C.3     1  UNL1        0.4118
     22 F           3.2479   -5.5105   19.6752 F       1  UNL1       -0.1685
     23 F           4.1537   -4.2779   21.1449 F       1  UNL1       -0.1685
     24 F           4.6411   -4.8160   18.2341 F       1  UNL1       -0.1685
     25 C          -3.1653    4.4631   21.5332 C.2     1  UNL1        0.2699
     26 O          -3.6010    4.6736   20.1134 O.2     1  UNL1       -0.2679
     27 N          -4.0720    4.8554   22.6620 N.am    1  UNL1       -0.2969
     28 H          -3.7860    4.7173   23.5939 H       1  UNL1        0.1499
     29 C          -5.4143    5.4581   22.3710 C.3     1  UNL1        0.1166
     30 C          -6.6628    4.6657   22.6228 C.3     1  UNL1        0.1064
     31 C          -7.0025    4.7371   21.1635 C.3     1  UNL1        0.0311
     32 C          -6.3232    4.5943   24.0821 C.3     1  UNL1        0.0311
     33 O          -7.9112    3.8733   22.8746 O.3     1  UNL1       -0.3851
     34 H          -8.3874    3.7460   22.0391 H       1  UNL1        0.2103
     35 N           1.3238    2.4555   25.1223 N.am    1  UNL1       -0.2748
     36 C           1.4157    3.3066   23.8907 C.2     1  UNL1        0.2673
     37 O           2.6408    4.1358   23.6417 O.2     1  UNL1       -0.2682
     38 C           3.2929    1.1974   26.2580 C.3     1  UNL1        0.0233
     39 C           2.4568    2.4333   26.1051 C.3     1  UNL1        0.0938
     40 C           0.0988    1.6263   25.3712 C.3     1  UNL1        0.0938
     41 C          -0.9867    2.1425   26.2685 C.3     1  UNL1        0.0233
@<TRIPOS>BOND
     1    38    39    1
     2    39    35    1
     3    35    40    1
     4    40    41    1
     5    35    36   am
     6    36    37    2
     7    36     1    1
     8     1     2   ar
     9     2     3   ar
    10     3    25    1
    11    25    26    2
    12    25    27   am
    13    27    29    1
    14    29    30    1
    15    30    31    1
    16    30    32    1
    17    30    33    1
    18     3     4   ar
    19     4     5   ar
    20     5     6    1
    21     6     7   ar
    22     7     8   ar
    23     8     9   ar
    24     9    14    1
    25    14    15    2
    26    14    16    2
    27    14    17    1
    28    17    19    1
    29    19    20    1
    30    19    21    1
    31    21    22    1
    32    21    23    1
    33    21    24    1
    34     9    10   ar
    35    10    11    1
    36    10    12   ar
    37    12    13    1
    38     5     1   ar
    39    12     6   ar
    40    27    28    1
    41    33    34    1
    42    17    18    1
@<TRIPOS>MOLECULE
*****
 41 42 0 0 0
SMALL
GASTEIGER

@<TRIPOS>ATOM
      1 C           0.7046    4.2613   19.8419 C.ar    1  UNL1        0.1414
      2 N          -0.5266    5.0576   19.5254 N.ar    1  UNL1       -0.2291
      3 C          -1.2500    4.3677   18.4070 C.ar    1  UNL1        0.1641
      4 S          -0.4658    3.1452   18.0323 S.2     1  UNL1       -0.0619
      5 C           0.7422    3.0794   18.9191 C.ar    1  UNL1        0.0539
      6 C           1.8017    2.0180   18.8884 C.ar    1  UNL1        0.0191
      7 C           3.1260    2.2987   18.2422 C.ar    1  UNL1        0.0028
      8 C           4.1855    1.2374   18.2115 C.ar    1  UNL1        0.0208
      9 C           3.9208   -0.1046   18.8271 C.ar    1  UNL1        0.1333
     10 C           2.5966   -0.3853   19.4733 C.ar    1  UNL1        0.0867
     11 CL          2.3319   -1.7273   20.0889 Cl      1  UNL1       -0.0800
     12 C           1.5370    0.6760   19.5040 C.ar    1  UNL1        0.0700
     13 CL          0.2128    0.3954   20.1502 Cl      1  UNL1       -0.0813
     14 S           4.9803   -1.1660   18.7964 S.O2    1  UNL1        0.0613
     15 O           4.5393   -1.5664   17.4198 O.2     1  UNL1       -0.1530
     16 O           5.4213   -0.7656   20.1731 O.2     1  UNL1       -0.1530
     17 N           6.0398   -2.2273   18.7658 N.3     1  UNL1       -0.1723
     18 H           6.9210   -1.7706   19.0008 H       1  UNL1        0.1491
     19 C           5.9238   -3.4289   19.6562 C.3     1  UNL1        0.1701
     20 C           7.0701   -3.8200   20.5412 C.3     1  UNL1        0.0278
     21 C           4.6616   -4.2393   19.6617 C.3     1  UNL1        0.4118
     22 F           3.3994   -5.0496   19.6672 F       1  UNL1       -0.1685
     23 F           4.8894   -4.6038   18.2247 F       1  UNL1       -0.1685
     24 F           4.4338   -3.8747   21.0988 F       1  UNL1       -0.1685
     25 C          -2.5323    4.8209   17.7744 C.2     1  UNL1        0.2699
     26 O          -2.5301    5.9791   16.8212 O.2     1  UNL1       -0.2679
     27 N          -3.8169    4.1158   18.0949 N.am    1  UNL1       -0.2969
     28 H          -3.8184    3.3556   18.7205 H       1  UNL1        0.1499
     29 C          -5.0993    4.5690   17.4623 C.3     1  UNL1        0.1166
     30 C          -6.3812    4.5079   18.2388 C.3     1  UNL1        0.1064
     31 C          -5.9485    3.2086   18.8510 C.3     1  UNL1        0.0311
     32 C          -6.8139    5.8071   17.6267 C.3     1  UNL1        0.0311
     33 O          -7.6631    4.4468   19.0153 O.3     1  UNL1       -0.3851
     34 H          -7.6756    3.6415   19.5559 H       1  UNL1        0.2103
     35 N           2.8433    5.5343   20.5873 N.am    1  UNL1       -0.2748
     36 C           1.7200    4.5895   20.8961 C.2     1  UNL1        0.2673
     37 O           1.6119    3.9727   22.2592 O.2     1  UNL1       -0.2682
     38 C           5.0270    4.9493   21.8676 C.3     1  UNL1        0.0233
     39 C           3.8587    5.8624   21.6415 C.3     1  UNL1        0.0938
     40 C           2.9514    6.1510   19.2242 C.3     1  UNL1        0.0938
     41 C           4.1179    5.8199   18.3415 C.3     1  UNL1        0.0233
@<TRIPOS>BOND
     1    38    39    1
     2    39    35    1
     3    35    40    1
     4    40    41    1
     5    35    36   am
     6    36    37    2
     7    36     1    1
     8     1     2   ar
     9     2     3   ar
    10     3    25    1
    11    25    26    2
    12    25    27   am
    13    27    29    1
    14    29    30    1
    15    30    31    1
    16    30    32    1
    17    30    33    1
    18     3     4   ar
    19     4     5   ar
    20     5     6    1
    21     6     7   ar
    22     7     8   ar
    23     8     9   ar
    24     9    14    1
    25    14    15    2
    26    14    16    2
    27    14    17    1
    28    17    19    1
    29    19    20    1
    30    19    21    1
    31    21    22    1
    32    21    23    1
    33    21    24    1
    34     9    10   ar
    35    10    11    1
    36    10    12   ar
    37    12    13    1
    38     5     1   ar
    39    12     6   ar
    40    27    28    1
    41    33    34    1
    42    17    18    1
@<TRIPOS>MOLECULE
*****
 41 42 0 0 0
SMALL
GASTEIGER

@<TRIPOS>ATOM
      1 C           3.0960   -0.5115   29.0349 C.ar    1  UNL1        0.1414
      2 N           3.6305   -1.3153   27.8867 N.ar    1  UNL1       -0.2291
      3 C           5.0148   -1.7696   28.2436 C.ar    1  UNL1        0.1641
      4 S           5.3359   -1.2465   29.6122 S.2     1  UNL1       -0.0619
      5 C           4.1500   -0.4690   30.1013 C.ar    1  UNL1        0.0539
      6 C           4.0378    0.2287   31.4245 C.ar    1  UNL1        0.0191
      7 C           3.7489    1.6997   31.4746 C.ar    1  UNL1        0.0028
      8 C           3.6368    2.3973   32.7978 C.ar    1  UNL1        0.0208
      9 C           3.8135    1.6239   34.0707 C.ar    1  UNL1        0.1333
     10 C           4.1024    0.1529   34.0206 C.ar    1  UNL1        0.0867
     11 CL          4.2792   -0.6206   35.2937 Cl      1  UNL1       -0.0800
     12 C           4.2146   -0.5448   32.6975 C.ar    1  UNL1        0.0700
     13 CL          4.5035   -2.0158   32.6473 Cl      1  UNL1       -0.0813
     14 S           3.7014    2.3215   35.3939 S.O2    1  UNL1        0.0613
     15 O           2.2062    2.2300   35.3154 O.2     1  UNL1       -0.1530
     16 O           5.1965    2.4131   35.4725 O.2     1  UNL1       -0.1530
     17 N           3.5891    3.0191   36.7171 N.3     1  UNL1       -0.1723
     18 H           2.7274    3.5641   36.6905 H       1  UNL1        0.1491
     19 C           3.5570    2.2198   37.9860 C.3     1  UNL1        0.1701
     20 C           4.7968    2.0858   38.8197 C.3     1  UNL1        0.0278
     21 C           2.2850    1.5545   38.4213 C.3     1  UNL1        0.4118
     22 F           1.0131    0.8892   38.8565 F       1  UNL1       -0.1685
     23 F           2.8921    0.2115   38.1425 F       1  UNL1       -0.1685
     24 F           1.6779    2.8975   38.7000 F       1  UNL1       -0.1685
     25 C           5.9193   -2.6010   27.3829 C.2     1  UNL1        0.2699
     26 O           7.0454   -3.3725   28.0045 O.2     1  UNL1       -0.2679
     27 N           5.6975   -2.6608   25.9005 N.am    1  UNL1       -0.2969
     28 H           4.9583   -2.1544   25.4926 H       1  UNL1        0.1499
     29 C           6.6019   -3.4922   25.0398 C.3     1  UNL1        0.1166
     30 C           6.1670   -3.8906   23.6606 C.3     1  UNL1        0.1064
     31 C           5.0359   -2.9081   23.7335 C.3     1  UNL1        0.0311
     32 C           7.2982   -4.8731   23.5878 C.3     1  UNL1        0.0311
     33 O           5.7322   -4.2890   22.2815 O.3     1  UNL1       -0.3851
     34 H           4.9488   -3.7759   22.0286 H       1  UNL1        0.2103
     35 N           1.5116    1.4585   28.4361 N.am    1  UNL1       -0.2748
     36 C           1.7448    0.1361   29.1043 C.2     1  UNL1        0.2673
     37 O           0.6267   -0.5390   29.8421 O.2     1  UNL1       -0.2682
     38 C          -0.9292    1.6700   27.5714 C.3     1  UNL1        0.0233
     39 C           0.1603    2.1061   28.5056 C.3     1  UNL1        0.0938
     40 C           2.6297    2.1336   27.6983 C.3     1  UNL1        0.0938
     41 C           2.7721    1.9454   26.2171 C.3     1  UNL1        0.0233
@<TRIPOS>BOND
     1    38    39    1
     2    39    35    1
     3    35    40    1
     4    40    41    1
     5    35    36   am
     6    36    37    2
     7    36     1    1
     8     1     2   ar
     9     2     3   ar
    10     3    25    1
    11    25    26    2
    12    25    27   am
    13    27    29    1
    14    29    30    1
    15    30    31    1
    16    30    32    1
    17    30    33    1
    18     3     4   ar
    19     4     5   ar
    20     5     6    1
    21     6     7   ar
    22     7     8   ar
    23     8     9   ar
    24     9    14    1
    25    14    15    2
    26    14    16    2
    27    14    17    1
    28    17    19    1
    29    19    20    1
    30    19    21    1
    31    21    22    1
    32    21    23    1
    33    21    24    1
    34     9    10   ar
    35    10    11    1
    36    10    12   ar
    37    12    13    1
    38     5     1   ar
    39    12     6   ar
    40    27    28    1
    41    33    34    1
    42    17    18    1
@<TRIPOS>MOLECULE
*****
 41 42 0 0 0
SMALL
GASTEIGER

@<TRIPOS>ATOM
      1 C           2.9868   -0.6572   28.7072 C.ar    1  UNL1        0.1414
      2 N           3.5317   -1.5040   27.5954 N.ar    1  UNL1       -0.2291
      3 C           4.9324   -1.8998   27.9580 C.ar    1  UNL1        0.1641
      4 S           5.2532   -1.2976   29.2938 S.2     1  UNL1       -0.0619
      5 C           4.0507   -0.5296   29.7568 C.ar    1  UNL1        0.0539
      6 C           3.9329    0.2322   31.0437 C.ar    1  UNL1        0.0191
      7 C           3.6614    1.7072   31.0199 C.ar    1  UNL1        0.0028
      8 C           3.5436    2.4690   32.3066 C.ar    1  UNL1        0.0208
      9 C           3.6973    1.7558   33.6172 C.ar    1  UNL1        0.1333
     10 C           3.9688    0.2808   33.6410 C.ar    1  UNL1        0.0867
     11 CL          4.1225   -0.4325   34.9516 Cl      1  UNL1       -0.0800
     12 C           4.0866   -0.4810   32.3542 C.ar    1  UNL1        0.0700
     13 CL          4.3581   -1.9561   32.3781 Cl      1  UNL1       -0.0813
     14 S           3.5795    2.5176   34.9040 S.O2    1  UNL1        0.0613
     15 O           5.0645    2.7287   34.9149 O.2     1  UNL1       -0.1530
     16 O           2.0945    2.3065   34.8931 O.2     1  UNL1       -0.1530
     17 N           3.4617    3.2793   36.1908 N.3     1  UNL1       -0.1723
     18 H           2.5429    3.7223   36.1877 H       1  UNL1        0.1491
     19 C           3.5922    2.5620   37.5017 C.3     1  UNL1        0.1701
     20 C           4.9169    2.5181   38.2040 C.3     1  UNL1        0.0278
     21 C           2.3981    1.8886   38.1102 C.3     1  UNL1        0.4118
     22 F           1.2039    1.2151   38.7188 F       1  UNL1       -0.1685
     23 F           3.1855    0.6198   38.2515 F       1  UNL1       -0.1685
     24 F           1.6106    3.1573   37.9690 F       1  UNL1       -0.1685
     25 C           5.8510   -2.7487   27.1301 C.2     1  UNL1        0.2699
     26 O           6.5917   -2.1448   25.9739 O.2     1  UNL1       -0.2679
     27 N           6.0290   -4.2015   27.4583 N.am    1  UNL1       -0.2969
     28 H           5.5429   -4.5978   28.2172 H       1  UNL1        0.1499
     29 C           6.9476   -5.0504   26.6304 C.3     1  UNL1        0.1166
     30 C           7.3593   -6.4073   27.1197 C.3     1  UNL1        0.1064
     31 C           7.2108   -5.9411   28.5377 C.3     1  UNL1        0.0311
     32 C           7.5078   -6.8735   25.7017 C.3     1  UNL1        0.0311
     33 O           7.7709   -7.7641   27.6089 O.3     1  UNL1       -0.3851
     34 H           7.7691   -7.7724   28.5789 H       1  UNL1        0.2103
     35 N           1.2113    0.9717   27.7354 N.am    1  UNL1       -0.2748
     36 C           1.6183   -0.0454   28.7600 C.2     1  UNL1        0.2673
     37 O           0.6566   -0.4508   29.8375 O.2     1  UNL1       -0.2682
     38 C          -0.3431    3.0350   27.4584 C.3     1  UNL1        0.0233
     39 C          -0.1572    1.5835   27.7882 C.3     1  UNL1        0.0938
     40 C           2.1730    1.3771   26.6579 C.3     1  UNL1        0.0938
     41 C           1.9245    0.9654   25.2371 C.3     1  UNL1        0.0233
@<TRIPOS>BOND
     1    38    39    1
     2    39    35    1
     3    35    40    1
     4    40    41    1
     5    35    36   am
     6    36    37    2
     7    36     1    1
     8     1     2   ar
     9     2     3   ar
    10     3    25    1
    11    25    26    2
    12    25    27   am
    13    27    29    1
    14    29    30    1
    15    30    31    1
    16    30    32    1
    17    30    33    1
    18     3     4   ar
    19     4     5   ar
    20     5     6    1
    21     6     7   ar
    22     7     8   ar
    23     8     9   ar
    24     9    14    1
    25    14    15    2
    26    14    16    2
    27    14    17    1
    28    17    19    1
    29    19    20    1
    30    19    21    1
    31    21    22    1
    32    21    23    1
    33    21    24    1
    34     9    10   ar
    35    10    11    1
    36    10    12   ar
    37    12    13    1
    38     5     1   ar
    39    12     6   ar
    40    27    28    1
    41    33    34    1
    42    17    18    1
@<TRIPOS>MOLECULE
*****
 41 42 0 0 0
SMALL
GASTEIGER

@<TRIPOS>ATOM
      1 C           4.6320    1.2682   27.0771 C.ar    1  UNL1        0.1414
      2 N           4.0571    1.7091   28.3906 N.ar    1  UNL1       -0.2291
      3 C           3.1667    0.6137   28.8979 C.ar    1  UNL1        0.1641
      4 S           3.1913   -0.5041   27.8980 S.2     1  UNL1       -0.0619
      5 C           4.0969   -0.0996   26.7727 C.ar    1  UNL1        0.0539
      6 C           4.4120   -0.9191   25.5565 C.ar    1  UNL1        0.0191
      7 C           5.5286   -1.9200   25.5952 C.ar    1  UNL1        0.0028
      8 C           5.8438   -2.7395   24.3791 C.ar    1  UNL1        0.0208
      9 C           5.0424   -2.5581   23.1242 C.ar    1  UNL1        0.1333
     10 C           3.9258   -1.5572   23.0854 C.ar    1  UNL1        0.0867
     11 CL          3.1244   -1.3758   21.8304 Cl      1  UNL1       -0.0800
     12 C           3.6107   -0.7377   24.3016 C.ar    1  UNL1        0.0700
     13 CL          2.4941    0.2632   24.2628 Cl      1  UNL1       -0.0813
     14 S           5.3576   -3.3776   21.9079 S.O2    1  UNL1        0.0613
     15 O           4.3724   -4.4173   22.3533 O.2     1  UNL1       -0.1530
     16 O           6.3428   -2.3379   21.4626 O.2     1  UNL1       -0.1530
     17 N           5.6727   -4.1971   20.6918 N.3     1  UNL1       -0.1723
     18 H           5.4373   -5.1633   20.9187 H       1  UNL1        0.1491
     19 C           5.0074   -3.8851   19.3841 C.3     1  UNL1        0.1701
     20 C           5.7394   -3.0954   18.3398 C.3     1  UNL1        0.0278
     21 C           3.6101   -4.3627   19.1206 C.3     1  UNL1        0.4118
     22 F           2.2128   -4.8404   18.8572 F       1  UNL1       -0.1685
     23 F           4.0899   -5.7835   19.1518 F       1  UNL1       -0.1685
     24 F           3.1303   -2.9419   19.0895 F       1  UNL1       -0.1685
     25 C           2.3883    0.6329   30.1800 C.2     1  UNL1        0.2699
     26 O           2.1876   -0.6359   30.9545 O.2     1  UNL1       -0.2679
     27 N           1.8107    1.9208   30.6876 N.am    1  UNL1       -0.2969
     28 H           1.9424    2.7535   30.1792 H       1  UNL1        0.1499
     29 C           1.0323    1.9399   31.9697 C.3     1  UNL1        0.1166
     30 C           1.3047    2.9988   32.9967 C.3     1  UNL1        0.1064
     31 C           2.2784    2.0852   33.6803 C.3     1  UNL1        0.0311
     32 C           0.3309    3.9123   32.3131 C.3     1  UNL1        0.0311
     33 O           1.5770    4.0575   34.0236 O.3     1  UNL1       -0.3851
     34 H           2.2294    3.7288   34.6618 H       1  UNL1        0.2103
     35 N           7.0564    1.9459   26.4346 N.am    1  UNL1       -0.2748
     36 C           5.5762    2.0568   26.2189 C.2     1  UNL1        0.2673
     37 O           5.0401    2.9562   25.1448 O.2     1  UNL1       -0.2682
     38 C           9.0632    3.5811   26.2123 C.3     1  UNL1        0.0233
     39 C           8.0007    2.7345   25.5763 C.3     1  UNL1        0.0938
     40 C           7.5926    1.0465   27.5087 C.3     1  UNL1        0.0938
     41 C           8.4179   -0.1509   27.1415 C.3     1  UNL1        0.0233
@<TRIPOS>BOND
     1    38    39    1
     2    39    35    1
     3    35    40    1
     4    40    41    1
     5    35    36   am
     6    36    37    2
     7    36     1    1
     8     1     2   ar
     9     2     3   ar
    10     3    25    1
    11    25    26    2
    12    25    27   am
    13    27    29    1
    14    29    30    1
    15    30    31    1
    16    30    32    1
    17    30    33    1
    18     3     4   ar
    19     4     5   ar
    20     5     6    1
    21     6     7   ar
    22     7     8   ar
    23     8     9   ar
    24     9    14    1
    25    14    15    2
    26    14    16    2
    27    14    17    1
    28    17    19    1
    29    19    20    1
    30    19    21    1
    31    21    22    1
    32    21    23    1
    33    21    24    1
    34     9    10   ar
    35    10    11    1
    36    10    12   ar
    37    12    13    1
    38     5     1   ar
    39    12     6   ar
    40    27    28    1
    41    33    34    1
    42    17    18    1
