@<TRIPOS>MOLECULE
*****
 18 19 0 0 0
SMALL
GASTEIGER

@<TRIPOS>ATOM
      1 C          -8.4055  -19.6411   22.6973 C.ar    1  UNL1        0.0413
      2 C          -8.9102  -20.5540   23.7752 C.ar    1  UNL1        0.0082
      3 C         -10.1109  -20.1652   24.5860 C.ar    1  UNL1        0.0003
      4 C         -10.8068  -18.8636   24.3189 C.ar    1  UNL1       -0.0038
      5 C         -10.3021  -17.9507   23.2410 C.ar    1  UNL1       -0.0156
      6 C          -9.1015  -18.3395   22.4302 C.ar    1  UNL1        0.0044
      7 C          -6.0043  -20.4186   21.0757 C.1     1  UNL1       -0.0864
      8 C          -7.2049  -20.0298   21.8865 C.1     1  UNL1       -0.0644
      9 C          -4.8036  -20.8073   20.2650 C.3     1  UNL1        0.0764
     10 C          -2.6577  -19.7682   21.2970 C.3     1  UNL1        0.0011
     11 C          -3.6336  -19.8743   20.1628 C.3     1  UNL1        0.0140
     12 C         -10.9981  -16.6490   22.9738 C.3     1  UNL1        0.0715
     13 C         -11.2905  -16.2305   21.5634 C.ar    1  UNL1        0.0586
     14 C         -12.5634  -16.4887   20.8131 C.ar    1  UNL1        0.1134
     15 N         -12.4209  -15.8982   19.4416 N.ar    1  UNL1       -0.2229
     16 C         -11.0600  -15.2749   19.3443 C.ar    1  UNL1        0.1748
     17 N         -10.3613  -15.4804   20.6557 N.ar    1  UNL1       -0.3379
     18 H          -9.4525  -15.1762   20.8811 H       1  UNL1        0.1672
@<TRIPOS>BOND
     1    10    11    1
     2    11     9    1
     3     9     7    1
     4     7     8    3
     5     8     1    1
     6     1     2   ar
     7     2     3   ar
     8     3     4   ar
     9     4     5   ar
    10     5    12    1
    11    12    13    1
    12    13    14   ar
    13    14    15   ar
    14    15    16   ar
    15    16    17   ar
    16     5     6   ar
    17     6     1   ar
    18    17    13   ar
    19    17    18    1
@<TRIPOS>MOLECULE
*****
 18 19 0 0 0
SMALL
GASTEIGER

@<TRIPOS>ATOM
      1 C          -9.5720  -17.9856   23.5020 C.ar    1  UNL1        0.0413
      2 C         -10.9232  -18.6264   23.6178 C.ar    1  UNL1        0.0082
      3 C         -11.4311  -19.5098   22.5171 C.ar    1  UNL1        0.0003
      4 C         -10.5878  -19.7525   21.3006 C.ar    1  UNL1       -0.0038
      5 C          -9.2365  -19.1118   21.1849 C.ar    1  UNL1       -0.0156
      6 C          -8.7286  -18.2283   22.2856 C.ar    1  UNL1        0.0044
      7 C          -8.5562  -16.2187   25.7034 C.1     1  UNL1       -0.0864
      8 C          -9.0641  -17.1022   24.6027 C.1     1  UNL1       -0.0644
      9 C          -8.0482  -15.3353   26.8041 C.3     1  UNL1        0.0764
     10 C          -5.5528  -15.4458   26.0898 C.3     1  UNL1        0.0011
     11 C          -6.5928  -15.3500   27.1664 C.3     1  UNL1        0.0140
     12 C          -8.3930  -19.3545   19.9684 C.3     1  UNL1        0.0715
     13 C          -6.9080  -19.5154   20.1053 C.ar    1  UNL1        0.0586
     14 C          -6.1964  -20.7343   20.6132 C.ar    1  UNL1        0.1134
     15 N          -4.7225  -20.4579   20.5802 N.ar    1  UNL1       -0.2229
     16 C          -4.5231  -19.0682   20.0519 C.ar    1  UNL1        0.1748
     17 N          -5.8739  -18.4857   19.7584 N.ar    1  UNL1       -0.3379
     18 H          -6.0506  -17.5856   19.4009 H       1  UNL1        0.1672
@<TRIPOS>BOND
     1    10    11    1
     2    11     9    1
     3     9     7    1
     4     7     8    3
     5     8     1    1
     6     1     2   ar
     7     2     3   ar
     8     3     4   ar
     9     4     5   ar
    10     5    12    1
    11    12    13    1
    12    13    14   ar
    13    14    15   ar
    14    15    16   ar
    15    16    17   ar
    16     5     6   ar
    17     6     1   ar
    18    17    13   ar
    19    17    18    1
@<TRIPOS>MOLECULE
*****
 18 19 0 0 0
SMALL
GASTEIGER

@<TRIPOS>ATOM
      1 C          -8.4708  -16.4547   24.9104 C.ar    1  UNL1        0.0413
      2 C          -8.3841  -16.2099   26.3878 C.ar    1  UNL1        0.0082
      3 C          -7.1375  -15.6210   26.9786 C.ar    1  UNL1        0.0003
      4 C          -5.9775  -15.2770   26.0921 C.ar    1  UNL1       -0.0038
      5 C          -6.0641  -15.5218   24.6148 C.ar    1  UNL1       -0.0156
      6 C          -7.3107  -16.1107   24.0240 C.ar    1  UNL1        0.0044
      7 C         -10.9640  -17.6325   23.7288 C.1     1  UNL1       -0.0864
      8 C          -9.7174  -17.0436   24.3196 C.1     1  UNL1       -0.0644
      9 C         -12.2107  -18.2214   23.1379 C.3     1  UNL1        0.0764
     10 C         -14.0478  -18.4095   24.9654 C.3     1  UNL1        0.0011
     11 C         -13.5543  -17.8259   23.6747 C.3     1  UNL1        0.0140
     12 C          -4.9040  -15.1777   23.7282 C.3     1  UNL1        0.0715
     13 C          -4.0436  -16.2681   23.1620 C.ar    1  UNL1        0.0586
     14 C          -4.1259  -17.7254   23.5076 C.ar    1  UNL1        0.1134
     15 N          -3.0830  -18.4506   22.7099 N.ar    1  UNL1       -0.2229
     16 C          -2.3560  -17.4415   21.8712 C.ar    1  UNL1        0.1748
     17 N          -2.9497  -16.0927   22.1506 N.ar    1  UNL1       -0.3379
     18 H          -2.6705  -15.2416   21.7420 H       1  UNL1        0.1672
@<TRIPOS>BOND
     1    10    11    1
     2    11     9    1
     3     9     7    1
     4     7     8    3
     5     8     1    1
     6     1     2   ar
     7     2     3   ar
     8     3     4   ar
     9     4     5   ar
    10     5    12    1
    11    12    13    1
    12    13    14   ar
    13    14    15   ar
    14    15    16   ar
    15    16    17   ar
    16     5     6   ar
    17     6     1   ar
    18    17    13   ar
    19    17    18    1
@<TRIPOS>MOLECULE
*****
 18 19 0 0 0
SMALL
GASTEIGER

@<TRIPOS>ATOM
      1 C          -8.4858  -18.0396   22.1516 C.ar    1  UNL1        0.0413
      2 C          -9.6527  -18.1461   21.2153 C.ar    1  UNL1        0.0082
      3 C          -9.5519  -18.9984   19.9851 C.ar    1  UNL1        0.0003
      4 C          -8.2841  -19.7442   19.6912 C.ar    1  UNL1       -0.0038
      5 C          -7.1171  -19.6377   20.6276 C.ar    1  UNL1       -0.0156
      6 C          -7.2180  -18.7854   21.8578 C.ar    1  UNL1        0.0044
      7 C          -8.6875  -16.3349   24.6120 C.1     1  UNL1       -0.0864
      8 C          -8.5866  -17.1873   23.3818 C.1     1  UNL1       -0.0644
      9 C          -8.7883  -15.4826   25.8422 C.3     1  UNL1        0.0764
     10 C          -6.5611  -15.4607   27.1798 C.3     1  UNL1        0.0011
     11 C          -8.0073  -15.8437   27.0709 C.3     1  UNL1        0.0140
     12 C          -5.8492  -20.3835   20.3337 C.3     1  UNL1        0.0715
     13 C          -4.5635  -19.6333   20.1487 C.ar    1  UNL1        0.0586
     14 C          -3.2476  -19.9687   20.7856 C.ar    1  UNL1        0.1134
     15 N          -2.2388  -18.9587   20.3248 N.ar    1  UNL1       -0.2229
     16 C          -2.9313  -17.9992   19.4029 C.ar    1  UNL1        0.1748
     17 N          -4.3681  -18.4161   19.2941 N.ar    1  UNL1       -0.3379
     18 H          -5.0611  -17.9693   18.7563 H       1  UNL1        0.1672
@<TRIPOS>BOND
     1    10    11    1
     2    11     9    1
     3     9     7    1
     4     7     8    3
     5     8     1    1
     6     1     2   ar
     7     2     3   ar
     8     3     4   ar
     9     4     5   ar
    10     5    12    1
    11    12    13    1
    12    13    14   ar
    13    14    15   ar
    14    15    16   ar
    15    16    17   ar
    16     5     6   ar
    17     6     1   ar
    18    17    13   ar
    19    17    18    1
@<TRIPOS>MOLECULE
*****
 18 19 0 0 0
SMALL
GASTEIGER

@<TRIPOS>ATOM
      1 C          -7.1941  -17.6659   22.6786 C.ar    1  UNL1        0.0413
      2 C          -6.8599  -16.4655   23.5136 C.ar    1  UNL1        0.0082
      3 C          -5.4345  -16.1849   23.8869 C.ar    1  UNL1        0.0003
      4 C          -4.3433  -17.1047   23.4253 C.ar    1  UNL1       -0.0038
      5 C          -4.6775  -18.3051   22.5903 C.ar    1  UNL1       -0.0156
      6 C          -6.1029  -18.5858   22.2170 C.ar    1  UNL1        0.0044
      7 C         -10.0450  -18.2272   21.9320 C.1     1  UNL1       -0.0864
      8 C          -8.6196  -17.9466   22.3053 C.1     1  UNL1       -0.0644
      9 C         -11.4705  -18.5078   21.5587 C.3     1  UNL1        0.0764
     10 C         -13.2473  -17.8713   23.3441 C.3     1  UNL1        0.0011
     11 C         -12.5638  -17.5991   22.0369 C.3     1  UNL1        0.0140
     12 C          -3.5863  -19.2250   22.1286 C.3     1  UNL1        0.0715
     13 C          -2.6048  -18.7637   21.0924 C.ar    1  UNL1        0.0586
     14 C          -2.7718  -18.8798   19.6063 C.ar    1  UNL1        0.1134
     15 N          -1.5543  -18.2931   18.9557 N.ar    1  UNL1       -0.2229
     16 C          -0.6347  -17.8143   20.0398 C.ar    1  UNL1        0.1748
     17 N          -1.2840  -18.1051   21.3603 N.ar    1  UNL1       -0.3379
     18 H          -0.9090  -17.8998   22.2472 H       1  UNL1        0.1672
@<TRIPOS>BOND
     1    10    11    1
     2    11     9    1
     3     9     7    1
     4     7     8    3
     5     8     1    1
     6     1     2   ar
     7     2     3   ar
     8     3     4   ar
     9     4     5   ar
    10     5    12    1
    11    12    13    1
    12    13    14   ar
    13    14    15   ar
    14    15    16   ar
    15    16    17   ar
    16     5     6   ar
    17     6     1   ar
    18    17    13   ar
    19    17    18    1
@<TRIPOS>MOLECULE
*****
 18 19 0 0 0
SMALL
GASTEIGER

@<TRIPOS>ATOM
      1 C          -5.4992  -15.9454   24.4597 C.ar    1  UNL1        0.0413
      2 C          -5.2543  -15.5215   25.8776 C.ar    1  UNL1        0.0082
      3 C          -6.4112  -15.3234   26.8116 C.ar    1  UNL1        0.0003
      4 C          -7.8129  -15.5492   26.3278 C.ar    1  UNL1       -0.0038
      5 C          -8.0578  -15.9731   24.9100 C.ar    1  UNL1       -0.0156
      6 C          -6.9009  -16.1712   23.9760 C.ar    1  UNL1        0.0044
      7 C          -3.1855  -16.3415   22.5917 C.1     1  UNL1       -0.0864
      8 C          -4.3423  -16.1434   23.5257 C.1     1  UNL1       -0.0644
      9 C          -2.0286  -16.5396   21.6576 C.3     1  UNL1        0.0764
     10 C          -2.0853  -19.0853   21.1417 C.3     1  UNL1        0.0011
     11 C          -2.0503  -17.6636   20.6646 C.3     1  UNL1        0.0140
     12 C          -9.4596  -16.1989   24.4261 C.3     1  UNL1        0.0715
     13 C          -9.9711  -17.5959   24.2351 C.ar    1  UNL1        0.0586
     14 C         -10.5325  -18.1633   22.9651 C.ar    1  UNL1        0.1134
     15 N         -10.9195  -19.5889   23.2256 N.ar    1  UNL1       -0.2229
     16 C         -10.5973  -19.9027   24.6566 C.ar    1  UNL1        0.1748
     17 N         -10.0112  -18.6709   25.2805 N.ar    1  UNL1       -0.3379
     18 H          -9.7063  -18.5833   26.2125 H       1  UNL1        0.1672
@<TRIPOS>BOND
     1    10    11    1
     2    11     9    1
     3     9     7    1
     4     7     8    3
     5     8     1    1
     6     1     2   ar
     7     2     3   ar
     8     3     4   ar
     9     4     5   ar
    10     5    12    1
    11    12    13    1
    12    13    14   ar
    13    14    15   ar
    14    15    16   ar
    15    16    17   ar
    16     5     6   ar
    17     6     1   ar
    18    17    13   ar
    19    17    18    1
@<TRIPOS>MOLECULE
*****
 18 19 0 0 0
SMALL
GASTEIGER

@<TRIPOS>ATOM
      1 C          -7.7864  -19.3101   20.3888 C.ar    1  UNL1        0.0413
      2 C          -8.6546  -19.6618   19.2173 C.ar    1  UNL1        0.0082
      3 C         -10.1479  -19.6414   19.3575 C.ar    1  UNL1        0.0003
      4 C         -10.7730  -19.2693   20.6693 C.ar    1  UNL1       -0.0038
      5 C          -9.9048  -18.9176   21.8408 C.ar    1  UNL1       -0.0156
      6 C          -8.4116  -18.9380   21.7006 C.ar    1  UNL1        0.0044
      7 C          -4.7999  -19.3509   20.1083 C.1     1  UNL1       -0.0864
      8 C          -6.2932  -19.3305   20.2486 C.1     1  UNL1       -0.0644
      9 C          -3.3066  -19.3713   19.9681 C.3     1  UNL1        0.0764
     10 C          -1.7324  -17.7893   18.6380 C.3     1  UNL1        0.0011
     11 C          -2.5454  -18.0831   19.8639 C.3     1  UNL1        0.0140
     12 C         -10.5299  -18.5455   23.1526 C.3     1  UNL1        0.0715
     13 C          -9.8422  -17.5701   24.0612 C.ar    1  UNL1        0.0586
     14 C          -9.3479  -17.8551   25.4485 C.ar    1  UNL1        0.1134
     15 N          -8.7282  -16.5996   25.9868 N.ar    1  UNL1       -0.2229
     16 C          -8.8396  -15.5386   24.9322 C.ar    1  UNL1        0.1748
     17 N          -9.5281  -16.1385   23.7422 N.ar    1  UNL1       -0.3379
     18 H          -9.7371  -15.6741   22.8996 H       1  UNL1        0.1672
@<TRIPOS>BOND
     1    10    11    1
     2    11     9    1
     3     9     7    1
     4     7     8    3
     5     8     1    1
     6     1     2   ar
     7     2     3   ar
     8     3     4   ar
     9     4     5   ar
    10     5    12    1
    11    12    13    1
    12    13    14   ar
    13    14    15   ar
    14    15    16   ar
    15    16    17   ar
    16     5     6   ar
    17     6     1   ar
    18    17    13   ar
    19    17    18    1
@<TRIPOS>MOLECULE
*****
 18 19 0 0 0
SMALL
GASTEIGER

@<TRIPOS>ATOM
      1 C          -7.3319  -19.1762   20.5059 C.ar    1  UNL1        0.0413
      2 C          -8.1360  -19.8236   19.4177 C.ar    1  UNL1        0.0082
      3 C          -9.6117  -19.5715   19.3245 C.ar    1  UNL1        0.0003
      4 C         -10.2833  -18.6720   20.3193 C.ar    1  UNL1       -0.0038
      5 C          -9.4792  -18.0246   21.4075 C.ar    1  UNL1       -0.0156
      6 C          -8.0034  -18.2767   21.5008 C.ar    1  UNL1        0.0044
      7 C          -4.3804  -19.6803   20.6925 C.1     1  UNL1       -0.0864
      8 C          -5.8561  -19.4282   20.5992 C.1     1  UNL1       -0.0644
      9 C          -2.9047  -19.9324   20.7857 C.3     1  UNL1        0.0764
     10 C          -2.1283  -18.1878   19.0242 C.3     1  UNL1        0.0011
     11 C          -1.9342  -18.8785   20.3414 C.3     1  UNL1        0.0140
     12 C         -10.1507  -17.1250   22.4025 C.3     1  UNL1        0.0715
     13 C         -11.3652  -17.6005   23.1434 C.ar    1  UNL1        0.0586
     14 C         -11.3710  -18.5188   24.3294 C.ar    1  UNL1        0.1134
     15 N         -12.7964  -18.7270   24.7474 N.ar    1  UNL1       -0.2229
     16 C         -13.6716  -17.9374   23.8197 C.ar    1  UNL1        0.1748
     17 N         -12.7870  -17.2412   22.8284 N.ar    1  UNL1       -0.3379
     18 H         -13.0870  -16.6519   22.0990 H       1  UNL1        0.1672
@<TRIPOS>BOND
     1    10    11    1
     2    11     9    1
     3     9     7    1
     4     7     8    3
     5     8     1    1
     6     1     2   ar
     7     2     3   ar
     8     3     4   ar
     9     4     5   ar
    10     5    12    1
    11    12    13    1
    12    13    14   ar
    13    14    15   ar
    14    15    16   ar
    15    16    17   ar
    16     5     6   ar
    17     6     1   ar
    18    17    13   ar
    19    17    18    1
@<TRIPOS>MOLECULE
*****
 18 19 0 0 0
SMALL
GASTEIGER

@<TRIPOS>ATOM
      1 C          -6.6998  -18.0960   22.2991 C.ar    1  UNL1        0.0413
      2 C          -5.5928  -19.0182   21.8820 C.ar    1  UNL1        0.0082
      3 C          -5.8219  -20.0183   20.7878 C.ar    1  UNL1        0.0003
      4 C          -7.1581  -20.0963   20.1107 C.ar    1  UNL1       -0.0038
      5 C          -8.2652  -19.1741   20.5279 C.ar    1  UNL1       -0.0156
      6 C          -8.0360  -18.1740   21.6220 C.ar    1  UNL1        0.0044
      7 C          -6.2415  -16.0958   24.4875 C.1     1  UNL1       -0.0864
      8 C          -6.4707  -17.0959   23.3933 C.1     1  UNL1       -0.0644
      9 C          -6.0124  -15.0956   25.5816 C.3     1  UNL1        0.0764
     10 C          -7.9273  -15.7734   27.2014 C.3     1  UNL1        0.0011
     11 C          -6.4980  -15.3805   26.9719 C.3     1  UNL1        0.0140
     12 C          -9.6014  -19.2521   19.8508 C.3     1  UNL1        0.0715
     13 C         -10.6560  -18.2291   20.1527 C.ar    1  UNL1        0.0586
     14 C         -11.8583  -18.4335   21.0261 C.ar    1  UNL1        0.1134
     15 N         -12.6388  -17.1528   21.0475 N.ar    1  UNL1       -0.2229
     16 C         -11.9190  -16.1568   20.1873 C.ar    1  UNL1        0.1748
     17 N         -10.6935  -16.8220   19.6344 N.ar    1  UNL1       -0.3379
     18 H         -10.0303  -16.4078   19.0363 H       1  UNL1        0.1672
@<TRIPOS>BOND
     1    10    11    1
     2    11     9    1
     3     9     7    1
     4     7     8    3
     5     8     1    1
     6     1     2   ar
     7     2     3   ar
     8     3     4   ar
     9     4     5   ar
    10     5    12    1
    11    12    13    1
    12    13    14   ar
    13    14    15   ar
    14    15    16   ar
    15    16    17   ar
    16     5     6   ar
    17     6     1   ar
    18    17    13   ar
    19    17    18    1
