@<TRIPOS>MOLECULE
*****
 24 26 0 0 0
SMALL
GASTEIGER

@<TRIPOS>ATOM
      1 C         -10.7481  -18.5644   19.6665 C.3     1  UNL1        0.0755
      2 C         -10.9172  -18.0889   21.0790 C.ar    1  UNL1        0.1591
      3 O         -12.2225  -17.8434   21.7764 O.2     1  UNL1       -0.3576
      4 N         -11.9227  -17.3781   23.1706 N.ar    1  UNL1       -0.0772
      5 C         -10.4323  -17.3361   23.3349 C.ar    1  UNL1        0.1278
      6 C          -9.8109  -17.7754   22.0422 C.ar    1  UNL1        0.1075
      7 C          -9.6931  -16.9267   24.5743 C.ar    1  UNL1        0.0316
      8 C          -9.1141  -15.5471   24.6809 C.ar    1  UNL1        0.0024
      9 C          -8.3749  -15.1376   25.9202 C.ar    1  UNL1        0.0001
     10 C          -8.2148  -16.1078   27.0529 C.ar    1  UNL1        0.0009
     11 C          -8.7937  -17.4874   26.9462 C.ar    1  UNL1        0.0114
     12 C          -9.5329  -17.8969   25.7069 C.ar    1  UNL1        0.0592
     13 CL        -10.1119  -19.2765   25.6003 Cl      1  UNL1       -0.0822
     14 C          -8.3412  -17.8824   21.7620 C.2     1  UNL1        0.2571
     15 O          -7.6098  -16.7282   21.1430 O.2     1  UNL1       -0.2694
     16 N          -7.6029  -19.1433   22.1005 N.am    1  UNL1       -0.2533
     17 C          -8.3343  -20.2975   22.7195 C.3     1  UNL1        0.1203
     18 C          -6.1332  -19.2503   21.8202 C.ar    1  UNL1        0.0542
     19 C          -5.1489  -18.5296   22.6930 C.ar    1  UNL1        0.0158
     20 C          -3.6792  -18.6366   22.4127 C.ar    1  UNL1        0.0127
     21 C          -3.1939  -19.4642   21.2598 C.ar    1  UNL1        0.0578
     22 CL         -1.7242  -19.5712   20.9795 Cl      1  UNL1       -0.0822
     23 C          -4.1782  -20.1850   20.3869 C.ar    1  UNL1        0.0127
     24 C          -5.6479  -20.0780   20.6672 C.ar    1  UNL1        0.0158
@<TRIPOS>BOND
     1     1     2    1
     2     2     3   ar
     3     3     4   ar
     4     4     5   ar
     5     5     7    1
     6     7     8   ar
     7     8     9   ar
     8     9    10   ar
     9    10    11   ar
    10    11    12   ar
    11    12    13    1
    12     5     6   ar
    13     6    14    1
    14    14    15    2
    15    14    16   am
    16    16    17    1
    17    16    18    1
    18    18    19   ar
    19    19    20   ar
    20    20    21   ar
    21    21    22    1
    22    21    23   ar
    23    23    24   ar
    24     6     2   ar
    25    24    18   ar
    26    12     7   ar
@<TRIPOS>MOLECULE
*****
 24 26 0 0 0
SMALL
GASTEIGER

@<TRIPOS>ATOM
      1 C         -10.7165  -19.1576   19.8892 C.3     1  UNL1        0.0755
      2 C         -10.8245  -18.5697   21.2649 C.ar    1  UNL1        0.1591
      3 O         -12.0976  -18.2994   22.0108 O.2     1  UNL1       -0.3576
      4 N         -11.7383  -17.7115   23.3432 N.ar    1  UNL1       -0.0772
      5 C         -10.2432  -17.6185   23.4208 C.ar    1  UNL1        0.1278
      6 C          -9.6784  -18.1488   22.1364 C.ar    1  UNL1        0.1075
      7 C          -9.4517  -17.0881   24.5795 C.ar    1  UNL1        0.0316
      8 C          -9.4591  -17.8184   25.8897 C.ar    1  UNL1        0.0024
      9 C          -8.6678  -17.2881   27.0484 C.ar    1  UNL1        0.0001
     10 C          -7.8690  -16.0276   26.8968 C.ar    1  UNL1        0.0009
     11 C          -7.8616  -15.2974   25.5866 C.ar    1  UNL1        0.0114
     12 C          -8.6529  -15.8276   24.4279 C.ar    1  UNL1        0.0592
     13 CL         -8.6455  -15.0974   23.1177 Cl      1  UNL1       -0.0822
     14 C          -8.2232  -18.2421   21.7850 C.2     1  UNL1        0.2571
     15 O          -7.5595  -17.1248   21.0358 O.2     1  UNL1       -0.2694
     16 N          -7.4315  -19.4524   22.1829 N.am    1  UNL1       -0.2533
     17 C          -8.0952  -20.5697   22.9321 C.3     1  UNL1        0.1203
     18 C          -5.9762  -19.5456   21.8315 C.ar    1  UNL1        0.0542
     19 C          -4.9592  -18.8014   22.6450 C.ar    1  UNL1        0.0158
     20 C          -3.5039  -18.8946   22.2936 C.ar    1  UNL1        0.0127
     21 C          -3.0657  -19.7320   21.1289 C.ar    1  UNL1        0.0578
     22 CL         -1.6104  -19.8252   20.7776 Cl      1  UNL1       -0.0822
     23 C          -4.0827  -20.4763   20.3154 C.ar    1  UNL1        0.0127
     24 C          -5.5380  -20.3830   20.6668 C.ar    1  UNL1        0.0158
@<TRIPOS>BOND
     1     1     2    1
     2     2     3   ar
     3     3     4   ar
     4     4     5   ar
     5     5     7    1
     6     7     8   ar
     7     8     9   ar
     8     9    10   ar
     9    10    11   ar
    10    11    12   ar
    11    12    13    1
    12     5     6   ar
    13     6    14    1
    14    14    15    2
    15    14    16   am
    16    16    17    1
    17    16    18    1
    18    18    19   ar
    19    19    20   ar
    20    20    21   ar
    21    21    22    1
    22    21    23   ar
    23    23    24   ar
    24     6     2   ar
    25    24    18   ar
    26    12     7   ar
@<TRIPOS>MOLECULE
*****
 24 26 0 0 0
SMALL
GASTEIGER

@<TRIPOS>ATOM
      1 C          -9.0009  -20.1563   18.8207 C.3     1  UNL1        0.0755
      2 C          -9.5738  -19.6678   20.1181 C.ar    1  UNL1        0.1591
      3 O         -10.9824  -19.8715   20.5922 O.2     1  UNL1       -0.3576
      4 N         -11.1178  -19.2195   21.9362 N.ar    1  UNL1       -0.0772
      5 C          -9.7931  -18.6130   22.2929 C.ar    1  UNL1        0.1278
      6 C          -8.8389  -18.8900   21.1692 C.ar    1  UNL1        0.1075
      7 C          -9.4780  -17.8613   23.5522 C.ar    1  UNL1        0.0316
      8 C          -9.1252  -16.4048   23.4878 C.ar    1  UNL1        0.0024
      9 C          -8.8101  -15.6531   24.7470 C.ar    1  UNL1        0.0001
     10 C          -8.8478  -16.3579   26.0706 C.ar    1  UNL1        0.0009
     11 C          -9.2006  -17.8144   26.1349 C.ar    1  UNL1        0.0114
     12 C          -9.5157  -18.5661   24.8757 C.ar    1  UNL1        0.0592
     13 CL         -9.8685  -20.0225   24.9401 Cl      1  UNL1       -0.0822
     14 C          -7.4020  -18.4641   21.1075 C.2     1  UNL1        0.2571
     15 O          -7.0521  -17.0055   21.0912 O.2     1  UNL1       -0.2694
     16 N          -6.3149  -19.4966   21.0621 N.am    1  UNL1       -0.2533
     17 C          -6.6647  -20.9552   21.0784 C.3     1  UNL1        0.1203
     18 C          -4.8779  -19.0707   21.0003 C.ar    1  UNL1        0.0542
     19 C          -4.2054  -18.8910   19.6717 C.ar    1  UNL1        0.0158
     20 C          -2.7685  -18.4651   19.6099 C.ar    1  UNL1        0.0127
     21 C          -2.0041  -18.2188   20.8768 C.ar    1  UNL1        0.0578
     22 CL         -0.5672  -17.7929   20.8150 Cl      1  UNL1       -0.0822
     23 C          -2.6767  -18.3985   22.2055 C.ar    1  UNL1        0.0127
     24 C          -4.1136  -18.8244   22.2673 C.ar    1  UNL1        0.0158
@<TRIPOS>BOND
     1     1     2    1
     2     2     3   ar
     3     3     4   ar
     4     4     5   ar
     5     5     7    1
     6     7     8   ar
     7     8     9   ar
     8     9    10   ar
     9    10    11   ar
    10    11    12   ar
    11    12    13    1
    12     5     6   ar
    13     6    14    1
    14    14    15    2
    15    14    16   am
    16    16    17    1
    17    16    18    1
    18    18    19   ar
    19    19    20   ar
    20    20    21   ar
    21    21    22    1
    22    21    23   ar
    23    23    24   ar
    24     6     2   ar
    25    24    18   ar
    26    12     7   ar
@<TRIPOS>MOLECULE
*****
 24 26 0 0 0
SMALL
GASTEIGER

@<TRIPOS>ATOM
      1 C          -5.8969  -19.3160   19.9723 C.3     1  UNL1        0.0755
      2 C          -7.3951  -19.2602   19.9249 C.ar    1  UNL1        0.1591
      3 O          -8.2583  -19.7047   18.7814 O.2     1  UNL1       -0.3576
      4 N          -9.6898  -19.4694   19.1626 N.ar    1  UNL1       -0.0772
      5 C          -9.7114  -18.8795   20.5416 C.ar    1  UNL1        0.1278
      6 C          -8.2932  -18.7502   21.0127 C.ar    1  UNL1        0.1075
      7 C         -10.9363  -18.4876   21.3138 C.ar    1  UNL1        0.0316
      8 C         -11.2479  -19.1604   22.6177 C.ar    1  UNL1        0.0024
      9 C         -12.4727  -18.7686   23.3900 C.ar    1  UNL1        0.0001
     10 C         -13.3858  -17.7040   22.8583 C.ar    1  UNL1        0.0009
     11 C         -13.0742  -17.0312   21.5543 C.ar    1  UNL1        0.0114
     12 C         -11.8494  -17.4230   20.7821 C.ar    1  UNL1        0.0592
     13 CL        -11.5378  -16.7502   19.4782 Cl      1  UNL1       -0.0822
     14 C          -7.8508  -18.2064   22.3388 C.2     1  UNL1        0.2571
     15 O          -7.1948  -19.1114   23.3393 O.2     1  UNL1       -0.2694
     16 N          -8.0642  -16.7579   22.6645 N.am    1  UNL1       -0.2533
     17 C          -8.7202  -15.8530   21.6639 C.3     1  UNL1        0.1203
     18 C          -7.6218  -16.2141   23.9905 C.ar    1  UNL1        0.0542
     19 C          -6.1953  -15.7962   24.1916 C.ar    1  UNL1        0.0158
     20 C          -5.7528  -15.2525   25.5176 C.ar    1  UNL1        0.0127
     21 C          -6.7368  -15.1266   26.6427 C.ar    1  UNL1        0.0578
     22 CL         -6.2944  -14.5828   27.9687 Cl      1  UNL1       -0.0822
     23 C          -8.1634  -15.5445   26.4417 C.ar    1  UNL1        0.0127
     24 C          -8.6058  -16.0883   25.1156 C.ar    1  UNL1        0.0158
@<TRIPOS>BOND
     1     1     2    1
     2     2     3   ar
     3     3     4   ar
     4     4     5   ar
     5     5     7    1
     6     7     8   ar
     7     8     9   ar
     8     9    10   ar
     9    10    11   ar
    10    11    12   ar
    11    12    13    1
    12     5     6   ar
    13     6    14    1
    14    14    15    2
    15    14    16   am
    16    16    17    1
    17    16    18    1
    18    18    19   ar
    19    19    20   ar
    20    20    21   ar
    21    21    22    1
    22    21    23   ar
    23    23    24   ar
    24     6     2   ar
    25    24    18   ar
    26    12     7   ar
@<TRIPOS>MOLECULE
*****
 24 26 0 0 0
SMALL
GASTEIGER

@<TRIPOS>ATOM
      1 C           8.3946   -2.7970   19.7054 C.3     1  UNL1        0.0755
      2 C           7.1217   -2.2977   19.0887 C.ar    1  UNL1        0.1591
      3 O           6.7749   -2.3351   17.6298 O.2     1  UNL1       -0.3576
      4 N           5.4109   -1.7338   17.4621 N.ar    1  UNL1       -0.0772
      5 C           4.9148   -1.3249   18.8173 C.ar    1  UNL1        0.1278
      6 C           5.9721   -1.6734   19.8226 C.ar    1  UNL1        0.1075
      7 C           3.5933   -0.6805   19.1150 C.ar    1  UNL1        0.0316
      8 C           2.5239   -1.4560   19.8257 C.ar    1  UNL1        0.0024
      9 C           1.2025   -0.8117   20.1233 C.ar    1  UNL1        0.0001
     10 C           0.9504    0.6081   19.7103 C.ar    1  UNL1        0.0009
     11 C           2.0198    1.3836   18.9996 C.ar    1  UNL1        0.0114
     12 C           3.3412    0.7393   18.7020 C.ar    1  UNL1        0.0592
     13 CL          4.4106    1.5148   17.9913 Cl      1  UNL1       -0.0822
     14 C           5.8936   -1.4387   21.3021 C.2     1  UNL1        0.2571
     15 O           6.4093   -0.1570   21.8865 O.2     1  UNL1       -0.2694
     16 N           5.2997   -2.4856   22.1971 N.am    1  UNL1       -0.2533
     17 C           4.7840   -3.7673   21.6127 C.3     1  UNL1        0.1203
     18 C           5.2212   -2.2510   23.6765 C.ar    1  UNL1        0.0542
     19 C           4.0624   -1.4947   24.2556 C.ar    1  UNL1        0.0158
     20 C           3.9839   -1.2601   25.7350 C.ar    1  UNL1        0.0127
     21 C           5.0642   -1.7817   26.6354 C.ar    1  UNL1        0.0578
     22 CL          4.9858   -1.5470   28.1148 Cl      1  UNL1       -0.0822
     23 C           6.2231   -2.5379   26.0564 C.ar    1  UNL1        0.0127
     24 C           6.3016   -2.7726   24.5770 C.ar    1  UNL1        0.0158
@<TRIPOS>BOND
     1     1     2    1
     2     2     3   ar
     3     3     4   ar
     4     4     5   ar
     5     5     7    1
     6     7     8   ar
     7     8     9   ar
     8     9    10   ar
     9    10    11   ar
    10    11    12   ar
    11    12    13    1
    12     5     6   ar
    13     6    14    1
    14    14    15    2
    15    14    16   am
    16    16    17    1
    17    16    18    1
    18    18    19   ar
    19    19    20   ar
    20    20    21   ar
    21    21    22    1
    22    21    23   ar
    23    23    24   ar
    24     6     2   ar
    25    24    18   ar
    26    12     7   ar
@<TRIPOS>MOLECULE
*****
 24 26 0 0 0
SMALL
GASTEIGER

@<TRIPOS>ATOM
      1 C          -5.8672  -19.9163   20.4667 C.3     1  UNL1        0.0755
      2 C          -7.3057  -19.7121   20.0938 C.ar    1  UNL1        0.1591
      3 O          -8.0515  -20.4487   19.0208 O.2     1  UNL1       -0.3576
      4 N          -9.4577  -19.9273   18.9923 N.ar    1  UNL1       -0.0772
      5 C          -9.5809  -18.8683   20.0475 C.ar    1  UNL1        0.1278
      6 C          -8.2509  -18.7353   20.7283 C.ar    1  UNL1        0.1075
      7 C         -10.8171  -18.0807   20.3661 C.ar    1  UNL1        0.0316
      8 C         -11.0813  -16.7825   19.6626 C.ar    1  UNL1        0.0024
      9 C         -12.3175  -15.9949   19.9811 C.ar    1  UNL1        0.0001
     10 C         -13.2895  -16.5054   21.0031 C.ar    1  UNL1        0.0009
     11 C         -13.0253  -17.8036   21.7066 C.ar    1  UNL1        0.0114
     12 C         -11.7891  -18.5912   21.3881 C.ar    1  UNL1        0.0592
     13 CL        -11.5249  -19.8894   22.0916 Cl      1  UNL1       -0.0822
     14 C          -7.9236  -17.7914   21.8471 C.2     1  UNL1        0.2571
     15 O          -7.3373  -16.4442   21.5444 O.2     1  UNL1       -0.2694
     16 N          -8.1824  -18.1944   23.2685 N.am    1  UNL1       -0.2533
     17 C          -8.7687  -19.5416   23.5712 C.3     1  UNL1        0.1203
     18 C          -7.8550  -17.2504   24.3873 C.ar    1  UNL1        0.0542
     19 C          -6.6183  -16.4045   24.3172 C.ar    1  UNL1        0.0158
     20 C          -6.2910  -15.4605   25.4360 C.ar    1  UNL1        0.0127
     21 C          -7.2002  -15.3625   26.6248 C.ar    1  UNL1        0.0578
     22 CL         -6.8729  -14.4185   27.7436 Cl      1  UNL1       -0.0822
     23 C          -8.4370  -16.2084   26.6950 C.ar    1  UNL1        0.0127
     24 C          -8.7644  -17.1524   25.5762 C.ar    1  UNL1        0.0158
@<TRIPOS>BOND
     1     1     2    1
     2     2     3   ar
     3     3     4   ar
     4     4     5   ar
     5     5     7    1
     6     7     8   ar
     7     8     9   ar
     8     9    10   ar
     9    10    11   ar
    10    11    12   ar
    11    12    13    1
    12     5     6   ar
    13     6    14    1
    14    14    15    2
    15    14    16   am
    16    16    17    1
    17    16    18    1
    18    18    19   ar
    19    19    20   ar
    20    20    21   ar
    21    21    22    1
    22    21    23   ar
    23    23    24   ar
    24     6     2   ar
    25    24    18   ar
    26    12     7   ar
