@<TRIPOS>MOLECULE
*****
 29 31 0 0 0
SMALL
GASTEIGER

@<TRIPOS>ATOM
      1 C          -7.3379  -19.8023   22.4277 C.3     1  UNL1        0.1338
      2 C         -10.0126  -19.6763   20.5623 C.3     1  UNL1        0.0497
      3 C          -9.6447  -18.7033   21.6430 C.ar    1  UNL1        0.0355
      4 C         -10.4415  -17.5014   22.0560 C.ar    1  UNL1       -0.0020
      5 C          -9.7046  -16.8166   23.1686 C.ar    1  UNL1        0.0317
      6 C         -10.0122  -15.5846   23.9672 C.ar    1  UNL1        0.0043
      7 C          -9.0674  -15.1313   25.0403 C.ar    1  UNL1        0.0208
      8 C          -7.8151  -15.9099   25.3150 C.ar    1  UNL1        0.1005
      9 N          -7.5075  -17.1418   24.5165 N.ar    1  UNL1       -0.2268
     10 C          -8.4523  -17.5952   23.4433 C.ar    1  UNL1        0.1435
     11 N          -8.4152  -18.7612   22.5004 N.ar    1  UNL1       -0.3125
     12 C         -11.7463  -17.0616   21.4608 C.3     1  UNL1        0.0692
     13 C         -11.7592  -16.1012   20.3086 C.2     1  UNL1        0.0548
     14 O         -13.0536  -15.7586   19.6323 O.co2   1  UNL1       -0.5488
     15 O         -10.4779  -15.4835   19.8326 O.co2   1  UNL1       -0.5488
     16 C          -5.9830  -19.4436   21.8935 C.ar    1  UNL1        0.0044
     17 C          -5.0262  -18.6586   22.7412 C.ar    1  UNL1       -0.0011
     18 C          -3.6713  -18.2998   22.2070 C.ar    1  UNL1        0.0181
     19 C          -3.2730  -18.7260   20.8251 C.ar    1  UNL1        0.1057
     20 C          -4.2297  -19.5110   19.9774 C.ar    1  UNL1        0.0219
     21 C          -5.5846  -19.8698   20.5116 C.ar    1  UNL1        0.0706
     22 S          -1.9180  -18.3672   20.2909 S.O2    1  UNL1        0.0104
     23 C          -0.5631  -18.0084   19.7568 C.3     1  UNL1        0.1816
     24 O          -1.3682  -19.6595   20.8177 O.2     1  UNL1       -0.1686
     25 O          -2.4679  -17.0748   19.7641 O.2     1  UNL1       -0.1686
     26 C          -6.5412  -20.6547   19.6638 C.3     1  UNL1        0.4184
     27 F          -7.4978  -21.4396   18.8160 F       1  UNL1       -0.1659
     28 F          -5.9528  -21.9329   20.1834 F       1  UNL1       -0.1659
     29 F          -7.1296  -19.3766   19.1442 F       1  UNL1       -0.1659
@<TRIPOS>UNITY_ATOM_ATTR
14 1
charge -1
@<TRIPOS>BOND
     1     2     3    1
     2     3     4   ar
     3     4    12    1
     4    12    13    1
     5    13    14   ar
     6    13    15   ar
     7     4     5   ar
     8     5     6   ar
     9     6     7   ar
    10     7     8   ar
    11     8     9   ar
    12     9    10   ar
    13    10    11   ar
    14    11     1    1
    15     1    16    1
    16    16    17   ar
    17    17    18   ar
    18    18    19   ar
    19    19    22    1
    20    22    23    1
    21    22    24    2
    22    22    25    2
    23    19    20   ar
    24    20    21   ar
    25    21    26    1
    26    26    27    1
    27    26    28    1
    28    26    29    1
    29    11     3   ar
    30    21    16   ar
    31    10     5   ar
@<TRIPOS>MOLECULE
*****
 29 31 0 0 0
SMALL
GASTEIGER

@<TRIPOS>ATOM
      1 C          -8.7031  -18.3739   21.1352 C.3     1  UNL1        0.1338
      2 C          -6.1902  -20.4126   20.7128 C.3     1  UNL1        0.0497
      3 C          -6.1975  -19.1906   21.5826 C.ar    1  UNL1        0.0355
      4 C          -5.0511  -18.6910   22.4108 C.ar    1  UNL1       -0.0020
      5 C          -5.4975  -17.4451   23.1169 C.ar    1  UNL1        0.0317
      6 C          -4.7926  -16.5220   24.0661 C.ar    1  UNL1        0.0043
      7 C          -5.5102  -15.3285   24.6233 C.ar    1  UNL1        0.0208
      8 C          -6.9326  -15.0581   24.2314 C.ar    1  UNL1        0.1005
      9 N          -7.6375  -15.9812   23.2822 N.ar    1  UNL1       -0.2268
     10 C          -6.9199  -17.1747   22.7250 C.ar    1  UNL1        0.1435
     11 N          -7.3525  -18.2534   21.7767 N.ar    1  UNL1       -0.3125
     12 C          -3.6960  -19.3258   22.5148 C.3     1  UNL1        0.0692
     13 C          -2.7832  -19.3447   21.3245 C.2     1  UNL1        0.0548
     14 O          -1.6831  -20.3608   21.2391 O.co2   1  UNL1       -0.5488
     15 O          -2.9707  -18.3475   20.2198 O.co2   1  UNL1       -0.5488
     16 C          -9.9388  -18.3858   21.9853 C.ar    1  UNL1        0.0044
     17 C          -9.9936  -19.2399   23.2172 C.ar    1  UNL1       -0.0011
     18 C         -11.2294  -19.2518   24.0673 C.ar    1  UNL1        0.0181
     19 C         -12.4104  -18.4096   23.6856 C.ar    1  UNL1        0.1057
     20 C         -12.3557  -17.5554   22.4537 C.ar    1  UNL1        0.0219
     21 C         -11.1199  -17.5435   21.6036 C.ar    1  UNL1        0.0706
     22 S         -13.6462  -18.4215   24.5357 S.O2    1  UNL1        0.0104
     23 C         -14.8819  -18.4334   25.3858 C.3     1  UNL1        0.1816
     24 O         -14.4699  -18.0329   23.3438 O.2     1  UNL1       -0.1686
     25 O         -12.8225  -18.8101   25.7277 O.2     1  UNL1       -0.1686
     26 C         -11.0652  -16.6894   20.3718 C.3     1  UNL1        0.4184
     27 F         -11.0105  -15.8351   19.1400 F       1  UNL1       -0.1659
     28 F         -11.5957  -17.8312   19.5565 F       1  UNL1       -0.1659
     29 F         -10.5348  -15.5475   21.1871 F       1  UNL1       -0.1659
@<TRIPOS>UNITY_ATOM_ATTR
14 1
charge -1
@<TRIPOS>BOND
     1     2     3    1
     2     3     4   ar
     3     4    12    1
     4    12    13    1
     5    13    14   ar
     6    13    15   ar
     7     4     5   ar
     8     5     6   ar
     9     6     7   ar
    10     7     8   ar
    11     8     9   ar
    12     9    10   ar
    13    10    11   ar
    14    11     1    1
    15     1    16    1
    16    16    17   ar
    17    17    18   ar
    18    18    19   ar
    19    19    22    1
    20    22    23    1
    21    22    24    2
    22    22    25    2
    23    19    20   ar
    24    20    21   ar
    25    21    26    1
    26    26    27    1
    27    26    28    1
    28    26    29    1
    29    11     3   ar
    30    21    16   ar
    31    10     5   ar
@<TRIPOS>MOLECULE
*****
 29 31 0 0 0
SMALL
GASTEIGER

@<TRIPOS>ATOM
      1 C          -6.7379  -20.3224   22.3246 C.3     1  UNL1        0.1338
      2 C          -7.7877  -19.3723   19.3844 C.3     1  UNL1        0.0497
      3 C          -8.5634  -19.2925   20.6657 C.ar    1  UNL1        0.0355
      4 C          -9.9579  -18.7620   20.8206 C.ar    1  UNL1       -0.0020
      5 C         -10.3372  -18.8708   22.2678 C.ar    1  UNL1        0.0317
      6 C         -11.5890  -18.5028   23.0076 C.ar    1  UNL1        0.0043
      7 C         -11.6808  -18.7326   24.4871 C.ar    1  UNL1        0.0208
      8 C         -10.5208  -19.3304   25.2266 C.ar    1  UNL1        0.1005
      9 N          -9.2690  -19.6984   24.4867 N.ar    1  UNL1       -0.2268
     10 C          -9.1772  -19.4686   23.0073 C.ar    1  UNL1        0.1435
     11 N          -8.0809  -19.7292   22.0172 N.ar    1  UNL1       -0.3125
     12 C         -10.8215  -18.2181   19.7213 C.3     1  UNL1        0.0692
     13 C         -11.4095  -16.8432   19.8401 C.2     1  UNL1        0.0548
     14 O         -10.6272  -15.6503   19.3766 O.co2   1  UNL1       -0.5488
     15 O         -12.7799  -16.6613   20.4224 O.co2   1  UNL1       -0.5488
     16 C          -5.5141  -19.8111   21.6243 C.ar    1  UNL1        0.0044
     17 C          -4.9239  -20.5860   20.4834 C.ar    1  UNL1       -0.0011
     18 C          -3.7000  -20.0748   19.7830 C.ar    1  UNL1        0.0181
     19 C          -3.0661  -18.7886   20.2234 C.ar    1  UNL1        0.1057
     20 C          -3.6562  -18.0137   21.3642 C.ar    1  UNL1        0.0219
     21 C          -4.8801  -18.5250   22.0646 C.ar    1  UNL1        0.0706
     22 S          -1.8422  -18.2773   19.5230 S.O2    1  UNL1        0.0104
     23 C          -0.6183  -17.7661   18.8226 C.3     1  UNL1        0.1816
     24 O          -0.9802  -19.1263   20.4097 O.2     1  UNL1       -0.1686
     25 O          -2.7042  -17.4283   18.6362 O.2     1  UNL1       -0.1686
     26 C          -5.4701  -17.7500   23.2054 C.3     1  UNL1        0.4184
     27 F          -6.0601  -16.9751   24.3461 F       1  UNL1       -0.1659
     28 F          -6.6222  -17.3450   22.3344 F       1  UNL1       -0.1659
     29 F          -4.3181  -18.1551   24.0764 F       1  UNL1       -0.1659
@<TRIPOS>UNITY_ATOM_ATTR
14 1
charge -1
@<TRIPOS>BOND
     1     2     3    1
     2     3     4   ar
     3     4    12    1
     4    12    13    1
     5    13    14   ar
     6    13    15   ar
     7     4     5   ar
     8     5     6   ar
     9     6     7   ar
    10     7     8   ar
    11     8     9   ar
    12     9    10   ar
    13    10    11   ar
    14    11     1    1
    15     1    16    1
    16    16    17   ar
    17    17    18   ar
    18    18    19   ar
    19    19    22    1
    20    22    23    1
    21    22    24    2
    22    22    25    2
    23    19    20   ar
    24    20    21   ar
    25    21    26    1
    26    26    27    1
    27    26    28    1
    28    26    29    1
    29    11     3   ar
    30    21    16   ar
    31    10     5   ar
@<TRIPOS>MOLECULE
*****
 29 31 0 0 0
SMALL
GASTEIGER

@<TRIPOS>ATOM
      1 C          -6.3242  -18.7975   22.9376 C.3     1  UNL1        0.1338
      2 C          -8.3168  -16.3512   23.7710 C.3     1  UNL1        0.0497
      3 C          -8.5001  -17.2803   22.6078 C.ar    1  UNL1        0.0355
      4 C          -9.6314  -17.2481   21.6234 C.ar    1  UNL1       -0.0020
      5 C          -9.4147  -18.3526   20.6319 C.ar    1  UNL1        0.0317
      6 C         -10.2060  -18.7998   19.4387 C.ar    1  UNL1        0.0043
      7 C          -9.7321  -19.9619   18.6171 C.ar    1  UNL1        0.0208
      8 C          -8.4668  -20.6767   18.9888 C.ar    1  UNL1        0.1005
      9 N          -7.6755  -20.2295   20.1820 N.ar    1  UNL1       -0.2268
     10 C          -8.1494  -19.0675   21.0035 C.ar    1  UNL1        0.1435
     11 N          -7.5842  -18.4047   22.2247 N.ar    1  UNL1       -0.3125
     12 C         -10.7781  -16.2811   21.6294 C.3     1  UNL1        0.0692
     13 C         -11.4439  -15.8992   20.3405 C.2     1  UNL1        0.0548
     14 O         -10.6730  -15.1574   19.2892 O.co2   1  UNL1       -0.5488
     15 O         -12.8806  -16.2593   20.1031 O.co2   1  UNL1       -0.5488
     16 C          -4.9899  -18.5141   22.3137 C.ar    1  UNL1        0.0044
     17 C          -4.5888  -19.2152   21.0497 C.ar    1  UNL1       -0.0011
     18 C          -3.2545  -18.9318   20.4258 C.ar    1  UNL1        0.0181
     19 C          -2.3213  -17.9472   21.0659 C.ar    1  UNL1        0.1057
     20 C          -2.7223  -17.2461   22.3298 C.ar    1  UNL1        0.0219
     21 C          -4.0566  -17.5295   22.9537 C.ar    1  UNL1        0.0706
     22 S          -0.9870  -17.6638   20.4419 S.O2    1  UNL1        0.0104
     23 C           0.3473  -17.3804   19.8180 C.3     1  UNL1        0.1816
     24 O          -0.8998  -19.0886   19.9811 O.2     1  UNL1       -0.1686
     25 O          -1.0741  -16.2389   20.9027 O.2     1  UNL1       -0.1686
     26 C          -4.4576  -16.8283   24.2177 C.3     1  UNL1        0.4184
     27 F          -4.8587  -16.1271   25.4815 F       1  UNL1       -0.1659
     28 F          -3.7685  -17.8886   25.0245 F       1  UNL1       -0.1659
     29 F          -5.1468  -15.7681   23.4109 F       1  UNL1       -0.1659
@<TRIPOS>UNITY_ATOM_ATTR
14 1
charge -1
@<TRIPOS>BOND
     1     2     3    1
     2     3     4   ar
     3     4    12    1
     4    12    13    1
     5    13    14   ar
     6    13    15   ar
     7     4     5   ar
     8     5     6   ar
     9     6     7   ar
    10     7     8   ar
    11     8     9   ar
    12     9    10   ar
    13    10    11   ar
    14    11     1    1
    15     1    16    1
    16    16    17   ar
    17    17    18   ar
    18    18    19   ar
    19    19    22    1
    20    22    23    1
    21    22    24    2
    22    22    25    2
    23    19    20   ar
    24    20    21   ar
    25    21    26    1
    26    26    27    1
    27    26    28    1
    28    26    29    1
    29    11     3   ar
    30    21    16   ar
    31    10     5   ar
@<TRIPOS>MOLECULE
*****
 29 31 0 0 0
SMALL
GASTEIGER

@<TRIPOS>ATOM
      1 C          -7.0598  -20.3755   22.6037 C.3     1  UNL1        0.1338
      2 C          -9.7272  -21.1992   24.2938 C.3     1  UNL1        0.0497
      3 C          -9.4311  -19.8461   23.7180 C.ar    1  UNL1        0.0355
      4 C         -10.3091  -18.6340   23.8180 C.ar    1  UNL1       -0.0020
      5 C          -9.6257  -17.5063   23.1029 C.ar    1  UNL1        0.0317
      6 C         -10.0195  -16.0770   22.8752 C.ar    1  UNL1        0.0043
      7 C          -9.1130  -15.1628   22.1056 C.ar    1  UNL1        0.0208
      8 C          -7.8126  -15.6779   21.5638 C.ar    1  UNL1        0.1005
      9 N          -7.4188  -17.1072   21.7915 N.ar    1  UNL1       -0.2268
     10 C          -8.3253  -18.0215   22.5610 C.ar    1  UNL1        0.1435
     11 N          -8.2051  -19.4675   22.9412 N.ar    1  UNL1       -0.3125
     12 C         -11.6374  -18.5622   24.5112 C.3     1  UNL1        0.0692
     13 C         -12.8757  -18.2407   23.7281 C.2     1  UNL1        0.0548
     14 O         -12.7957  -18.0523   22.2422 O.co2   1  UNL1       -0.5488
     15 O         -14.1942  -18.1076   24.4311 O.co2   1  UNL1       -0.5488
     16 C          -5.8457  -19.8271   21.9147 C.ar    1  UNL1        0.0044
     17 C          -4.7319  -19.2279   22.7213 C.ar    1  UNL1       -0.0011
     18 C          -3.5177  -18.6794   22.0323 C.ar    1  UNL1        0.0181
     19 C          -3.4172  -18.7301   20.5365 C.ar    1  UNL1        0.1057
     20 C          -4.5308  -19.3292   19.7298 C.ar    1  UNL1        0.0219
     21 C          -5.7451  -19.8777   20.4189 C.ar    1  UNL1        0.0706
     22 S          -2.2030  -18.1816   19.8474 S.O2    1  UNL1        0.0104
     23 C          -0.9887  -17.6331   19.1584 C.3     1  UNL1        0.1816
     24 O          -1.3333  -19.1138   20.6378 O.2     1  UNL1       -0.1686
     25 O          -3.0726  -17.2493   19.0570 O.2     1  UNL1       -0.1686
     26 C          -6.8587  -20.4769   19.6122 C.3     1  UNL1        0.4184
     27 F          -7.9723  -21.0761   18.8055 F       1  UNL1       -0.1659
     28 F          -7.4646  -19.1158   19.4377 F       1  UNL1       -0.1659
     29 F          -6.2528  -21.8379   19.7866 F       1  UNL1       -0.1659
@<TRIPOS>UNITY_ATOM_ATTR
14 1
charge -1
@<TRIPOS>BOND
     1     2     3    1
     2     3     4   ar
     3     4    12    1
     4    12    13    1
     5    13    14   ar
     6    13    15   ar
     7     4     5   ar
     8     5     6   ar
     9     6     7   ar
    10     7     8   ar
    11     8     9   ar
    12     9    10   ar
    13    10    11   ar
    14    11     1    1
    15     1    16    1
    16    16    17   ar
    17    17    18   ar
    18    18    19   ar
    19    19    22    1
    20    22    23    1
    21    22    24    2
    22    22    25    2
    23    19    20   ar
    24    20    21   ar
    25    21    26    1
    26    26    27    1
    27    26    28    1
    28    26    29    1
    29    11     3   ar
    30    21    16   ar
    31    10     5   ar
@<TRIPOS>MOLECULE
*****
 29 31 0 0 0
SMALL
GASTEIGER

@<TRIPOS>ATOM
      1 C          -6.9419  -20.4009   21.8294 C.3     1  UNL1        0.1338
      2 C          -4.0677  -20.8934   20.3644 C.3     1  UNL1        0.0497
      3 C          -4.4303  -19.7172   21.2218 C.ar    1  UNL1        0.0355
      4 C          -3.5354  -18.5608   21.5563 C.ar    1  UNL1       -0.0020
      5 C          -4.3034  -17.6197   22.4364 C.ar    1  UNL1        0.0317
      6 C          -3.9326  -16.3137   23.0741 C.ar    1  UNL1        0.0043
      7 C          -4.9313  -15.5824   23.9213 C.ar    1  UNL1        0.0208
      8 C          -6.3009  -16.1572   24.1307 C.ar    1  UNL1        0.1005
      9 N          -6.6717  -17.4633   23.4930 N.ar    1  UNL1       -0.2268
     10 C          -5.6730  -18.1945   22.6458 C.ar    1  UNL1        0.1435
     11 N          -5.7514  -19.4908   21.8952 N.ar    1  UNL1       -0.3125
     12 C          -2.1208  -18.3776   21.0922 C.3     1  UNL1        0.0692
     13 C          -1.8449  -17.9093   19.6940 C.2     1  UNL1        0.0548
     14 O          -2.9108  -17.1931   18.9188 O.co2   1  UNL1       -0.5488
     15 O          -0.5030  -18.1572   19.0712 O.co2   1  UNL1       -0.5488
     16 C          -8.3019  -19.8844   22.1946 C.ar    1  UNL1        0.0044
     17 C          -8.7597  -19.9213   23.6226 C.ar    1  UNL1       -0.0011
     18 C         -10.1198  -19.4048   23.9879 C.ar    1  UNL1        0.0181
     19 C         -11.0221  -18.8513   22.9250 C.ar    1  UNL1        0.1057
     20 C         -10.5644  -18.8145   21.4971 C.ar    1  UNL1        0.0219
     21 C          -9.2043  -19.3310   21.1319 C.ar    1  UNL1        0.0706
     22 S         -12.3822  -18.3348   23.2903 S.O2    1  UNL1        0.0104
     23 C         -13.7423  -17.8183   23.6555 C.3     1  UNL1        0.1816
     24 O         -12.1346  -18.6971   24.7247 O.2     1  UNL1       -0.1686
     25 O         -12.6299  -17.9726   21.8559 O.2     1  UNL1       -0.1686
     26 C          -8.7467  -19.2941   19.7039 C.3     1  UNL1        0.4184
     27 F          -8.2889  -19.2571   18.2759 F       1  UNL1       -0.1659
     28 F          -9.7901  -20.3095   19.3432 F       1  UNL1       -0.1659
     29 F          -7.7032  -18.2786   20.0645 F       1  UNL1       -0.1659
@<TRIPOS>UNITY_ATOM_ATTR
14 1
charge -1
@<TRIPOS>BOND
     1     2     3    1
     2     3     4   ar
     3     4    12    1
     4    12    13    1
     5    13    14   ar
     6    13    15   ar
     7     4     5   ar
     8     5     6   ar
     9     6     7   ar
    10     7     8   ar
    11     8     9   ar
    12     9    10   ar
    13    10    11   ar
    14    11     1    1
    15     1    16    1
    16    16    17   ar
    17    17    18   ar
    18    18    19   ar
    19    19    22    1
    20    22    23    1
    21    22    24    2
    22    22    25    2
    23    19    20   ar
    24    20    21   ar
    25    21    26    1
    26    26    27    1
    27    26    28    1
    28    26    29    1
    29    11     3   ar
    30    21    16   ar
    31    10     5   ar
@<TRIPOS>MOLECULE
*****
 29 31 0 0 0
SMALL
GASTEIGER

@<TRIPOS>ATOM
      1 C          -7.3979  -18.2827   23.3521 C.3     1  UNL1        0.1338
      2 C          -4.7419  -16.5542   24.1315 C.3     1  UNL1        0.0497
      3 C          -4.8033  -17.6766   23.1383 C.ar    1  UNL1        0.0355
      4 C          -3.6547  -18.2015   22.3290 C.ar    1  UNL1       -0.0020
      5 C          -4.1656  -19.3205   21.4705 C.ar    1  UNL1        0.0317
      6 C          -3.4865  -20.2092   20.4710 C.ar    1  UNL1        0.0043
      7 C          -4.2719  -21.2644   19.7503 C.ar    1  UNL1        0.0208
      8 C          -5.7363  -21.4310   20.0290 C.ar    1  UNL1        0.1005
      9 N          -6.4154  -20.5423   21.0285 N.ar    1  UNL1       -0.2268
     10 C          -5.6300  -19.4871   21.7493 C.ar    1  UNL1        0.1435
     11 N          -6.0241  -18.4711   22.7800 N.ar    1  UNL1       -0.3125
     12 C          -2.2429  -17.6963   22.3708 C.3     1  UNL1        0.0692
     13 C          -1.8527  -16.4933   21.5641 C.2     1  UNL1        0.0548
     14 O          -2.5432  -15.1813   21.7919 O.co2   1  UNL1       -0.5488
     15 O          -0.7719  -16.6023   20.5296 O.co2   1  UNL1       -0.5488
     16 C          -8.4990  -17.7340   22.4939 C.ar    1  UNL1        0.0044
     17 C          -9.2209  -18.6331   21.5344 C.ar    1  UNL1       -0.0011
     18 C         -10.3220  -18.0845   20.6762 C.ar    1  UNL1        0.0181
     19 C         -10.7012  -16.6367   20.7774 C.ar    1  UNL1        0.1057
     20 C          -9.9793  -15.7377   21.7369 C.ar    1  UNL1        0.0219
     21 C          -8.8782  -16.2863   22.5951 C.ar    1  UNL1        0.0706
     22 S         -11.8023  -16.0881   19.9192 S.O2    1  UNL1        0.0104
     23 C         -12.9034  -15.5395   19.0610 C.3     1  UNL1        0.1816
     24 O         -12.7930  -16.9587   20.6337 O.2     1  UNL1       -0.1686
     25 O         -10.8116  -15.2174   19.2046 O.2     1  UNL1       -0.1686
     26 C          -8.1564  -15.3872   23.5545 C.3     1  UNL1        0.4184
     27 F          -7.4345  -14.4881   24.5139 F       1  UNL1       -0.1659
     28 F          -9.0925  -15.8043   24.6498 F       1  UNL1       -0.1659
     29 F          -7.2202  -14.9700   22.4593 F       1  UNL1       -0.1659
@<TRIPOS>UNITY_ATOM_ATTR
14 1
charge -1
@<TRIPOS>BOND
     1     2     3    1
     2     3     4   ar
     3     4    12    1
     4    12    13    1
     5    13    14   ar
     6    13    15   ar
     7     4     5   ar
     8     5     6   ar
     9     6     7   ar
    10     7     8   ar
    11     8     9   ar
    12     9    10   ar
    13    10    11   ar
    14    11     1    1
    15     1    16    1
    16    16    17   ar
    17    17    18   ar
    18    18    19   ar
    19    19    22    1
    20    22    23    1
    21    22    24    2
    22    22    25    2
    23    19    20   ar
    24    20    21   ar
    25    21    26    1
    26    26    27    1
    27    26    28    1
    28    26    29    1
    29    11     3   ar
    30    21    16   ar
    31    10     5   ar
@<TRIPOS>MOLECULE
*****
 29 31 0 0 0
SMALL
GASTEIGER

@<TRIPOS>ATOM
      1 C          -7.5777  -19.8980   21.9581 C.3     1  UNL1        0.1338
      2 C          -5.2829  -21.4162   20.2036 C.3     1  UNL1        0.0497
      3 C          -5.0892  -20.1743   21.0222 C.ar    1  UNL1        0.0355
      4 C          -3.8067  -19.4121   21.1781 C.ar    1  UNL1       -0.0020
      5 C          -4.0689  -18.2432   22.0809 C.ar    1  UNL1        0.0317
      6 C          -3.1789  -17.1479   22.5888 C.ar    1  UNL1        0.0043
      7 C          -3.7334  -16.0922   23.4987 C.ar    1  UNL1        0.0208
      8 C          -5.1780  -16.1320   23.9008 C.ar    1  UNL1        0.1005
      9 N          -6.0680  -17.2273   23.3929 N.ar    1  UNL1       -0.2268
     10 C          -5.5134  -18.2830   22.4830 C.ar    1  UNL1        0.1435
     11 N          -6.1440  -19.4764   21.8287 N.ar    1  UNL1       -0.3125
     12 C          -2.4927  -19.7581   20.5428 C.3     1  UNL1        0.0692
     13 C          -1.7388  -18.7197   19.7657 C.2     1  UNL1        0.0548
     14 O          -0.2389  -18.7141   19.7805 O.co2   1  UNL1       -0.5488
     15 O          -2.4850  -17.6870   18.9740 O.co2   1  UNL1       -0.5488
     16 C          -8.6727  -18.9869   21.4884 C.ar    1  UNL1        0.0044
     17 C          -9.2159  -17.9318   22.4060 C.ar    1  UNL1       -0.0011
     18 C         -10.3109  -17.0206   21.9363 C.ar    1  UNL1        0.0181
     19 C         -10.8629  -17.1645   20.5489 C.ar    1  UNL1        0.1057
     20 C         -10.3198  -18.2196   19.6314 C.ar    1  UNL1        0.0219
     21 C          -9.2248  -19.1307   20.1011 C.ar    1  UNL1        0.0706
     22 S         -11.9580  -16.2534   20.0793 S.O2    1  UNL1        0.0104
     23 C         -13.0530  -15.3422   19.6096 C.3     1  UNL1        0.1816
     24 O         -12.9560  -17.0441   20.8721 O.2     1  UNL1       -0.1686
     25 O         -10.9599  -15.4625   19.2863 O.2     1  UNL1       -0.1686
     26 C          -8.6818  -20.1858   19.1835 C.3     1  UNL1        0.4184
     27 F          -8.1388  -21.2408   18.2659 F       1  UNL1       -0.1659
     28 F          -7.4950  -19.3175   18.8875 F       1  UNL1       -0.1659
     29 F          -9.8686  -21.0540   19.4794 F       1  UNL1       -0.1659
@<TRIPOS>UNITY_ATOM_ATTR
14 1
charge -1
@<TRIPOS>BOND
     1     2     3    1
     2     3     4   ar
     3     4    12    1
     4    12    13    1
     5    13    14   ar
     6    13    15   ar
     7     4     5   ar
     8     5     6   ar
     9     6     7   ar
    10     7     8   ar
    11     8     9   ar
    12     9    10   ar
    13    10    11   ar
    14    11     1    1
    15     1    16    1
    16    16    17   ar
    17    17    18   ar
    18    18    19   ar
    19    19    22    1
    20    22    23    1
    21    22    24    2
    22    22    25    2
    23    19    20   ar
    24    20    21   ar
    25    21    26    1
    26    26    27    1
    27    26    28    1
    28    26    29    1
    29    11     3   ar
    30    21    16   ar
    31    10     5   ar
@<TRIPOS>MOLECULE
*****
 29 31 0 0 0
SMALL
GASTEIGER

@<TRIPOS>ATOM
      1 C          -7.5813  -16.7777   23.6314 C.3     1  UNL1        0.1338
      2 C          -9.5646  -17.6549   26.0700 C.3     1  UNL1        0.0497
      3 C          -9.7755  -17.9462   24.6137 C.ar    1  UNL1        0.0355
      4 C         -10.9351  -18.6918   24.0226 C.ar    1  UNL1       -0.0020
      5 C         -10.7402  -18.7494   22.5365 C.ar    1  UNL1        0.0317
      6 C         -11.5629  -19.3567   21.4391 C.ar    1  UNL1        0.0043
      7 C         -11.1055  -19.2539   20.0142 C.ar    1  UNL1        0.0208
      8 C          -9.8254  -18.5439   19.6868 C.ar    1  UNL1        0.1005
      9 N          -9.0027  -17.9366   20.7842 N.ar    1  UNL1       -0.2268
     10 C          -9.4601  -18.0394   22.2090 C.ar    1  UNL1        0.1435
     11 N          -8.8639  -17.5430   23.4929 N.ar    1  UNL1       -0.3125
     12 C         -12.0874  -19.2771   24.7840 C.3     1  UNL1        0.0692
     13 C         -13.4003  -18.5530   24.8313 C.2     1  UNL1        0.0548
     14 O         -13.7795  -17.6144   23.7244 O.co2   1  UNL1       -0.5488
     15 O         -14.3339  -18.7675   25.9856 O.co2   1  UNL1       -0.5488
     16 C          -6.3072  -17.3426   23.0771 C.ar    1  UNL1        0.0044
     17 C          -6.3532  -18.4849   22.1059 C.ar    1  UNL1       -0.0011
     18 C          -5.0791  -19.0499   21.5515 C.ar    1  UNL1        0.0181
     19 C          -3.7588  -18.4726   21.9684 C.ar    1  UNL1        0.1057
     20 C          -3.7128  -17.3304   22.9396 C.ar    1  UNL1        0.0219
     21 C          -4.9869  -16.7654   23.4939 C.ar    1  UNL1        0.0706
     22 S          -2.4847  -19.0376   21.4140 S.O2    1  UNL1        0.0104
     23 C          -1.2106  -19.6026   20.8596 C.3     1  UNL1        0.1816
     24 O          -1.7429  -18.5520   22.6239 O.2     1  UNL1       -0.1686
     25 O          -3.2265  -19.5233   20.2040 O.2     1  UNL1       -0.1686
     26 C          -4.9407  -15.6232   24.4651 C.3     1  UNL1        0.4184
     27 F          -4.8946  -14.4811   25.4364 F       1  UNL1       -0.1659
     28 F          -5.0360  -14.6513   23.3266 F       1  UNL1       -0.1659
     29 F          -4.8455  -16.5951   25.6036 F       1  UNL1       -0.1659
@<TRIPOS>UNITY_ATOM_ATTR
14 1
charge -1
@<TRIPOS>BOND
     1     2     3    1
     2     3     4   ar
     3     4    12    1
     4    12    13    1
     5    13    14   ar
     6    13    15   ar
     7     4     5   ar
     8     5     6   ar
     9     6     7   ar
    10     7     8   ar
    11     8     9   ar
    12     9    10   ar
    13    10    11   ar
    14    11     1    1
    15     1    16    1
    16    16    17   ar
    17    17    18   ar
    18    18    19   ar
    19    19    22    1
    20    22    23    1
    21    22    24    2
    22    22    25    2
    23    19    20   ar
    24    20    21   ar
    25    21    26    1
    26    26    27    1
    27    26    28    1
    28    26    29    1
    29    11     3   ar
    30    21    16   ar
    31    10     5   ar
