@<TRIPOS>MOLECULE
*****
 24 26 0 0 0
SMALL
GASTEIGER

@<TRIPOS>ATOM
      1 C          -8.6805  -17.0295   22.4874 C.ar    1  UNL1       -0.0143
      2 C          -8.0654  -18.3351   22.0786 C.ar    1  UNL1        0.0051
      3 S          -9.1756  -19.2799   21.7252 S.2     1  UNL1       -0.0915
      4 C         -10.4767  -18.5582   21.9156 C.ar    1  UNL1        0.0288
      5 C         -11.9006  -18.9878   21.7209 C.ar    1  UNL1        0.0065
      6 C         -13.0185  -18.0266   21.9972 C.ar    1  UNL1        0.0005
      7 C         -12.7124  -16.6358   22.4683 C.ar    1  UNL1        0.0000
      8 C         -11.2886  -16.2061   22.6630 C.ar    1  UNL1        0.0002
      9 C         -10.1707  -17.1673   22.3867 C.ar    1  UNL1        0.0025
     10 C          -7.9360  -15.8015   22.9208 C.3     1  UNL1        0.0657
     11 C          -7.6306  -14.7198   21.9274 C.3     1  UNL1        0.0111
     12 C          -6.0400  -15.5056   24.6724 C.ar    1  UNL1        0.1525
     13 C          -5.6009  -15.3593   26.0992 C.ar    1  UNL1        0.0397
     14 C          -6.6185  -15.3625   27.2012 C.ar    1  UNL1        0.0238
     15 C          -8.0753  -15.5120   26.8764 C.ar    1  UNL1        0.0987
     16 N          -8.5144  -15.6584   25.4497 N.ar    1  UNL1       -0.2448
     17 C          -7.4968  -15.6552   24.3475 C.ar    1  UNL1        0.0965
     18 C          -4.0255  -16.6185   23.4668 C.3     1  UNL1        0.2525
     19 O          -5.0224  -15.5024   23.5704 O.3     1  UNL1       -0.4702
     20 C          -6.5979  -18.6420   22.0315 C.3     1  UNL1        0.0499
     21 C          -5.9757  -19.1371   20.7596 C.3     1  UNL1        0.0774
     22 N          -4.4849  -19.1144   20.5956 N.3     1  UNL1       -0.2700
     23 C          -3.8758  -18.5366   19.3525 C.3     1  UNL1        0.0897
     24 C          -3.6031  -19.6696   21.6746 C.3     1  UNL1        0.0897
@<TRIPOS>BOND
     1    18    19    1
     2    19    12    1
     3    12    13   ar
     4    13    14   ar
     5    14    15   ar
     6    15    16   ar
     7    16    17   ar
     8    17    10    1
     9    10    11    1
    10    10     1    1
    11     1     2   ar
    12     2    20    1
    13    20    21    1
    14    21    22    1
    15    22    23    1
    16    22    24    1
    17     2     3   ar
    18     3     4   ar
    19     4     5   ar
    20     5     6   ar
    21     6     7   ar
    22     7     8   ar
    23     8     9   ar
    24    17    12   ar
    25     9     1   ar
    26     9     4   ar
@<TRIPOS>MOLECULE
*****
 24 26 0 0 0
SMALL
GASTEIGER

@<TRIPOS>ATOM
      1 C          -7.0023  -18.5581   21.7872 C.ar    1  UNL1       -0.0143
      2 C          -6.6940  -17.5276   22.8326 C.ar    1  UNL1        0.0051
      3 S          -5.2099  -17.5173   23.0498 S.2     1  UNL1       -0.0915
      4 C          -4.6009  -18.5415   22.1386 C.ar    1  UNL1        0.0288
      5 C          -3.1808  -18.9714   21.9187 C.ar    1  UNL1        0.0065
      6 C          -2.8685  -20.0446   20.9185 C.ar    1  UNL1        0.0005
      7 C          -3.9762  -20.6879   20.1381 C.ar    1  UNL1        0.0000
      8 C          -5.3963  -20.2580   20.3580 C.ar    1  UNL1        0.0002
      9 C          -5.7087  -19.1848   21.3583 C.ar    1  UNL1        0.0025
     10 C          -8.3649  -18.9018   21.2627 C.3     1  UNL1        0.0657
     11 C          -8.5243  -19.3957   19.8552 C.3     1  UNL1        0.0111
     12 C         -10.5569  -17.6538   21.8855 C.ar    1  UNL1        0.1525
     13 C         -11.7602  -17.5037   22.7683 C.ar    1  UNL1        0.0397
     14 C         -11.9750  -18.4512   23.9111 C.ar    1  UNL1        0.0238
     15 C         -10.9864  -19.5490   24.1711 C.ar    1  UNL1        0.0987
     16 N          -9.7830  -19.6992   23.2883 N.ar    1  UNL1       -0.2448
     17 C          -9.5682  -18.7516   22.1454 C.ar    1  UNL1        0.0965
     18 C         -11.4806  -16.3647   19.8276 C.3     1  UNL1        0.2525
     19 O         -10.3422  -16.7062   20.7427 O.3     1  UNL1       -0.4702
     20 C          -7.6943  -16.6597   23.5370 C.3     1  UNL1        0.0499
     21 C          -7.2467  -15.4003   24.2179 C.3     1  UNL1        0.0774
     22 N          -6.9275  -15.4127   25.6835 N.3     1  UNL1       -0.2700
     23 C          -5.5057  -15.2790   26.1425 C.3     1  UNL1        0.0897
     24 C          -8.0300  -15.5589   26.6900 C.3     1  UNL1        0.0897
@<TRIPOS>BOND
     1    18    19    1
     2    19    12    1
     3    12    13   ar
     4    13    14   ar
     5    14    15   ar
     6    15    16   ar
     7    16    17   ar
     8    17    10    1
     9    10    11    1
    10    10     1    1
    11     1     2   ar
    12     2    20    1
    13    20    21    1
    14    21    22    1
    15    22    23    1
    16    22    24    1
    17     2     3   ar
    18     3     4   ar
    19     4     5   ar
    20     5     6   ar
    21     6     7   ar
    22     7     8   ar
    23     8     9   ar
    24    17    12   ar
    25     9     1   ar
    26     9     4   ar
@<TRIPOS>MOLECULE
*****
 24 26 0 0 0
SMALL
GASTEIGER

@<TRIPOS>ATOM
      1 C          -7.8779  -18.4939   22.5470 C.ar    1  UNL1       -0.0143
      2 C          -7.3181  -17.2979   23.2584 C.ar    1  UNL1        0.0051
      3 S          -5.8426  -17.2491   22.9925 S.2     1  UNL1       -0.0915
      4 C          -5.4906  -18.4149   22.1167 C.ar    1  UNL1        0.0288
      5 C          -4.1872  -18.8753   21.5344 C.ar    1  UNL1        0.0065
      6 C          -4.1417  -20.1051   20.6768 C.ar    1  UNL1        0.0005
      7 C          -5.3996  -20.8744   20.4014 C.ar    1  UNL1        0.0000
      8 C          -6.7030  -20.4140   20.9837 C.ar    1  UNL1        0.0002
      9 C          -6.7485  -19.1843   21.8414 C.ar    1  UNL1        0.0025
     10 C          -9.3149  -18.9241   22.5420 C.3     1  UNL1        0.0657
     11 C          -9.7047  -20.2443   23.1380 C.3     1  UNL1        0.0111
     12 C         -10.4380  -17.8642   20.4526 C.ar    1  UNL1        0.1525
     13 C         -11.4853  -16.9743   19.8518 C.ar    1  UNL1        0.0397
     14 C         -12.4568  -16.2541   20.7392 C.ar    1  UNL1        0.0238
     15 C         -12.3810  -16.4240   22.2277 C.ar    1  UNL1        0.0987
     16 N         -11.3337  -17.3140   22.8285 N.ar    1  UNL1       -0.2448
     17 C         -10.3621  -18.0341   21.9411 C.ar    1  UNL1        0.0965
     18 C          -9.7861  -19.9622   19.0656 C.3     1  UNL1        0.2525
     19 O          -9.4666  -18.5843   19.5651 O.3     1  UNL1       -0.4702
     20 C          -8.0969  -16.3221   24.0898 C.3     1  UNL1        0.0499
     21 C          -7.4027  -15.1497   24.7172 C.3     1  UNL1        0.0774
     22 N          -6.7034  -15.3093   26.0346 N.3     1  UNL1       -0.2700
     23 C          -5.2113  -15.1764   26.1126 C.3     1  UNL1        0.0897
     24 C          -7.4961  -15.6018   27.2740 C.3     1  UNL1        0.0897
@<TRIPOS>BOND
     1    18    19    1
     2    19    12    1
     3    12    13   ar
     4    13    14   ar
     5    14    15   ar
     6    15    16   ar
     7    16    17   ar
     8    17    10    1
     9    10    11    1
    10    10     1    1
    11     1     2   ar
    12     2    20    1
    13    20    21    1
    14    21    22    1
    15    22    23    1
    16    22    24    1
    17     2     3   ar
    18     3     4   ar
    19     4     5   ar
    20     5     6   ar
    21     6     7   ar
    22     7     8   ar
    23     8     9   ar
    24    17    12   ar
    25     9     1   ar
    26     9     4   ar
@<TRIPOS>MOLECULE
*****
 24 26 0 0 0
SMALL
GASTEIGER

@<TRIPOS>ATOM
      1 C          -7.9846  -17.2791   22.2265 C.ar    1  UNL1       -0.0143
      2 C          -6.9615  -18.3700   22.1121 C.ar    1  UNL1        0.0051
      3 S          -7.6076  -19.5421   21.4348 S.2     1  UNL1       -0.0915
      4 C          -9.0300  -19.1756   21.1306 C.ar    1  UNL1        0.0288
      5 C         -10.1431  -19.9347   20.4713 C.ar    1  UNL1        0.0065
      6 C         -11.4892  -19.2951   20.3013 C.ar    1  UNL1        0.0005
      7 C         -11.7222  -17.8964   20.7906 C.ar    1  UNL1        0.0000
      8 C         -10.6091  -17.1373   21.4499 C.ar    1  UNL1        0.0002
      9 C          -9.2630  -17.7769   21.6199 C.ar    1  UNL1        0.0025
     10 C          -7.7675  -15.9275   22.8398 C.3     1  UNL1        0.0657
     11 C          -7.8799  -14.6934   21.9944 C.3     1  UNL1        0.0111
     12 C          -8.3950  -16.3329   25.3281 C.ar    1  UNL1        0.1525
     13 C          -8.0654  -16.2153   26.7867 C.ar    1  UNL1        0.0397
     14 C          -6.7788  -15.5746   27.2156 C.ar    1  UNL1        0.0238
     15 C          -5.8216  -15.0515   26.1859 C.ar    1  UNL1        0.0987
     16 N          -6.1512  -15.1691   24.7273 N.ar    1  UNL1       -0.2448
     17 C          -7.4379  -15.8099   24.2983 C.ar    1  UNL1        0.0965
     18 C          -9.9161  -18.4324   25.1588 C.3     1  UNL1        0.2525
     19 O          -9.6817  -16.9737   24.8993 O.3     1  UNL1       -0.4702
     20 C          -5.5417  -18.3010   22.5910 C.3     1  UNL1        0.0499
     21 C          -4.6027  -19.4389   22.3199 C.3     1  UNL1        0.0774
     22 N          -3.6607  -19.3726   21.1544 N.3     1  UNL1       -0.2700
     23 C          -2.1935  -19.6061   21.3617 C.3     1  UNL1        0.0897
     24 C          -4.1859  -19.0729   19.7818 C.3     1  UNL1        0.0897
@<TRIPOS>BOND
     1    18    19    1
     2    19    12    1
     3    12    13   ar
     4    13    14   ar
     5    14    15   ar
     6    15    16   ar
     7    16    17   ar
     8    17    10    1
     9    10    11    1
    10    10     1    1
    11     1     2   ar
    12     2    20    1
    13    20    21    1
    14    21    22    1
    15    22    23    1
    16    22    24    1
    17     2     3   ar
    18     3     4   ar
    19     4     5   ar
    20     5     6   ar
    21     6     7   ar
    22     7     8   ar
    23     8     9   ar
    24    17    12   ar
    25     9     1   ar
    26     9     4   ar
@<TRIPOS>MOLECULE
*****
 24 26 0 0 0
SMALL
GASTEIGER

@<TRIPOS>ATOM
      1 C          -7.2441  -18.4916   21.6216 C.ar    1  UNL1       -0.0143
      2 C          -6.9938  -17.5780   22.7846 C.ar    1  UNL1        0.0051
      3 S          -5.5369  -17.6588   23.1323 S.2     1  UNL1       -0.0915
      4 C          -4.8868  -18.6223   22.1842 C.ar    1  UNL1        0.0288
      5 C          -3.4704  -19.0975   22.0504 C.ar    1  UNL1        0.0065
      6 C          -3.1091  -20.0875   20.9830 C.ar    1  UNL1        0.0005
      7 C          -4.1643  -20.6022   20.0493 C.ar    1  UNL1        0.0000
      8 C          -5.5807  -20.1270   20.1831 C.ar    1  UNL1        0.0002
      9 C          -5.9419  -19.1371   21.2505 C.ar    1  UNL1        0.0025
     10 C          -8.5648  -18.7198   20.9479 C.3     1  UNL1        0.0657
     11 C          -8.6414  -19.5749   19.7178 C.3     1  UNL1        0.0111
     12 C         -10.6502  -18.8451   22.4924 C.ar    1  UNL1        0.1525
     13 C         -11.8942  -18.2183   23.0487 C.ar    1  UNL1        0.0397
     14 C         -12.2968  -16.8394   22.6169 C.ar    1  UNL1        0.0238
     15 C         -11.4554  -16.0872   21.6288 C.ar    1  UNL1        0.0987
     16 N         -10.2114  -16.7141   21.0725 N.ar    1  UNL1       -0.2448
     17 C          -9.8087  -18.0930   21.5043 C.ar    1  UNL1        0.0965
     18 C          -9.5402  -20.4239   24.2318 C.3     1  UNL1        0.2525
     19 O         -10.2476  -20.2240   22.9242 O.3     1  UNL1       -0.4702
     20 C          -8.0202  -16.7321   23.4781 C.3     1  UNL1        0.0499
     21 C          -7.6121  -15.4488   24.1390 C.3     1  UNL1        0.0774
     22 N          -7.2040  -15.4452   25.5824 N.3     1  UNL1       -0.2700
     23 C          -8.2300  -15.6745   26.6524 C.3     1  UNL1        0.0897
     24 C          -5.7701  -15.2122   25.9558 C.3     1  UNL1        0.0897
@<TRIPOS>BOND
     1    18    19    1
     2    19    12    1
     3    12    13   ar
     4    13    14   ar
     5    14    15   ar
     6    15    16   ar
     7    16    17   ar
     8    17    10    1
     9    10    11    1
    10    10     1    1
    11     1     2   ar
    12     2    20    1
    13    20    21    1
    14    21    22    1
    15    22    23    1
    16    22    24    1
    17     2     3   ar
    18     3     4   ar
    19     4     5   ar
    20     5     6   ar
    21     6     7   ar
    22     7     8   ar
    23     8     9   ar
    24    17    12   ar
    25     9     1   ar
    26     9     4   ar
@<TRIPOS>MOLECULE
*****
 24 26 0 0 0
SMALL
GASTEIGER

@<TRIPOS>ATOM
      1 C          -6.4394  -17.3771   22.7046 C.ar    1  UNL1       -0.0143
      2 C          -5.4920  -16.6647   23.6239 C.ar    1  UNL1        0.0051
      3 S          -4.1374  -17.2899   23.4685 S.2     1  UNL1       -0.0915
      4 C          -4.2476  -18.3886   22.4532 C.ar    1  UNL1        0.0288
      5 C          -3.2362  -19.3469   21.8977 C.ar    1  UNL1        0.0065
      6 C          -3.6476  -20.3591   20.8700 C.ar    1  UNL1        0.0005
      7 C          -5.0703  -20.4130   20.3979 C.ar    1  UNL1        0.0000
      8 C          -6.0817  -19.4547   20.9534 C.ar    1  UNL1        0.0002
      9 C          -5.6703  -18.4425   21.9811 C.ar    1  UNL1        0.0025
     10 C          -7.8996  -17.0768   22.5381 C.3     1  UNL1        0.0657
     11 C          -8.3353  -15.7423   22.0094 C.3     1  UNL1        0.0111
     12 C          -9.6612  -18.8465   21.8206 C.ar    1  UNL1        0.1525
     13 C         -10.6856  -19.8805   22.1827 C.ar    1  UNL1        0.0397
     14 C         -10.9731  -20.1789   23.6243 C.ar    1  UNL1        0.0238
     15 C         -10.2360  -19.4433   24.7039 C.ar    1  UNL1        0.0987
     16 N          -9.2115  -18.4092   24.3418 N.ar    1  UNL1       -0.2448
     17 C          -8.9240  -18.1108   22.9001 C.ar    1  UNL1        0.0965
     18 C          -9.5147  -19.6277   19.3471 C.3     1  UNL1        0.2525
     19 O          -9.3738  -18.5482   20.3789 O.3     1  UNL1       -0.4702
     20 C          -5.8384  -15.5270   24.5380 C.3     1  UNL1        0.0499
     21 C          -6.2707  -15.8024   25.9477 C.3     1  UNL1        0.0774
     22 N          -7.7289  -15.7989   26.2993 N.3     1  UNL1       -0.2700
     23 C          -8.2027  -16.4951   27.5406 C.3     1  UNL1        0.0897
     24 C          -8.7132  -15.0992   25.4097 C.3     1  UNL1        0.0897
@<TRIPOS>BOND
     1    18    19    1
     2    19    12    1
     3    12    13   ar
     4    13    14   ar
     5    14    15   ar
     6    15    16   ar
     7    16    17   ar
     8    17    10    1
     9    10    11    1
    10    10     1    1
    11     1     2   ar
    12     2    20    1
    13    20    21    1
    14    21    22    1
    15    22    23    1
    16    22    24    1
    17     2     3   ar
    18     3     4   ar
    19     4     5   ar
    20     5     6   ar
    21     6     7   ar
    22     7     8   ar
    23     8     9   ar
    24    17    12   ar
    25     9     1   ar
    26     9     4   ar
@<TRIPOS>MOLECULE
*****
 24 26 0 0 0
SMALL
GASTEIGER

@<TRIPOS>ATOM
      1 C          -7.2666  -18.1638   21.9460 C.ar    1  UNL1       -0.0143
      2 C          -5.8383  -18.6146   21.8637 C.ar    1  UNL1        0.0051
      3 S          -5.0486  -17.8398   22.8766 S.2     1  UNL1       -0.0915
      4 C          -5.9888  -16.9101   23.5849 C.ar    1  UNL1        0.0288
      5 C          -5.7738  -15.9071   24.6793 C.ar    1  UNL1        0.0065
      6 C          -6.9296  -15.1043   25.1985 C.ar    1  UNL1        0.0005
      7 C          -8.3004  -15.3045   24.6234 C.ar    1  UNL1        0.0000
      8 C          -8.5154  -16.3075   23.5290 C.ar    1  UNL1        0.0002
      9 C          -7.3596  -17.1103   23.0098 C.ar    1  UNL1        0.0025
     10 C          -8.4025  -18.6763   21.1111 C.3     1  UNL1        0.0657
     11 C          -8.1354  -19.6355   19.9891 C.3     1  UNL1        0.0111
     12 C         -10.6326  -18.9619   22.4130 C.ar    1  UNL1        0.1525
     13 C         -12.0356  -18.5154   22.7000 C.ar    1  UNL1        0.0397
     14 C         -12.6114  -17.3370   21.9722 C.ar    1  UNL1        0.0238
     15 C         -11.7842  -16.6050   20.9573 C.ar    1  UNL1        0.0987
     16 N         -10.3812  -17.0515   20.6703 N.ar    1  UNL1       -0.2448
     17 C          -9.8054  -18.2299   21.3982 C.ar    1  UNL1        0.0965
     18 C          -9.8203  -20.0657   24.6202 C.3     1  UNL1        0.2525
     19 O         -10.0569  -20.1403   23.1409 O.3     1  UNL1       -0.4702
     20 C          -5.2952  -19.6572   20.9320 C.3     1  UNL1        0.0499
     21 C          -4.4008  -19.2558   19.7968 C.3     1  UNL1        0.0774
     22 N          -2.9246  -19.1105   20.0201 N.3     1  UNL1       -0.2700
     23 C          -2.2815  -19.7439   21.2182 C.3     1  UNL1        0.0897
     24 C          -2.0917  -18.3319   19.0455 C.3     1  UNL1        0.0897
@<TRIPOS>BOND
     1    18    19    1
     2    19    12    1
     3    12    13   ar
     4    13    14   ar
     5    14    15   ar
     6    15    16   ar
     7    16    17   ar
     8    17    10    1
     9    10    11    1
    10    10     1    1
    11     1     2   ar
    12     2    20    1
    13    20    21    1
    14    21    22    1
    15    22    23    1
    16    22    24    1
    17     2     3   ar
    18     3     4   ar
    19     4     5   ar
    20     5     6   ar
    21     6     7   ar
    22     7     8   ar
    23     8     9   ar
    24    17    12   ar
    25     9     1   ar
    26     9     4   ar
@<TRIPOS>MOLECULE
*****
 24 26 0 0 0
SMALL
GASTEIGER

@<TRIPOS>ATOM
      1 C          -7.4511  -18.2823   21.8209 C.ar    1  UNL1       -0.0143
      2 C          -7.4763  -17.0167   22.6256 C.ar    1  UNL1        0.0051
      3 S          -8.7842  -16.3292   22.3674 S.2     1  UNL1       -0.0915
      4 C          -9.5673  -17.1699   21.4030 C.ar    1  UNL1        0.0288
      5 C         -10.9242  -16.9922   20.7889 C.ar    1  UNL1        0.0065
      6 C         -11.4572  -18.0216   19.8369 C.ar    1  UNL1        0.0005
      7 C         -10.6333  -19.2287   19.4991 C.ar    1  UNL1        0.0000
      8 C          -9.2764  -19.4064   20.1133 C.ar    1  UNL1        0.0002
      9 C          -8.7434  -18.3770   21.0653 C.ar    1  UNL1        0.0025
     10 C          -6.3303  -19.2784   21.7790 C.3     1  UNL1        0.0657
     11 C          -6.5216  -20.6475   22.3615 C.3     1  UNL1        0.0111
     12 C          -3.8138  -18.6792   22.0193 C.ar    1  UNL1        0.1525
     13 C          -2.5019  -18.3064   21.3950 C.ar    1  UNL1        0.0397
     14 C          -2.3945  -18.1599   19.9060 C.ar    1  UNL1        0.0238
     15 C          -3.5992  -18.3863   19.0413 C.ar    1  UNL1        0.0987
     16 N          -4.9111  -18.7591   19.6657 N.ar    1  UNL1       -0.2448
     17 C          -5.0185  -18.9056   21.1547 C.ar    1  UNL1        0.0965
     18 C          -3.2976  -17.8014   24.4095 C.3     1  UNL1        0.2525
     19 O          -3.9210  -18.8257   23.5083 O.3     1  UNL1       -0.4702
     20 C          -6.3851  -16.5250   23.5298 C.3     1  UNL1        0.0499
     21 C          -6.6021  -15.3021   24.3708 C.3     1  UNL1        0.0774
     22 N          -7.1275  -15.4371   25.7693 N.3     1  UNL1       -0.2700
     23 C          -6.1742  -15.5016   26.9257 C.3     1  UNL1        0.0897
     24 C          -8.6061  -15.5076   26.0115 C.3     1  UNL1        0.0897
@<TRIPOS>BOND
     1    18    19    1
     2    19    12    1
     3    12    13   ar
     4    13    14   ar
     5    14    15   ar
     6    15    16   ar
     7    16    17   ar
     8    17    10    1
     9    10    11    1
    10    10     1    1
    11     1     2   ar
    12     2    20    1
    13    20    21    1
    14    21    22    1
    15    22    23    1
    16    22    24    1
    17     2     3   ar
    18     3     4   ar
    19     4     5   ar
    20     5     6   ar
    21     6     7   ar
    22     7     8   ar
    23     8     9   ar
    24    17    12   ar
    25     9     1   ar
    26     9     4   ar
@<TRIPOS>MOLECULE
*****
 24 26 0 0 0
SMALL
GASTEIGER

@<TRIPOS>ATOM
      1 C          -8.4175  -18.0354   22.4204 C.ar    1  UNL1       -0.0143
      2 C          -7.9602  -16.6801   22.8719 C.ar    1  UNL1        0.0051
      3 S          -9.0915  -15.7169   22.6660 S.2     1  UNL1       -0.0915
      4 C         -10.2480  -16.4770   22.0872 C.ar    1  UNL1        0.0288
      5 C         -11.6265  -16.0494   21.6788 C.ar    1  UNL1        0.0065
      6 C         -12.5884  -17.0548   21.1187 C.ar    1  UNL1        0.0005
      7 C         -12.1718  -18.4877   20.9669 C.ar    1  UNL1        0.0000
      8 C         -10.7933  -18.9153   21.3753 C.ar    1  UNL1        0.0002
      9 C          -9.8314  -17.9099   21.9354 C.ar    1  UNL1        0.0025
     10 C          -7.6037  -19.2952   22.4488 C.3     1  UNL1        0.0657
     11 C          -8.1315  -20.5134   23.1471 C.3     1  UNL1        0.0111
     12 C          -6.1596  -19.1554   20.2936 C.ar    1  UNL1        0.1525
     13 C          -4.8181  -19.1971   19.6239 C.ar    1  UNL1        0.0397
     14 C          -3.5792  -19.4203   20.4395 C.ar    1  UNL1        0.0238
     15 C          -3.6818  -19.6018   21.9250 C.ar    1  UNL1        0.0987
     16 N          -5.0233  -19.5601   22.5947 N.ar    1  UNL1       -0.2448
     17 C          -6.2623  -19.3369   21.7791 C.ar    1  UNL1        0.0965
     18 C          -8.2335  -20.1015   19.0471 C.3     1  UNL1        0.2525
     19 O          -7.3984  -18.9322   19.4779 O.3     1  UNL1       -0.4702
     20 C          -6.6089  -16.3465   23.4311 C.3     1  UNL1        0.0499
     21 C          -6.4670  -15.2520   24.4469 C.3     1  UNL1        0.0774
     22 N          -6.8686  -15.4944   25.8717 N.3     1  UNL1       -0.2700
     23 C          -5.8233  -15.7944   26.9049 C.3     1  UNL1        0.0897
     24 C          -8.3154  -15.4368   26.2633 C.3     1  UNL1        0.0897
@<TRIPOS>BOND
     1    18    19    1
     2    19    12    1
     3    12    13   ar
     4    13    14   ar
     5    14    15   ar
     6    15    16   ar
     7    16    17   ar
     8    17    10    1
     9    10    11    1
    10    10     1    1
    11     1     2   ar
    12     2    20    1
    13    20    21    1
    14    21    22    1
    15    22    23    1
    16    22    24    1
    17     2     3   ar
    18     3     4   ar
    19     4     5   ar
    20     5     6   ar
    21     6     7   ar
    22     7     8   ar
    23     8     9   ar
    24    17    12   ar
    25     9     1   ar
    26     9     4   ar
