@<TRIPOS>MOLECULE
*****
 100 101 0 0 0
SMALL
GASTEIGER

@<TRIPOS>ATOM
      1 C          -6.6029    6.3210   25.0524 C.3    11  UNK11       0.1789
      2 C          -6.6631    6.6730   26.5092 C.2    11  UNK11       0.2433
      3 O          -8.0765    7.1741   26.4766 O.2    11  UNK11      -0.2732
      4 N          -6.4545    6.9297   27.9723 N.am    1  UNK1       -0.2969
      5 C          -5.9848    7.0820   29.3887 C.3     1  UNK1        0.1488
      6 C          -5.2708    7.1241   30.7072 C.2     1  UNK1        0.2439
      7 O          -6.4195    7.7110   31.4727 O.2     1  UNK1       -0.2731
      8 N          -4.3384    7.0547   31.8802 N.am    2  ALA2       -0.2699
      9 C          -5.3099    7.6284   32.8686 C.3     0  ACE0        0.1153
     10 CA         -3.2214    6.8762   32.8653 C.3     2  ALA2        0.1521
     11 CB         -3.9805    7.4159   34.0410 C.3     2  ALA2        0.0314
     12 C          -1.9601    6.5951   33.6269 C.2     2  ALA2        0.2441
     13 O          -2.4794    7.0814   34.9474 O.2     2  ALA2       -0.2731
     14 N          -0.5999    6.2214   34.1373 N.am    3  UNK3       -0.2699
     15 C          -0.8607    6.6368   35.5549 C.3     3  UNK3        0.1153
     16 C           0.8097    5.7689   34.3784 C.3     3  UNK3        0.1531
     17 C           2.2180    5.2538   34.3412 C.2     3  UNK3        0.2409
     18 O           2.4929    5.4851   35.7975 O.2     3  UNK3       -0.2733
     19 N           3.5739    4.6947   34.0271 N.am    4  VAL4       -0.2970
     20 CA          4.8287    4.1118   33.4475 C.3     4  VAL4        0.1487
     21 C           5.9368    3.5262   32.6234 C.2     4  VAL4        0.2439
     22 O           6.9187    3.4291   33.7532 O.2     4  VAL4       -0.2731
     23 N           6.8582    2.9591   31.5844 N.am    5  LEU5       -0.2699
     24 C           8.0153    2.7542   32.5167 C.3     0  ACE0        0.1153
     25 CA          7.5597    2.4309   30.3683 C.3     5  LEU5        0.1518
     26 C           8.0158    1.9608   29.0189 C.2     5  LEU5        0.2409
     27 O           9.3930    1.5661   29.4634 O.2     5  LEU5       -0.2733
     28 N           8.2101    1.5657   27.5850 N.am    6  ALA6       -0.2970
     29 CA          8.1355    1.2599   26.1184 C.3     6  ALA6        0.1486
     30 CB          9.5354    0.7320   26.0114 C.3     6  ALA6        0.0312
     31 C           7.7948    1.0545   24.6721 C.2     6  ALA6        0.2406
     32 O           9.1299    0.4875   24.2902 O.2     6  ALA6       -0.2733
     33 N           7.2002    0.9569   23.2984 N.am    7  ALA7       -0.2970
     34 CA          6.3733    0.9706   22.0470 C.3     7  ALA7        0.1489
     35 CB          7.4383    0.3876   21.1660 C.3     7  ALA7        0.0312
     36 C           5.3439    1.0952   20.9630 C.2     7  ALA7        0.2439
     37 O           6.2132    0.5359   19.8760 O.2     7  ALA7       -0.2731
     38 N           4.1494    1.3260   20.0858 N.am    8  LEU8       -0.2699
     39 C           4.7915    0.8106   18.8320 C.3     0  ACE0        0.1153
     40 CA          2.8327    1.6548   19.4468 C.3     8  LEU8        0.1520
     41 C           1.4415    2.0698   19.0694 C.2     8  LEU8        0.2441
     42 O           1.5689    1.6958   17.6223 O.2     8  LEU8       -0.2731
     43 N           0.0261    2.5558   18.9669 N.am    9  LEU9       -0.2699
     44 C          -0.1156    2.2742   17.5005 C.3     0  ACE0        0.1153
     45 CA         -1.3623    3.0954   19.1434 C.3     9  LEU9        0.1520
     46 C          -2.6736    3.6689   19.5922 C.2     9  LEU9        0.2441
     47 O          -3.3286    3.5990   18.2447 O.2     9  LEU9       -0.2731
     48 N          -3.8604    4.2558   20.2973 N.am   10  VAL10      -0.2699
     49 C          -4.7410    4.2974   19.0837 C.3     0  ACE0        0.1153
     50 CA         -4.8798    4.8348   21.2331 C.3    10  VAL10       0.1520
     51 C          -5.6949    5.3850   22.3658 C.2    10  VAL10       0.2441
     52 O          -6.9243    5.6413   21.5454 O.2    10  VAL10      -0.2731
     53 N          -6.2763    5.8864   23.6544 N.am   11  UNK11      -0.2680
     54 C          -7.6162    6.2380   23.0790 C.3     0  ACE0        0.1154
     55 H          -7.3561    7.2907   28.1334 H       1  UNK1        0.1499
     56 H           3.9236    4.7768   34.9437 H       4  VAL4        0.1499
     57 H           9.1382    1.2573   27.6978 H       6  ALA6        0.1499
     58 H           8.0023    0.5726   22.8764 H       7  ALA7        0.1499
     59 CB         -5.9541    4.9865   20.1974 C.3    10  VAL10       0.0271
     60 CG1        -6.1995    6.3225   19.5611 C.3    10  VAL10       0.0022
     61 CG2        -6.7832    3.8019   19.7978 C.3    10  VAL10       0.0022
     62 C          -8.0049    6.7552   24.7428 C.3    11  UNK11       0.1377
     63 O          -8.2625    7.7107   23.6156 O.3    11  UNK11      -0.3822
     64 H          -9.2144    7.8860   23.5515 H      11  UNK11       0.2104
     65 C          -9.1494    6.2339   25.5604 C.3    11  UNK11       0.0334
     66 C          -9.7090    7.0604   26.6800 C.3    11  UNK11       0.0029
     67 C          -9.7342    4.8860   25.2583 C.3    11  UNK11       0.0282
     68 C         -13.6351    4.4539   24.6697 C.3    11  UNK11       0.0303
     69 C         -12.3093    4.5578   25.3637 C.2    11  UNK11      -0.0304
     70 C         -11.0600    4.7821   24.5644 C.2    11  UNK11      -0.0306
     71 CB          5.6000    4.1261   34.7340 C.3     4  VAL4        0.0269
     72 CG1         5.7712    2.8600   35.5200 C.3     4  VAL4        0.0022
     73 CG2         6.2001    5.4065   35.2345 C.3     4  VAL4        0.0022
     74 C          -7.2692    7.6608   29.9035 C.3     1  UNK1        0.0290
     75 C          -8.5696    6.9674   29.6239 C.3     1  UNK1        0.0023
     76 C           0.8169    6.0982   35.8418 C.3     3  UNK3        0.0431
     77 C           0.6994    7.5247   36.2901 C.3     3  UNK3        0.0037
     78 C           0.9415    5.0008   36.8568 C.3     3  UNK3        0.0743
     79 N           2.0546    5.0317   37.8618 N.3     3  UNK3       -0.2703
     80 C           2.2650    3.8673   38.7839 C.3     3  UNK3        0.0897
     81 C           3.3781    3.8982   39.7889 C.3     3  UNK3        0.0897
     82 N           4.2807    5.0933   39.8720 N.3     3  UNK3       -0.2682
     83 C           4.0703    6.2576   38.9500 C.3     3  UNK3        0.0897
     84 C           2.9572    6.2268   37.9449 C.3     3  UNK3        0.0897
     85 C           5.3938    5.1241   40.8770 C.3     3  UNK3        0.1046
     86 C           5.1746    4.5759   42.2560 C.3     3  UNK3        0.1595
     87 O           4.7627    5.4916   43.3703 O.3     3  UNK3       -0.3496
     88 C           5.1807    5.1930   44.7796 C.3     3  UNK3        0.1742
     89 CB         -1.7680    2.9164   17.7105 C.3     9  LEU9        0.0292
     90 CG         -1.8596    4.1069   16.8026 C.3     9  LEU9        0.0021
     91 CD1        -0.6681    4.9977   16.6113 C.3     9  LEU9        0.0001
     92 CD2        -3.1429    4.4066   16.0860 C.3     9  LEU9        0.0001
     93 CB          3.2245    1.2020   18.0715 C.3     8  LEU8        0.0292
     94 CG          3.4303   -0.2575   17.7928 C.3     8  LEU8        0.0021
     95 CD1         4.7521   -0.7433   17.2763 C.3     8  LEU8        0.0001
     96 CD2         2.3143   -1.2312   18.0305 C.3     8  LEU8        0.0001
     97 CB          8.8501    2.1256   31.0694 C.3     5  LEU5        0.0292
     98 CG          8.9533    0.9236   31.9608 C.3     5  LEU5        0.0021
     99 CD1         9.1757    1.0991   33.4337 C.3     5  LEU5        0.0001
    100 CD2         8.8342   -0.4538   31.3791 C.3     5  LEU5        0.0001
@<TRIPOS>BOND
     1    68    69    1
     2    69    70    2
     3    70    67    1
     4    67    65    1
     5    65    66    1
     6    65    62    1
     7    62    63    1
     8    62     1    1
     9     1     2    1
    10     2     3    2
    11     2     4   am
    12     4     5    1
    13     5    74    1
    14    74    75    1
    15     5     6    1
    16     6     7    2
    17     6     8   am
    18     8     9    1
    19     8    10    1
    20    10    11    1
    21    10    12    1
    22    12    13    2
    23    12    14   am
    24    14    15    1
    25    16    14    1
    26    16    76    1
    27    76    77    1
    28    76    78    1
    29    78    79    1
    30    79    80    1
    31    80    81    1
    32    81    82    1
    33    82    85    1
    34    85    86    1
    35    86    87    1
    36    87    88    1
    37    82    83    1
    38    83    84    1
    39    16    17    1
    40    17    18    2
    41    17    19   am
    42    19    20    1
    43    20    71    1
    44    71    72    1
    45    71    73    1
    46    20    21    1
    47    21    22    2
    48    21    23   am
    49    23    24    1
    50    23    25    1
    51    25    97    1
    52    97    98    1
    53    98    99    1
    54    98   100    1
    55    25    26    1
    56    26    27    2
    57    26    28   am
    58    28    29    1
    59    29    30    1
    60    29    31    1
    61    31    32    2
    62    31    33   am
    63    33    34    1
    64    34    35    1
    65    34    36    1
    66    36    37    2
    67    36    38   am
    68    38    39    1
    69    38    40    1
    70    40    93    1
    71    93    94    1
    72    94    95    1
    73    94    96    1
    74    40    41    1
    75    41    42    2
    76    41    43   am
    77    43    44    1
    78    43    45    1
    79    45    89    1
    80    89    90    1
    81    90    91    1
    82    90    92    1
    83    45    46    1
    84    46    47    2
    85    46    48   am
    86    48    49    1
    87    48    50    1
    88    50    59    1
    89    59    60    1
    90    59    61    1
    91    50    51    1
    92    51    52    2
    93    51    53   am
    94    53    54    1
    95     1    53    1
    96    84    79    1
    97    63    64    1
    98     4    55    1
    99    19    56    1
   100    28    57    1
   101    33    58    1
