@<TRIPOS>MOLECULE
*****
 30 33 0 0 0
SMALL
GASTEIGER

@<TRIPOS>ATOM
      1 C           7.0312   -4.1656   24.8511 C.2     1  UNL1        0.0041
      2 C           6.7584   -3.6472   26.2321 C.2     1  UNL1        0.0130
      3 C           7.3164   -4.3637   27.4259 C.3     1  UNL1        0.1542
      4 C           6.4856   -3.1289   27.6130 C.3     1  UNL1        0.0614
      5 C           6.2129   -2.6106   28.9939 C.3     1  UNL1        0.0725
      6 N           6.7708   -3.3272   30.1877 N.3     1  UNL1       -0.2972
      7 C           7.6015   -4.5620   30.0007 C.3     1  UNL1        0.0725
      8 C           7.8743   -5.0803   28.6198 C.3     1  UNL1        0.0614
      9 O           8.1471   -5.5987   27.2388 O.3     1  UNL1       -0.4785
     10 C           8.4199   -6.1169   25.8579 C.ar    1  UNL1        0.1386
     11 C           9.2507   -7.3519   25.6708 C.ar    1  UNL1        0.0369
     12 C           9.5234   -7.8702   24.2899 C.ar    1  UNL1        0.0031
     13 C           8.9655   -7.1536   23.0961 C.ar    1  UNL1        0.0002
     14 C           8.1348   -5.9188   23.2831 C.ar    1  UNL1        0.0030
     15 C           7.8620   -5.4004   24.6641 C.ar    1  UNL1        0.0339
     16 H           5.9763   -3.5922   30.7699 H       1  UNL1        0.1233
     17 C           5.3574   -2.0159   21.2696 C.ar    1  UNL1        0.0558
     18 C           4.4693   -2.8948   22.0995 C.ar    1  UNL1        0.0047
     19 C           5.0273   -3.6114   23.2933 C.ar    1  UNL1        0.0024
     20 C           6.4733   -3.4490   23.6573 C.ar    1  UNL1        0.0274
     21 C           7.3615   -2.5701   22.8274 C.ar    1  UNL1        0.1402
     22 F           8.8076   -2.4078   23.1913 F       1  UNL1       -0.2042
     23 C           6.8036   -1.8536   21.6335 C.ar    1  UNL1        0.0341
     24 N           4.7756   -1.9771   18.7378 N.am    1  UNL1       -0.2761
     25 C           4.7995   -1.2994   20.0757 C.2     1  UNL1        0.2491
     26 O           4.2654    0.0949   20.2199 O.2     1  UNL1       -0.2699
     27 C           4.9852   -0.1331   16.9196 C.3     1  UNL1        0.0233
     28 C           4.2177   -1.2606   17.5440 C.3     1  UNL1        0.0938
     29 C           5.3097   -3.3714   18.5937 C.3     1  UNL1        0.0938
     30 C           4.3951   -4.5470   18.7712 C.3     1  UNL1        0.0233
@<TRIPOS>BOND
     1    27    28    1
     2    28    24    1
     3    24    29    1
     4    29    30    1
     5    24    25   am
     6    25    26    2
     7    25    17    1
     8    17    18   ar
     9    18    19   ar
    10    19    20   ar
    11    20     1    1
    12     1     2    2
    13     2     3    1
    14     3     4    1
    15     4     5    1
    16     5     6    1
    17     6     7    1
    18     7     8    1
    19     3     9    1
    20     9    10    1
    21    10    11   ar
    22    11    12   ar
    23    12    13   ar
    24    13    14   ar
    25    14    15   ar
    26    20    21   ar
    27    21    22    1
    28    21    23   ar
    29    23    17   ar
    30    15     1    1
    31     8     3    1
    32    15    10   ar
    33     6    16    1
@<TRIPOS>MOLECULE
*****
 30 33 0 0 0
SMALL
GASTEIGER

@<TRIPOS>ATOM
      1 C          -7.5762  -17.1169   23.0841 C.2     1  UNL1        0.0041
      2 C          -8.7766  -17.3110   22.2058 C.2     1  UNL1        0.0130
      3 C         -10.1237  -16.8330   22.6605 C.3     1  UNL1        0.1542
      4 C          -9.9770  -17.5050   21.3275 C.3     1  UNL1        0.0614
      5 C         -11.1774  -17.6991   20.4493 C.3     1  UNL1        0.0725
      6 N         -12.5245  -17.2211   20.9040 N.3     1  UNL1       -0.2972
      7 C         -12.6712  -16.5490   22.2369 C.3     1  UNL1        0.0725
      8 C         -11.4709  -16.3550   23.1152 C.3     1  UNL1        0.0614
      9 O         -10.2704  -16.1609   23.9935 O.3     1  UNL1       -0.4785
     10 C          -9.0701  -15.9669   24.8717 C.ar    1  UNL1        0.1386
     11 C          -9.2168  -15.2948   26.2048 C.ar    1  UNL1        0.0369
     12 C          -8.0164  -15.1008   27.0830 C.ar    1  UNL1        0.0031
     13 C          -6.6693  -15.5788   26.6283 C.ar    1  UNL1        0.0002
     14 C          -6.5225  -16.2508   25.2954 C.ar    1  UNL1        0.0030
     15 C          -7.7229  -16.4449   24.4171 C.ar    1  UNL1        0.0339
     16 H         -13.1375  -18.0362   20.9161 H       1  UNL1        0.1233
     17 C          -3.5348  -18.5509   21.7201 C.ar    1  UNL1        0.0558
     18 C          -3.6392  -17.3914   22.6658 C.ar    1  UNL1        0.0047
     19 C          -4.9864  -16.9134   23.1205 C.ar    1  UNL1        0.0024
     20 C          -6.2290  -17.5949   22.6294 C.ar    1  UNL1        0.0274
     21 C          -6.1246  -18.7546   21.6836 C.ar    1  UNL1        0.1402
     22 F          -7.3673  -19.4361   21.1926 F       1  UNL1       -0.2042
     23 C          -4.7775  -19.2326   21.2289 C.ar    1  UNL1        0.0341
     24 N          -1.4069  -18.2300   20.2643 N.am    1  UNL1       -0.2761
     25 C          -2.1876  -19.0289   21.2654 C.2     1  UNL1        0.2491
     26 O          -1.6212  -20.3059   21.8119 O.2     1  UNL1       -0.2699
     27 C           1.1671  -17.9053   20.1266 C.3     1  UNL1        0.0233
     28 C          -0.0598  -18.7080   19.8096 C.3     1  UNL1        0.0938
     29 C          -1.9734  -16.9531   19.7178 C.3     1  UNL1        0.0938
     30 C          -2.7949  -16.9735   18.4630 C.3     1  UNL1        0.0233
@<TRIPOS>BOND
     1    27    28    1
     2    28    24    1
     3    24    29    1
     4    29    30    1
     5    24    25   am
     6    25    26    2
     7    25    17    1
     8    17    18   ar
     9    18    19   ar
    10    19    20   ar
    11    20     1    1
    12     1     2    2
    13     2     3    1
    14     3     4    1
    15     4     5    1
    16     5     6    1
    17     6     7    1
    18     7     8    1
    19     3     9    1
    20     9    10    1
    21    10    11   ar
    22    11    12   ar
    23    12    13   ar
    24    13    14   ar
    25    14    15   ar
    26    20    21   ar
    27    21    22    1
    28    21    23   ar
    29    23    17   ar
    30    15     1    1
    31     8     3    1
    32    15    10   ar
    33     6    16    1
@<TRIPOS>MOLECULE
*****
 30 33 0 0 0
SMALL
GASTEIGER

@<TRIPOS>ATOM
      1 C          -8.7478  -18.3438   21.6279 C.2     1  UNL1        0.0041
      2 C          -9.4760  -17.3930   20.7247 C.2     1  UNL1        0.0130
      3 C         -10.9481  -17.1671   20.9039 C.3     1  UNL1        0.1542
      4 C         -10.2043  -16.4422   19.8216 C.3     1  UNL1        0.0614
      5 C         -10.9326  -15.4915   18.9186 C.3     1  UNL1        0.0725
      6 N         -12.4046  -15.2656   19.0977 N.3     1  UNL1       -0.2972
      7 C         -13.1484  -15.9905   20.1799 C.3     1  UNL1        0.0725
      8 C         -12.4201  -16.9413   21.0830 C.3     1  UNL1        0.0614
      9 O         -11.6918  -17.8921   21.9862 O.3     1  UNL1       -0.4785
     10 C         -10.9636  -18.8429   22.8893 C.ar    1  UNL1        0.1386
     11 C         -11.7073  -19.5679   23.9716 C.ar    1  UNL1        0.0369
     12 C         -10.9791  -20.5186   24.8746 C.ar    1  UNL1        0.0031
     13 C          -9.5070  -20.7445   24.6955 C.ar    1  UNL1        0.0002
     14 C          -8.7632  -20.0195   23.6133 C.ar    1  UNL1        0.0030
     15 C          -9.4915  -19.0687   22.7101 C.ar    1  UNL1        0.0339
     16 H         -12.8505  -15.5163   18.2152 H       1  UNL1        0.1233
     17 C          -4.3316  -19.0213   21.0905 C.ar    1  UNL1        0.0558
     18 C          -5.3068  -19.6342   20.1297 C.ar    1  UNL1        0.0047
     19 C          -6.7789  -19.4084   20.3088 C.ar    1  UNL1        0.0024
     20 C          -7.2757  -18.5696   21.4488 C.ar    1  UNL1        0.0274
     21 C          -6.3005  -17.9566   22.4097 C.ar    1  UNL1        0.1402
     22 F          -6.7973  -17.1178   23.5496 F       1  UNL1       -0.2042
     23 C          -4.8285  -18.1824   22.2305 C.ar    1  UNL1        0.0341
     24 N          -2.0594  -18.3233   20.0418 N.am    1  UNL1       -0.2761
     25 C          -2.8596  -19.2471   20.9114 C.2     1  UNL1        0.2491
     26 O          -2.1877  -20.3968   21.6019 O.2     1  UNL1       -0.2699
     27 C           0.3770  -17.4224   20.0872 C.3     1  UNL1        0.0233
     28 C          -0.5874  -18.5491   19.8626 C.3     1  UNL1        0.0938
     29 C          -2.7313  -17.1736   19.3512 C.3     1  UNL1        0.0938
     30 C          -2.6892  -17.0688   17.8555 C.3     1  UNL1        0.0233
@<TRIPOS>BOND
     1    27    28    1
     2    28    24    1
     3    24    29    1
     4    29    30    1
     5    24    25   am
     6    25    26    2
     7    25    17    1
     8    17    18   ar
     9    18    19   ar
    10    19    20   ar
    11    20     1    1
    12     1     2    2
    13     2     3    1
    14     3     4    1
    15     4     5    1
    16     5     6    1
    17     6     7    1
    18     7     8    1
    19     3     9    1
    20     9    10    1
    21    10    11   ar
    22    11    12   ar
    23    12    13   ar
    24    13    14   ar
    25    14    15   ar
    26    20    21   ar
    27    21    22    1
    28    21    23   ar
    29    23    17   ar
    30    15     1    1
    31     8     3    1
    32    15    10   ar
    33     6    16    1
@<TRIPOS>MOLECULE
*****
 30 33 0 0 0
SMALL
GASTEIGER

@<TRIPOS>ATOM
      1 C           2.3194    0.1253   22.4142 C.2     1  UNL1        0.0041
      2 C           3.1452   -1.1267   22.3863 C.2     1  UNL1        0.0130
      3 C           3.4405   -1.8014   21.0796 C.3     1  UNL1        0.1542
      4 C           3.9709   -2.3786   22.3584 C.3     1  UNL1        0.0614
      5 C           4.7966   -3.6306   22.3306 C.3     1  UNL1        0.0725
      6 N           5.0919   -4.3053   21.0238 N.3     1  UNL1       -0.2972
      7 C           4.5615   -3.7281   19.7450 C.3     1  UNL1        0.0725
      8 C           3.7358   -2.4762   19.7729 C.3     1  UNL1        0.0614
      9 O           2.9100   -1.2242   19.8007 O.3     1  UNL1       -0.4785
     10 C           2.0843    0.0278   19.8286 C.ar    1  UNL1        0.1386
     11 C           1.5539    0.6050   18.5497 C.ar    1  UNL1        0.0369
     12 C           0.7282    1.8570   18.5776 C.ar    1  UNL1        0.0031
     13 C           0.4329    2.5317   19.8843 C.ar    1  UNL1        0.0002
     14 C           0.9633    1.9545   21.1632 C.ar    1  UNL1        0.0030
     15 C           1.7890    0.7025   21.1353 C.ar    1  UNL1        0.0339
     16 H           4.7248   -5.2545   21.0930 H       1  UNL1        0.1233
     17 C           1.4335    2.1495   26.3343 C.ar    1  UNL1        0.0558
     18 C           0.3159    1.5640   25.5231 C.ar    1  UNL1        0.0047
     19 C           0.6112    0.8893   24.2164 C.ar    1  UNL1        0.0024
     20 C           2.0241    0.8000   23.7209 C.ar    1  UNL1        0.0274
     21 C           3.1418    1.3856   24.5321 C.ar    1  UNL1        0.1402
     22 F           4.5547    1.2963   24.0365 F       1  UNL1       -0.2042
     23 C           2.8465    2.0603   25.8388 C.ar    1  UNL1        0.0341
     24 N           0.8812    2.0016   28.8687 N.am    1  UNL1       -0.2761
     25 C           1.1382    2.8243   27.6410 C.2     1  UNL1        0.2491
     26 O           1.0998    4.3217   27.7201 O.2     1  UNL1       -0.2699
     27 C           1.0804    2.0760   31.4581 C.3     1  UNL1        0.0233
     28 C           0.5859    2.6763   30.1754 C.3     1  UNL1        0.0938
     29 C           0.9196    0.5041   28.7897 C.3     1  UNL1        0.0938
     30 C          -0.3591   -0.2801   28.7928 C.3     1  UNL1        0.0233
@<TRIPOS>BOND
     1    27    28    1
     2    28    24    1
     3    24    29    1
     4    29    30    1
     5    24    25   am
     6    25    26    2
     7    25    17    1
     8    17    18   ar
     9    18    19   ar
    10    19    20   ar
    11    20     1    1
    12     1     2    2
    13     2     3    1
    14     3     4    1
    15     4     5    1
    16     5     6    1
    17     6     7    1
    18     7     8    1
    19     3     9    1
    20     9    10    1
    21    10    11   ar
    22    11    12   ar
    23    12    13   ar
    24    13    14   ar
    25    14    15   ar
    26    20    21   ar
    27    21    22    1
    28    21    23   ar
    29    23    17   ar
    30    15     1    1
    31     8     3    1
    32    15    10   ar
    33     6    16    1
@<TRIPOS>MOLECULE
*****
 30 33 0 0 0
SMALL
GASTEIGER

@<TRIPOS>ATOM
      1 C           7.1133   -3.8586   24.1861 C.2     1  UNL1        0.0041
      2 C           6.6269   -3.0804   25.3727 C.2     1  UNL1        0.0130
      3 C           6.8135   -3.6283   26.7566 C.3     1  UNL1        0.1542
      4 C           6.1405   -2.3024   26.5593 C.3     1  UNL1        0.0614
      5 C           5.6542   -1.5243   27.7459 C.3     1  UNL1        0.0725
      6 N           5.8407   -2.0722   29.1297 N.3     1  UNL1       -0.2972
      7 C           6.5137   -3.3981   29.3270 C.3     1  UNL1        0.0725
      8 C           7.0000   -4.1762   28.1404 C.3     1  UNL1        0.0614
      9 O           7.4865   -4.9543   26.9538 O.3     1  UNL1       -0.4785
     10 C           7.9728   -5.7324   25.7672 C.ar    1  UNL1        0.1386
     11 C           8.6458   -7.0584   25.9645 C.ar    1  UNL1        0.0369
     12 C           9.1322   -7.8365   24.7779 C.ar    1  UNL1        0.0031
     13 C           8.9456   -7.2886   23.3940 C.ar    1  UNL1        0.0002
     14 C           8.2726   -5.9627   23.1968 C.ar    1  UNL1        0.0030
     15 C           7.7862   -5.1845   24.3834 C.ar    1  UNL1        0.0339
     16 H           4.9117   -2.1490   29.5437 H       1  UNL1        0.1233
     17 C           6.5536   -2.2149   20.0346 C.ar    1  UNL1        0.0558
     18 C           7.8488   -1.9972   20.7592 C.ar    1  UNL1        0.0047
     19 C           8.0353   -2.5450   22.1430 C.ar    1  UNL1        0.0024
     20 C           6.9267   -3.3107   22.8023 C.ar    1  UNL1        0.0274
     21 C           5.6314   -3.5285   22.0777 C.ar    1  UNL1        0.1402
     22 F           4.5228   -4.2942   22.7370 F       1  UNL1       -0.2042
     23 C           5.4449   -2.9806   20.6939 C.ar    1  UNL1        0.0341
     24 N           5.6354   -0.3733   18.4487 N.am    1  UNL1       -0.2761
     25 C           6.3670   -1.6670   18.6508 C.2     1  UNL1        0.2491
     26 O           6.9121   -2.4130   17.4690 O.2     1  UNL1       -0.2699
     27 C           6.5399    0.9799   16.4236 C.3     1  UNL1        0.0233
     28 C           5.4488    0.1746   17.0648 C.3     1  UNL1        0.0938
     29 C           5.0903    0.3726   19.6304 C.3     1  UNL1        0.0938
     30 C           3.6078    0.5169   19.8076 C.3     1  UNL1        0.0233
@<TRIPOS>BOND
     1    27    28    1
     2    28    24    1
     3    24    29    1
     4    29    30    1
     5    24    25   am
     6    25    26    2
     7    25    17    1
     8    17    18   ar
     9    18    19   ar
    10    19    20   ar
    11    20     1    1
    12     1     2    2
    13     2     3    1
    14     3     4    1
    15     4     5    1
    16     5     6    1
    17     6     7    1
    18     7     8    1
    19     3     9    1
    20     9    10    1
    21    10    11   ar
    22    11    12   ar
    23    12    13   ar
    24    13    14   ar
    25    14    15   ar
    26    20    21   ar
    27    21    22    1
    28    21    23   ar
    29    23    17   ar
    30    15     1    1
    31     8     3    1
    32    15    10   ar
    33     6    16    1
@<TRIPOS>MOLECULE
*****
 30 33 0 0 0
SMALL
GASTEIGER

@<TRIPOS>ATOM
      1 C           0.0729    2.0298   22.1683 C.2     1  UNL1        0.0041
      2 C           0.1481    1.8216   23.6519 C.2     1  UNL1        0.0130
      3 C          -0.7798    2.5701   24.5623 C.3     1  UNL1        0.1542
      4 C           0.2233    1.6134   25.1355 C.3     1  UNL1        0.0614
      5 C           0.2984    1.4052   26.6190 C.3     1  UNL1        0.0725
      6 N          -0.6295    2.1537   27.5294 N.3     1  UNL1       -0.2972
      7 C          -1.6325    3.1104   26.9562 C.3     1  UNL1        0.0725
      8 C          -1.7077    3.3186   25.4727 C.3     1  UNL1        0.0614
      9 O          -1.7829    3.5268   23.9890 O.3     1  UNL1       -0.4785
     10 C          -1.8581    3.7349   22.5055 C.ar    1  UNL1        0.1386
     11 C          -2.8612    4.6916   21.9322 C.ar    1  UNL1        0.0369
     12 C          -2.9364    4.8998   20.4487 C.ar    1  UNL1        0.0031
     13 C          -2.0085    4.1513   19.5383 C.ar    1  UNL1        0.0002
     14 C          -1.0054    3.1946   20.1115 C.ar    1  UNL1        0.0030
     15 C          -0.9302    2.9864   21.5951 C.ar    1  UNL1        0.0339
     16 H          -0.0443    2.6896   28.1704 H       1  UNL1        0.1233
     17 C           2.8566   -0.2157   19.4372 C.ar    1  UNL1        0.0558
     18 C           1.5198   -0.7980   19.7892 C.ar    1  UNL1        0.0047
     19 C           0.5919   -0.0495   20.6996 C.ar    1  UNL1        0.0024
     20 C           1.0008    1.2813   21.2580 C.ar    1  UNL1        0.0274
     21 C           2.3376    1.8636   20.9060 C.ar    1  UNL1        0.1402
     22 F           2.7465    3.1944   21.4643 F       1  UNL1       -0.2042
     23 C           3.2655    1.1151   19.9956 C.ar    1  UNL1        0.0341
     24 N           4.7680   -1.9423   19.0978 N.am    1  UNL1       -0.2761
     25 C           3.7845   -0.9642   18.5269 C.2     1  UNL1        0.2491
     26 O           3.7288   -0.7346   17.0456 O.2     1  UNL1       -0.2699
     27 C           7.1506   -2.3281   18.1361 C.3     1  UNL1        0.0233
     28 C           5.6959   -2.6908   18.1874 C.3     1  UNL1        0.0938
     29 C           4.8237   -2.1719   20.5791 C.3     1  UNL1        0.0938
     30 C           4.5032   -3.5253   21.1408 C.3     1  UNL1        0.0233
@<TRIPOS>BOND
     1    27    28    1
     2    28    24    1
     3    24    29    1
     4    29    30    1
     5    24    25   am
     6    25    26    2
     7    25    17    1
     8    17    18   ar
     9    18    19   ar
    10    19    20   ar
    11    20     1    1
    12     1     2    2
    13     2     3    1
    14     3     4    1
    15     4     5    1
    16     5     6    1
    17     6     7    1
    18     7     8    1
    19     3     9    1
    20     9    10    1
    21    10    11   ar
    22    11    12   ar
    23    12    13   ar
    24    13    14   ar
    25    14    15   ar
    26    20    21   ar
    27    21    22    1
    28    21    23   ar
    29    23    17   ar
    30    15     1    1
    31     8     3    1
    32    15    10   ar
    33     6    16    1
@<TRIPOS>MOLECULE
*****
 30 33 0 0 0
SMALL
GASTEIGER

@<TRIPOS>ATOM
      1 C          -0.2144    2.0773   21.5992 C.2     1  UNL1        0.0041
      2 C          -1.3108    2.8371   20.9131 C.2     1  UNL1        0.0130
      3 C          -2.3089    3.6096   21.7238 C.3     1  UNL1        0.1542
      4 C          -2.4072    3.5969   20.2271 C.3     1  UNL1        0.0614
      5 C          -3.5035    4.3567   19.5411 C.3     1  UNL1        0.0725
      6 N          -4.5015    5.1292   20.3517 N.3     1  UNL1       -0.2972
      7 C          -4.4033    5.1419   21.8484 C.3     1  UNL1        0.0725
      8 C          -3.3069    4.3821   22.5344 C.3     1  UNL1        0.0614
      9 O          -2.2105    3.6223   23.2205 O.3     1  UNL1       -0.4785
     10 C          -1.1142    2.8625   23.9066 C.ar    1  UNL1        0.1386
     11 C          -1.0158    2.8752   25.4034 C.ar    1  UNL1        0.0369
     12 C           0.0805    2.1154   26.0894 C.ar    1  UNL1        0.0031
     13 C           1.0786    1.3429   25.2787 C.ar    1  UNL1        0.0002
     14 C           0.9803    1.3302   23.7821 C.ar    1  UNL1        0.0030
     15 C          -0.1161    2.0900   23.0959 C.ar    1  UNL1        0.0339
     16 H          -5.4218    4.7550   20.1202 H       1  UNL1        0.1233
     17 C           2.7797   -0.2402   19.1673 C.ar    1  UNL1        0.0558
     18 C           1.5391   -0.9158   19.6715 C.ar    1  UNL1        0.0047
     19 C           0.5410   -0.1433   20.4821 C.ar    1  UNL1        0.0024
     20 C           0.7836    1.3048   20.7886 C.ar    1  UNL1        0.0274
     21 C           2.0243    1.9805   20.2844 C.ar    1  UNL1        0.1402
     22 F           2.2669    3.4287   20.5909 F       1  UNL1       -0.2042
     23 C           3.0224    1.2080   19.4738 C.ar    1  UNL1        0.0341
     24 N           4.7879   -1.8838   19.0427 N.am    1  UNL1       -0.2761
     25 C           3.7778   -1.0127   18.3566 C.2     1  UNL1        0.2491
     26 O           3.7656   -0.9140   16.8599 O.2     1  UNL1       -0.2699
     27 C           7.2293   -2.2479   18.2321 C.3     1  UNL1        0.0233
     28 C           5.7860   -2.6563   18.2320 C.3     1  UNL1        0.0938
     29 C           4.8001   -1.9825   20.5394 C.3     1  UNL1        0.0938
     30 C           4.3267   -3.2368   21.2122 C.3     1  UNL1        0.0233
@<TRIPOS>BOND
     1    27    28    1
     2    28    24    1
     3    24    29    1
     4    29    30    1
     5    24    25   am
     6    25    26    2
     7    25    17    1
     8    17    18   ar
     9    18    19   ar
    10    19    20   ar
    11    20     1    1
    12     1     2    2
    13     2     3    1
    14     3     4    1
    15     4     5    1
    16     5     6    1
    17     6     7    1
    18     7     8    1
    19     3     9    1
    20     9    10    1
    21    10    11   ar
    22    11    12   ar
    23    12    13   ar
    24    13    14   ar
    25    14    15   ar
    26    20    21   ar
    27    21    22    1
    28    21    23   ar
    29    23    17   ar
    30    15     1    1
    31     8     3    1
    32    15    10   ar
    33     6    16    1
@<TRIPOS>MOLECULE
*****
 30 33 0 0 0
SMALL
GASTEIGER

@<TRIPOS>ATOM
      1 C          -1.8325    3.2549   26.1406 C.2     1  UNL1        0.0041
      2 C          -3.0990    3.9916   26.4624 C.2     1  UNL1        0.0130
      3 C          -3.9315    4.5704   25.3570 C.3     1  UNL1        0.1542
      4 C          -4.3653    4.7283   26.7841 C.3     1  UNL1        0.0614
      5 C          -5.6317    5.4649   27.1059 C.3     1  UNL1        0.0725
      6 N          -6.4642    6.0437   26.0005 N.3     1  UNL1       -0.2972
      7 C          -6.0304    5.8858   24.5733 C.3     1  UNL1        0.0725
      8 C          -4.7640    5.1491   24.2516 C.3     1  UNL1        0.0614
      9 O          -3.4976    4.4124   23.9298 O.3     1  UNL1       -0.4785
     10 C          -2.2312    3.6758   23.6080 C.ar    1  UNL1        0.1386
     11 C          -1.7973    3.5179   22.1808 C.ar    1  UNL1        0.0369
     12 C          -0.5309    2.7812   21.8591 C.ar    1  UNL1        0.0031
     13 C           0.3016    2.2024   22.9645 C.ar    1  UNL1        0.0002
     14 C          -0.1322    2.3603   24.3916 C.ar    1  UNL1        0.0030
     15 C          -1.3987    3.0970   24.7134 C.ar    1  UNL1        0.0339
     16 H          -6.5338    7.0457   26.1779 H       1  UNL1        0.1233
     17 C           0.6651    1.5186   29.4568 C.ar    1  UNL1        0.0558
     18 C          -0.5028    0.7486   28.9155 C.ar    1  UNL1        0.0047
     19 C          -1.3353    1.3274   27.8101 C.ar    1  UNL1        0.0024
     20 C          -1.0000    2.6761   27.2460 C.ar    1  UNL1        0.0274
     21 C           0.1680    3.4462   27.7873 C.ar    1  UNL1        0.1402
     22 F           0.5034    4.7950   27.2232 F       1  UNL1       -0.2042
     23 C           1.0005    2.8675   28.8927 C.ar    1  UNL1        0.0341
     24 N           2.4913   -0.1435   30.2643 N.am    1  UNL1       -0.2761
     25 C           1.4976    0.9398   30.5622 C.2     1  UNL1        0.2491
     26 O           1.3364    1.4445   31.9656 O.2     1  UNL1       -0.2699
     27 C           4.6051   -0.0542   31.7723 C.3     1  UNL1        0.0233
     28 C           3.3238   -0.7223   31.3697 C.3     1  UNL1        0.0938
     29 C           2.6525   -0.6482   28.8609 C.3     1  UNL1        0.0938
     30 C           3.6642   -0.0193   27.9493 C.3     1  UNL1        0.0233
@<TRIPOS>BOND
     1    27    28    1
     2    28    24    1
     3    24    29    1
     4    29    30    1
     5    24    25   am
     6    25    26    2
     7    25    17    1
     8    17    18   ar
     9    18    19   ar
    10    19    20   ar
    11    20     1    1
    12     1     2    2
    13     2     3    1
    14     3     4    1
    15     4     5    1
    16     5     6    1
    17     6     7    1
    18     7     8    1
    19     3     9    1
    20     9    10    1
    21    10    11   ar
    22    11    12   ar
    23    12    13   ar
    24    13    14   ar
    25    14    15   ar
    26    20    21   ar
    27    21    22    1
    28    21    23   ar
    29    23    17   ar
    30    15     1    1
    31     8     3    1
    32    15    10   ar
    33     6    16    1
@<TRIPOS>MOLECULE
*****
 30 33 0 0 0
SMALL
GASTEIGER

@<TRIPOS>ATOM
      1 C          -1.3304    3.0239   25.3554 C.2     1  UNL1        0.0041
      2 C          -0.5894    2.8067   24.0693 C.2     1  UNL1        0.0130
      3 C          -1.2249    3.1857   22.7645 C.3     1  UNL1        0.1542
      4 C           0.1514    2.5896   22.7832 C.3     1  UNL1        0.0614
      5 C           0.8922    2.3725   21.4972 C.3     1  UNL1        0.0725
      6 N           0.2568    2.7515   20.1924 N.3     1  UNL1       -0.2972
      7 C          -1.1196    3.3476   20.1736 C.3     1  UNL1        0.0725
      8 C          -1.8604    3.5647   21.4597 C.3     1  UNL1        0.0614
      9 O          -2.6013    3.7818   22.7458 O.3     1  UNL1       -0.4785
     10 C          -3.3422    3.9989   24.0318 C.ar    1  UNL1        0.1386
     11 C          -4.7186    4.5950   24.0131 C.ar    1  UNL1        0.0369
     12 C          -5.4594    4.8121   25.2991 C.ar    1  UNL1        0.0031
     13 C          -4.8239    4.4331   26.6040 C.ar    1  UNL1        0.0002
     14 C          -3.4476    3.8370   26.6227 C.ar    1  UNL1        0.0030
     15 C          -2.7067    3.6199   25.3366 C.ar    1  UNL1        0.0339
     16 H           0.2182    1.9038   19.6264 H       1  UNL1        0.1233
     17 C           0.5761    1.8869   29.2698 C.ar    1  UNL1        0.0558
     18 C          -0.2353    0.8797   28.5103 C.ar    1  UNL1        0.0047
     19 C          -0.8708    1.2586   27.2055 C.ar    1  UNL1        0.0024
     20 C          -0.6949    2.6449   26.6602 C.ar    1  UNL1        0.0274
     21 C           0.1166    3.6522   27.4198 C.ar    1  UNL1        0.1402
     22 F           0.2925    5.0385   26.8745 F       1  UNL1       -0.2042
     23 C           0.7520    3.2733   28.7246 C.ar    1  UNL1        0.0341
     24 N           2.5694    0.8710   30.5905 N.am    1  UNL1       -0.2761
     25 C           1.2116    1.5080   30.5747 C.2     1  UNL1        0.2491
     26 O           0.4891    1.7661   31.8637 O.2     1  UNL1       -0.2699
     27 C           4.6776    0.6922   32.0984 C.3     1  UNL1        0.0233
     28 C           3.2049    0.4920   31.8953 C.3     1  UNL1        0.0938
     29 C           3.2919    0.6129   29.3015 C.3     1  UNL1        0.0938
     30 C           3.1334   -0.7054   28.6038 C.3     1  UNL1        0.0233
@<TRIPOS>BOND
     1    27    28    1
     2    28    24    1
     3    24    29    1
     4    29    30    1
     5    24    25   am
     6    25    26    2
     7    25    17    1
     8    17    18   ar
     9    18    19   ar
    10    19    20   ar
    11    20     1    1
    12     1     2    2
    13     2     3    1
    14     3     4    1
    15     4     5    1
    16     5     6    1
    17     6     7    1
    18     7     8    1
    19     3     9    1
    20     9    10    1
    21    10    11   ar
    22    11    12   ar
    23    12    13   ar
    24    13    14   ar
    25    14    15   ar
    26    20    21   ar
    27    21    22    1
    28    21    23   ar
    29    23    17   ar
    30    15     1    1
    31     8     3    1
    32    15    10   ar
    33     6    16    1
