@<TRIPOS>MOLECULE
*****
 17 17 0 0 0
SMALL
GASTEIGER

@<TRIPOS>ATOM
      1 S          -7.9390  -17.2434   22.2245 S.3     1  UNL1       -0.1328
      2 C          -8.0206  -16.5688   23.5617 C.3     1  UNL1        0.0885
      3 C          -7.1849  -15.3550   23.8417 C.3     1  UNL1        0.1367
      4 O          -7.8417  -14.0204   24.0351 O.3     1  UNL1       -0.3822
      5 H          -8.8029  -14.1174   23.9477 H       1  UNL1        0.2104
      6 N          -4.8205  -14.6832   23.0002 N.3     1  UNL1       -0.3191
      7 C          -5.6923  -15.4759   23.9284 C.3     1  UNL1        0.0956
      8 H          -3.8406  -14.8864   23.1976 H       1  UNL1        0.1189
      9 H          -4.9954  -13.6876   23.1368 H       1  UNL1        0.1189
     10 C          -8.9965  -18.2244   21.8135 C.3     1  UNL1        0.0838
     11 C         -10.3298  -18.2218   22.5009 C.ar    1  UNL1       -0.0113
     12 C         -11.4911  -17.5018   21.8822 C.ar    1  UNL1       -0.0025
     13 C         -12.8244  -17.4992   22.5696 C.ar    1  UNL1        0.0111
     14 C         -12.9963  -18.2166   23.8755 C.ar    1  UNL1        0.0577
     15 CL        -14.3295  -18.2140   24.5629 Cl      1  UNL1       -0.0822
     16 C         -11.8350  -18.9367   24.4942 C.ar    1  UNL1        0.0111
     17 C         -10.5017  -18.9393   23.8068 C.ar    1  UNL1       -0.0025
@<TRIPOS>BOND
     1     6     7    1
     2     7     3    1
     3     3     4    1
     4     3     2    1
     5     2     1    1
     6     1    10    1
     7    10    11    1
     8    11    12   ar
     9    12    13   ar
    10    13    14   ar
    11    14    15    1
    12    14    16   ar
    13    16    17   ar
    14    17    11   ar
    15     6     8    1
    16     6     9    1
    17     4     5    1
@<TRIPOS>MOLECULE
*****
 17 17 0 0 0
SMALL
GASTEIGER

@<TRIPOS>ATOM
      1 S          -8.0377  -15.8075   22.8174 S.3     1  UNL1       -0.1328
      2 C          -7.4129  -15.8796   24.1792 C.3     1  UNL1        0.0885
      3 C          -6.0665  -15.2637   24.4202 C.3     1  UNL1        0.1367
      4 O          -5.2627  -14.7425   23.2660 O.3     1  UNL1       -0.3822
      5 H          -5.7543  -14.8803   22.4413 H       1  UNL1        0.2104
      6 N          -6.4584  -14.9676   26.9714 N.3     1  UNL1       -0.3191
      7 C          -5.5240  -15.1691   25.8155 C.3     1  UNL1        0.0956
      8 H          -5.9227  -14.9264   27.8384 H       1  UNL1        0.1189
      9 H          -7.1173  -15.7449   27.0155 H       1  UNL1        0.1189
     10 C          -8.7835  -16.9886   22.2709 C.3     1  UNL1        0.0838
     11 C         -10.1646  -17.2987   22.7674 C.ar    1  UNL1       -0.0113
     12 C         -10.3668  -18.3602   23.8077 C.ar    1  UNL1       -0.0025
     13 C         -11.7479  -18.6704   24.3041 C.ar    1  UNL1        0.0111
     14 C         -12.9267  -17.9190   23.7603 C.ar    1  UNL1        0.0577
     15 CL        -14.3078  -18.2291   24.2568 Cl      1  UNL1       -0.0822
     16 C         -12.7244  -16.8574   22.7201 C.ar    1  UNL1        0.0111
     17 C         -11.3434  -16.5473   22.2236 C.ar    1  UNL1       -0.0025
@<TRIPOS>BOND
     1     6     7    1
     2     7     3    1
     3     3     4    1
     4     3     2    1
     5     2     1    1
     6     1    10    1
     7    10    11    1
     8    11    12   ar
     9    12    13   ar
    10    13    14   ar
    11    14    15    1
    12    14    16   ar
    13    16    17   ar
    14    17    11   ar
    15     6     8    1
    16     6     9    1
    17     4     5    1
@<TRIPOS>MOLECULE
*****
 17 17 0 0 0
SMALL
GASTEIGER

@<TRIPOS>ATOM
      1 S          -7.2362  -18.6737   21.6302 S.3     1  UNL1       -0.1328
      2 C          -7.8306  -17.8723   22.7502 C.3     1  UNL1        0.0885
      3 C          -7.7068  -16.3774   22.7509 C.3     1  UNL1        0.1367
      4 O          -8.0743  -15.5939   21.5257 O.3     1  UNL1       -0.3822
      5 H          -8.3701  -16.2016   20.8299 H       1  UNL1        0.2104
      6 N          -7.5711  -14.2263   24.2014 N.3     1  UNL1       -0.3191
      7 C          -7.2155  -15.6661   23.9766 C.3     1  UNL1        0.0956
      8 H          -7.1563  -13.9063   25.0766 H       1  UNL1        0.1189
      9 H          -8.5854  -14.1303   24.2507 H       1  UNL1        0.1189
     10 C          -6.0905  -19.6037   21.8992 C.3     1  UNL1        0.0838
     11 C          -4.7176  -19.2673   21.3974 C.ar    1  UNL1       -0.0113
     12 C          -4.4316  -19.2866   19.9251 C.ar    1  UNL1       -0.0025
     13 C          -3.0586  -18.9501   19.4233 C.ar    1  UNL1        0.0111
     14 C          -1.9717  -18.5944   20.3938 C.ar    1  UNL1        0.0577
     15 CL         -0.5987  -18.2580   19.8920 Cl      1  UNL1       -0.0822
     16 C          -2.2577  -18.5751   21.8661 C.ar    1  UNL1        0.0111
     17 C          -3.6306  -18.9116   22.3679 C.ar    1  UNL1       -0.0025
@<TRIPOS>BOND
     1     6     7    1
     2     7     3    1
     3     3     4    1
     4     3     2    1
     5     2     1    1
     6     1    10    1
     7    10    11    1
     8    11    12   ar
     9    12    13   ar
    10    13    14   ar
    11    14    15    1
    12    14    16   ar
    13    16    17   ar
    14    17    11   ar
    15     6     8    1
    16     6     9    1
    17     4     5    1
@<TRIPOS>MOLECULE
*****
 17 17 0 0 0
SMALL
GASTEIGER

@<TRIPOS>ATOM
      1 S          -8.5210  -18.5006   22.5122 S.3     1  UNL1       -0.1328
      2 C          -9.1008  -17.1875   22.0767 C.3     1  UNL1        0.0885
      3 C          -8.3453  -15.9153   22.3233 C.3     1  UNL1        0.1367
      4 O          -8.2356  -14.8858   21.2380 O.3     1  UNL1       -0.3822
      5 H          -8.7052  -15.1970   20.4484 H       1  UNL1        0.2104
      6 N          -7.5544  -14.2731   24.1747 N.3     1  UNL1       -0.3191
      7 C          -7.6994  -15.6728   23.6552 C.3     1  UNL1        0.0956
      8 H          -7.0971  -14.2944   25.0862 H       1  UNL1        0.1189
      9 H          -8.4767  -13.8474   24.2669 H       1  UNL1        0.1189
     10 C          -7.8920  -19.4145   21.5026 C.3     1  UNL1        0.0838
     11 C          -6.3983  -19.4990   21.3954 C.ar    1  UNL1       -0.0113
     12 C          -5.7696  -20.3525   20.3342 C.ar    1  UNL1       -0.0025
     13 C          -4.2758  -20.4370   20.2270 C.ar    1  UNL1        0.0111
     14 C          -3.4107  -19.6680   21.1809 C.ar    1  UNL1        0.0577
     15 CL         -1.9169  -19.7525   21.0737 Cl      1  UNL1       -0.0822
     16 C          -4.0394  -18.8144   22.2421 C.ar    1  UNL1        0.0111
     17 C          -5.5331  -18.7299   22.3494 C.ar    1  UNL1       -0.0025
@<TRIPOS>BOND
     1     6     7    1
     2     7     3    1
     3     3     4    1
     4     3     2    1
     5     2     1    1
     6     1    10    1
     7    10    11    1
     8    11    12   ar
     9    12    13   ar
    10    13    14   ar
    11    14    15    1
    12    14    16   ar
    13    16    17   ar
    14    17    11   ar
    15     6     8    1
    16     6     9    1
    17     4     5    1
@<TRIPOS>MOLECULE
*****
 17 17 0 0 0
SMALL
GASTEIGER

@<TRIPOS>ATOM
      1 S          -7.8552  -18.4610   21.2447 S.3     1  UNL1       -0.1328
      2 C          -7.4730  -17.7644   22.5170 C.3     1  UNL1        0.0885
      3 C          -7.7952  -16.3111   22.7023 C.3     1  UNL1        0.1367
      4 O          -8.7573  -15.6318   21.7733 O.3     1  UNL1       -0.3822
      5 H          -9.0765  -16.2694   21.1156 H       1  UNL1        0.2104
      6 N          -7.6205  -14.1452   24.1265 N.3     1  UNL1       -0.3191
      7 C          -7.1554  -15.5372   23.8165 C.3     1  UNL1        0.0956
      8 H          -7.0801  -13.7720   24.9069 H       1  UNL1        0.1189
      9 H          -8.6093  -14.1649   24.3762 H       1  UNL1        0.1189
     10 C          -9.0580  -19.3566   21.2122 C.3     1  UNL1        0.0838
     11 C         -10.2979  -18.9748   21.9651 C.ar    1  UNL1       -0.0113
     12 C         -10.4283  -19.3188   23.4193 C.ar    1  UNL1       -0.0025
     13 C         -11.6682  -18.9370   24.1721 C.ar    1  UNL1        0.0111
     14 C         -12.7778  -18.2112   23.4708 C.ar    1  UNL1        0.0577
     15 CL        -14.0177  -17.8294   24.2237 Cl      1  UNL1       -0.0822
     16 C         -12.6475  -17.8671   22.0167 C.ar    1  UNL1        0.0111
     17 C         -11.4076  -18.2489   21.2638 C.ar    1  UNL1       -0.0025
@<TRIPOS>BOND
     1     6     7    1
     2     7     3    1
     3     3     4    1
     4     3     2    1
     5     2     1    1
     6     1    10    1
     7    10    11    1
     8    11    12   ar
     9    12    13   ar
    10    13    14   ar
    11    14    15    1
    12    14    16   ar
    13    16    17   ar
    14    17    11   ar
    15     6     8    1
    16     6     9    1
    17     4     5    1
@<TRIPOS>MOLECULE
*****
 17 17 0 0 0
SMALL
GASTEIGER

@<TRIPOS>ATOM
      1 S          -6.5778  -18.6868   22.1707 S.3     1  UNL1       -0.1328
      2 C          -5.1640  -19.1721   22.0452 C.3     1  UNL1        0.0885
      3 C          -4.5151  -19.2507   20.6950 C.3     1  UNL1        0.1367
      4 O          -5.1035  -18.5031   19.5354 O.3     1  UNL1       -0.3822
      5 H          -5.8943  -18.0233   19.8277 H       1  UNL1        0.2104
      6 N          -2.2093  -20.0812   21.5572 N.3     1  UNL1       -0.3191
      7 C          -3.2778  -20.0771   20.5045 C.3     1  UNL1        0.0956
      8 H          -1.4467  -20.6924   21.2652 H       1  UNL1        0.1189
      9 H          -2.5994  -20.4207   22.4364 H       1  UNL1        0.1189
     10 C          -7.7140  -19.6645   22.1159 C.3     1  UNL1        0.0838
     11 C          -9.1066  -19.2153   22.4456 C.ar    1  UNL1       -0.0113
     12 C          -9.3864  -18.5396   23.7552 C.ar    1  UNL1       -0.0025
     13 C         -10.7790  -18.0903   24.0849 C.ar    1  UNL1        0.0111
     14 C         -11.8919  -18.3167   23.1050 C.ar    1  UNL1        0.0577
     15 CL        -13.2845  -17.8674   23.4347 Cl      1  UNL1       -0.0822
     16 C         -11.6121  -18.9924   21.7954 C.ar    1  UNL1        0.0111
     17 C         -10.2195  -19.4417   21.4657 C.ar    1  UNL1       -0.0025
@<TRIPOS>BOND
     1     6     7    1
     2     7     3    1
     3     3     4    1
     4     3     2    1
     5     2     1    1
     6     1    10    1
     7    10    11    1
     8    11    12   ar
     9    12    13   ar
    10    13    14   ar
    11    14    15    1
    12    14    16   ar
    13    16    17   ar
    14    17    11   ar
    15     6     8    1
    16     6     9    1
    17     4     5    1
@<TRIPOS>MOLECULE
*****
 17 17 0 0 0
SMALL
GASTEIGER

@<TRIPOS>ATOM
      1 S          -7.1323  -19.2874   21.2291 S.3     1  UNL1       -0.1328
      2 C          -7.8001  -18.5441   22.3478 C.3     1  UNL1        0.0885
      3 C          -7.4325  -17.1163   22.6241 C.3     1  UNL1        0.1367
      4 O          -6.0801  -16.7844   23.1815 O.3     1  UNL1       -0.3822
      5 H          -5.5712  -17.6012   23.3033 H       1  UNL1        0.2104
      6 N          -7.9913  -14.8099   21.5667 N.3     1  UNL1       -0.3191
      7 C          -8.4175  -16.0204   22.3431 C.3     1  UNL1        0.0956
      8 H          -8.7816  -14.1723   21.4701 H       1  UNL1        0.1189
      9 H          -7.6695  -15.0952   20.6417 H       1  UNL1        0.1189
     10 C          -5.9124  -20.1163   21.5024 C.3     1  UNL1        0.0838
     11 C          -4.5534  -19.5914   21.1451 C.ar    1  UNL1       -0.0113
     12 C          -3.5389  -19.3421   22.2215 C.ar    1  UNL1       -0.0025
     13 C          -2.1800  -18.8171   21.8643 C.ar    1  UNL1        0.0111
     14 C          -1.8355  -18.5415   20.4306 C.ar    1  UNL1        0.0577
     15 CL         -0.4765  -18.0165   20.0734 Cl      1  UNL1       -0.0822
     16 C          -2.8500  -18.7908   19.3543 C.ar    1  UNL1        0.0111
     17 C          -4.2089  -19.3157   19.7115 C.ar    1  UNL1       -0.0025
@<TRIPOS>BOND
     1     6     7    1
     2     7     3    1
     3     3     4    1
     4     3     2    1
     5     2     1    1
     6     1    10    1
     7    10    11    1
     8    11    12   ar
     9    12    13   ar
    10    13    14   ar
    11    14    15    1
    12    14    16   ar
    13    16    17   ar
    14    17    11   ar
    15     6     8    1
    16     6     9    1
    17     4     5    1
@<TRIPOS>MOLECULE
*****
 17 17 0 0 0
SMALL
GASTEIGER

@<TRIPOS>ATOM
      1 S          -4.8781  -19.2963   20.6985 S.3     1  UNL1       -0.1328
      2 C          -3.6369  -19.2114   19.8605 C.3     1  UNL1        0.0885
      3 C          -2.2874  -19.2282   20.5152 C.3     1  UNL1        0.1367
      4 O          -1.9739  -20.2570   21.5609 O.3     1  UNL1       -0.3822
      5 H          -2.7459  -20.8290   21.6934 H       1  UNL1        0.2104
      6 N           0.1401  -18.6607   19.7835 N.3     1  UNL1       -0.3191
      7 C          -1.2514  -18.2163   20.1243 C.3     1  UNL1        0.0956
      8 H           0.7073  -17.8478   19.5430 H       1  UNL1        0.1189
      9 H           0.1079  -19.2999   18.9892 H       1  UNL1        0.1189
     10 C          -5.9821  -20.2348   20.3106 C.3     1  UNL1        0.0838
     11 C          -7.4128  -19.8410   20.5293 C.ar    1  UNL1       -0.0113
     12 C          -7.9083  -19.5541   21.9157 C.ar    1  UNL1       -0.0025
     13 C          -9.3390  -19.1602   22.1344 C.ar    1  UNL1        0.0111
     14 C         -10.2743  -19.0532   20.9666 C.ar    1  UNL1        0.0577
     15 CL        -11.7051  -18.6593   21.1853 Cl      1  UNL1       -0.0822
     16 C          -9.7789  -19.3400   19.5802 C.ar    1  UNL1        0.0111
     17 C          -8.3481  -19.7339   19.3615 C.ar    1  UNL1       -0.0025
@<TRIPOS>BOND
     1     6     7    1
     2     7     3    1
     3     3     4    1
     4     3     2    1
     5     2     1    1
     6     1    10    1
     7    10    11    1
     8    11    12   ar
     9    12    13   ar
    10    13    14   ar
    11    14    15    1
    12    14    16   ar
    13    16    17   ar
    14    17    11   ar
    15     6     8    1
    16     6     9    1
    17     4     5    1
@<TRIPOS>MOLECULE
*****
 17 17 0 0 0
SMALL
GASTEIGER

@<TRIPOS>ATOM
      1 S          -9.1869  -17.7161   21.8146 S.3     1  UNL1       -0.1328
      2 C         -10.6822  -17.8343   21.8196 C.3     1  UNL1        0.0885
      3 C         -11.5218  -16.7560   21.2011 C.3     1  UNL1        0.1367
      4 O         -12.4417  -15.9376   22.0578 O.3     1  UNL1       -0.3822
      5 H         -12.3728  -16.2322   22.9794 H       1  UNL1        0.2104
      6 N         -12.3665  -15.5027   19.0879 N.3     1  UNL1       -0.3191
      7 C         -11.4414  -16.4962   19.7260 C.3     1  UNL1        0.0956
      8 H         -12.1743  -15.4529   18.0874 H       1  UNL1        0.1189
      9 H         -12.2217  -14.5847   19.5080 H       1  UNL1        0.1189
     10 C          -8.5382  -16.3919   22.0895 C.3     1  UNL1        0.0838
     11 C          -8.0479  -16.0691   23.4698 C.ar    1  UNL1       -0.0113
     12 C          -6.5949  -15.7760   23.7001 C.ar    1  UNL1       -0.0025
     13 C          -6.1045  -15.4532   25.0805 C.ar    1  UNL1        0.0111
     14 C          -7.0671  -15.4235   26.2305 C.ar    1  UNL1        0.0577
     15 CL         -6.5767  -15.1007   27.6108 Cl      1  UNL1       -0.0822
     16 C          -8.5200  -15.7166   26.0002 C.ar    1  UNL1        0.0111
     17 C          -9.0104  -16.0393   24.6199 C.ar    1  UNL1       -0.0025
@<TRIPOS>BOND
     1     6     7    1
     2     7     3    1
     3     3     4    1
     4     3     2    1
     5     2     1    1
     6     1    10    1
     7    10    11    1
     8    11    12   ar
     9    12    13   ar
    10    13    14   ar
    11    14    15    1
    12    14    16   ar
    13    16    17   ar
    14    17    11   ar
    15     6     8    1
    16     6     9    1
    17     4     5    1
