@<TRIPOS>MOLECULE
*****
 28 31 0 0 0
SMALL
GASTEIGER

@<TRIPOS>ATOM
      1 C           6.5360   -2.2470   32.0402 C.ar    1  UNL1        0.0504
      2 C           6.6056   -1.6772   30.6544 C.ar    1  UNL1        0.0160
      3 C           6.8625   -2.5800   29.4844 C.ar    1  UNL1        0.0200
      4 C           7.0497   -4.0525   29.7002 C.ar    1  UNL1        0.1104
      5 C           6.9801   -4.6223   31.0860 C.ar    1  UNL1        0.0200
      6 C           6.7232   -3.7196   32.2560 C.ar    1  UNL1        0.0160
      7 O           3.9111   -2.3766   33.4870 O.2     1  UNL1       -0.2748
      8 C           4.9667   -1.4091   33.9337 C.2     1  UNL1        0.2260
      9 N           6.2791   -1.3443   33.2103 N.am    1  UNL1       -0.2839
     10 H           6.9719   -0.7092   33.5035 H       1  UNL1        0.1549
     11 C           4.7098   -0.5063   35.1038 C.3     1  UNL1        0.0812
     12 C           4.9138   -0.1641   36.5499 C.3     1  UNL1        0.0143
     13 C           4.0608    0.7151   35.6843 C.3     1  UNL1        0.0330
     14 C           3.1937    1.9279   35.5197 C.ar    1  UNL1       -0.0029
     15 C           2.9528    2.8414   36.6848 C.ar    1  UNL1       -0.0011
     16 C           2.0856    4.0542   36.5202 C.ar    1  UNL1        0.0204
     17 C           1.4593    4.3536   35.1905 C.ar    1  UNL1        0.0989
     18 N           1.7002    3.4401   34.0254 N.ar    1  UNL1       -0.2426
     19 C           2.5674    2.2272   34.1900 C.ar    1  UNL1        0.0946
     20 S           7.3066   -4.9553   28.5301 S.O2    1  UNL1        0.0274
     21 O           7.2948   -6.1441   29.4447 O.2     1  UNL1       -0.1642
     22 O           7.3183   -3.7666   27.6154 O.2     1  UNL1       -0.1642
     23 C           7.5634   -5.8581   27.3600 C.ar    1  UNL1        0.1103
     24 C           7.9810   -7.2807   27.5878 C.ar    1  UNL1        0.0187
     25 C           8.2379   -8.1835   26.4178 C.ar    1  UNL1        0.0013
     26 C           8.0772   -7.6637   25.0200 C.ar    1  UNL1        0.0001
     27 C           7.6597   -6.2411   24.7921 C.ar    1  UNL1        0.0013
     28 C           7.4028   -5.3383   25.9622 C.ar    1  UNL1        0.0187
@<TRIPOS>BOND
     1     7     8    2
     2     8     9   am
     3     9     1    1
     4     1     2   ar
     5     2     3   ar
     6     3     4   ar
     7     4    20    1
     8    20    21    2
     9    20    22    2
    10    20    23    1
    11    23    24   ar
    12    24    25   ar
    13    25    26   ar
    14    26    27   ar
    15    27    28   ar
    16     4     5   ar
    17     5     6   ar
    18    11     8    1
    19    11    12    1
    20    12    13    1
    21    13    14    1
    22    14    15   ar
    23    15    16   ar
    24    16    17   ar
    25    17    18   ar
    26    18    19   ar
    27     6     1   ar
    28    13    11    1
    29    19    14   ar
    30    28    23   ar
    31     9    10    1
@<TRIPOS>MOLECULE
*****
 28 31 0 0 0
SMALL
GASTEIGER

@<TRIPOS>ATOM
      1 C           6.0388   -2.6721   21.4002 C.ar    1  UNL1        0.0504
      2 C           5.3739   -2.6450   22.7445 C.ar    1  UNL1        0.0160
      3 C           5.8434   -3.5651   23.8321 C.ar    1  UNL1        0.0200
      4 C           6.9778   -4.5123   23.5754 C.ar    1  UNL1        0.1104
      5 C           7.6427   -4.5394   22.2311 C.ar    1  UNL1        0.0200
      6 C           7.1732   -3.6193   21.1435 C.ar    1  UNL1        0.0160
      7 O           3.6905   -3.4377   19.6974 O.2     1  UNL1       -0.2748
      8 C           4.3952   -2.1347   19.4611 C.2     1  UNL1        0.2260
      9 N           5.5693   -1.7519   20.3125 N.am    1  UNL1       -0.2839
     10 H           6.0318   -0.8968   20.1574 H       1  UNL1        0.1549
     11 C           3.9257   -1.2146   18.3734 C.3     1  UNL1        0.0812
     12 C           3.8188   -0.8734   16.9167 C.3     1  UNL1        0.0143
     13 C           3.2194    0.0379   17.9463 C.3     1  UNL1        0.0330
     14 C           2.4656    1.2872   18.2942 C.ar    1  UNL1       -0.0029
     15 C           3.2101    2.5585   18.5758 C.ar    1  UNL1       -0.0011
     16 C           2.4563    3.8078   18.9237 C.ar    1  UNL1        0.0204
     17 C           0.9579    3.7857   18.9900 C.ar    1  UNL1        0.0989
     18 N           0.2134    2.5144   18.7083 N.ar    1  UNL1       -0.2426
     19 C           0.9673    1.2650   18.3604 C.ar    1  UNL1        0.0946
     20 S           7.4473   -5.4325   24.6631 S.O2    1  UNL1        0.0274
     21 O           7.9101   -6.4170   23.6304 O.2     1  UNL1       -0.1642
     22 O           6.9845   -4.4479   25.6958 O.2     1  UNL1       -0.1642
     23 C           7.9168   -6.3526   25.7507 C.ar    1  UNL1        0.1103
     24 C           8.7073   -7.5798   25.4056 C.ar    1  UNL1        0.0187
     25 C           9.1768   -8.5000   26.4931 C.ar    1  UNL1        0.0013
     26 C           8.8558   -8.1929   27.9259 C.ar    1  UNL1        0.0001
     27 C           8.0653   -6.9658   28.2710 C.ar    1  UNL1        0.0013
     28 C           7.5958   -6.0455   27.1834 C.ar    1  UNL1        0.0187
@<TRIPOS>BOND
     1     7     8    2
     2     8     9   am
     3     9     1    1
     4     1     2   ar
     5     2     3   ar
     6     3     4   ar
     7     4    20    1
     8    20    21    2
     9    20    22    2
    10    20    23    1
    11    23    24   ar
    12    24    25   ar
    13    25    26   ar
    14    26    27   ar
    15    27    28   ar
    16     4     5   ar
    17     5     6   ar
    18    11     8    1
    19    11    12    1
    20    12    13    1
    21    13    14    1
    22    14    15   ar
    23    15    16   ar
    24    16    17   ar
    25    17    18   ar
    26    18    19   ar
    27     6     1   ar
    28    13    11    1
    29    19    14   ar
    30    28    23   ar
    31     9    10    1
@<TRIPOS>MOLECULE
*****
 28 31 0 0 0
SMALL
GASTEIGER

@<TRIPOS>ATOM
      1 C           3.7624   -1.2303   27.5402 C.ar    1  UNL1        0.0504
      2 C           5.1516   -1.5870   27.9793 C.ar    1  UNL1        0.0160
      3 C           5.5476   -1.4283   29.4173 C.ar    1  UNL1        0.0200
      4 C           4.5544   -0.9128   30.4162 C.ar    1  UNL1        0.1104
      5 C           3.1652   -0.5561   29.9771 C.ar    1  UNL1        0.0200
      6 C           2.7692   -0.7148   28.5391 C.ar    1  UNL1        0.0160
      7 O           3.8470    1.1310   25.6916 O.2     1  UNL1       -0.2748
      8 C           3.4086   -0.2084   25.1778 C.2     1  UNL1        0.2260
      9 N           3.3664   -1.3890   26.1021 N.am    1  UNL1       -0.2839
     10 H           3.0787   -2.2681   25.7649 H       1  UNL1        0.1549
     11 C           3.0126   -0.3671   23.7397 C.3     1  UNL1        0.0812
     12 C           2.1912    0.0690   22.5628 C.3     1  UNL1        0.0143
     13 C           3.1480   -1.0781   22.4259 C.3     1  UNL1        0.0330
     14 C           3.7785   -2.1508   21.5883 C.ar    1  UNL1       -0.0029
     15 C           3.5373   -2.1858   20.1083 C.ar    1  UNL1       -0.0011
     16 C           4.1678   -3.2585   19.2707 C.ar    1  UNL1        0.0204
     17 C           5.0397   -4.2964   19.9132 C.ar    1  UNL1        0.0989
     18 N           5.2810   -4.2615   21.3932 N.ar    1  UNL1       -0.2426
     19 C           4.6504   -3.1886   22.2308 C.ar    1  UNL1        0.0946
     20 S           4.9504   -0.7541   31.8543 S.O2    1  UNL1        0.0274
     21 O           3.6919   -1.4517   32.2778 O.2     1  UNL1       -0.1642
     22 O           6.2089   -0.0565   31.4308 O.2     1  UNL1       -0.1642
     23 C           5.3464   -0.5954   33.2923 C.ar    1  UNL1        0.1103
     24 C           4.3126   -0.7156   34.3726 C.ar    1  UNL1        0.0187
     25 C           4.7086   -0.5569   35.8106 C.ar    1  UNL1        0.0013
     26 C           6.1384   -0.2780   36.1685 C.ar    1  UNL1        0.0001
     27 C           7.1721   -0.1578   35.0883 C.ar    1  UNL1        0.0013
     28 C           6.7762   -0.3165   33.6502 C.ar    1  UNL1        0.0187
@<TRIPOS>BOND
     1     7     8    2
     2     8     9   am
     3     9     1    1
     4     1     2   ar
     5     2     3   ar
     6     3     4   ar
     7     4    20    1
     8    20    21    2
     9    20    22    2
    10    20    23    1
    11    23    24   ar
    12    24    25   ar
    13    25    26   ar
    14    26    27   ar
    15    27    28   ar
    16     4     5   ar
    17     5     6   ar
    18    11     8    1
    19    11    12    1
    20    12    13    1
    21    13    14    1
    22    14    15   ar
    23    15    16   ar
    24    16    17   ar
    25    17    18   ar
    26    18    19   ar
    27     6     1   ar
    28    13    11    1
    29    19    14   ar
    30    28    23   ar
    31     9    10    1
@<TRIPOS>MOLECULE
*****
 28 31 0 0 0
SMALL
GASTEIGER

@<TRIPOS>ATOM
      1 C           2.6393    0.4762   27.7694 C.ar    1  UNL1        0.0504
      2 C           3.6768    1.4041   28.3285 C.ar    1  UNL1        0.0160
      3 C           3.9700    1.4022   29.7995 C.ar    1  UNL1        0.0200
      4 C           3.2258    0.4724   30.7114 C.ar    1  UNL1        0.1104
      5 C           2.1883   -0.4554   30.1523 C.ar    1  UNL1        0.0200
      6 C           1.8950   -0.4535   28.6813 C.ar    1  UNL1        0.0160
      7 O           4.2991   -1.1897   25.9067 O.2     1  UNL1       -0.2748
      8 C           3.1759   -0.3549   25.3670 C.2     1  UNL1        0.2260
      9 N           2.3460    0.4781   26.2983 N.am    1  UNL1       -0.2839
     10 H           1.6087    1.0261   25.9440 H       1  UNL1        0.1549
     11 C           2.8825   -0.3530   23.8959 C.3     1  UNL1        0.0812
     12 C           2.2067    0.2629   22.7069 C.3     1  UNL1        0.0143
     13 C           3.0504   -0.9656   22.5370 C.3     1  UNL1        0.0330
     14 C           3.6344   -2.0286   21.6545 C.ar    1  UNL1       -0.0029
     15 C           3.3326   -2.0329   20.1852 C.ar    1  UNL1       -0.0011
     16 C           3.9166   -3.0958   19.3026 C.ar    1  UNL1        0.0204
     17 C           4.8025   -4.1546   19.8893 C.ar    1  UNL1        0.0989
     18 N           5.1044   -4.1503   21.3586 N.ar    1  UNL1       -0.2426
     19 C           4.5203   -3.0873   22.2412 C.ar    1  UNL1        0.0946
     20 S           3.5191    0.4705   32.1825 S.O2    1  UNL1        0.0274
     21 O           3.6759    1.9620   32.1531 O.2     1  UNL1       -0.1642
     22 O           3.3623   -1.0209   32.2119 O.2     1  UNL1       -0.1642
     23 C           3.8124    0.4687   33.6535 C.ar    1  UNL1        0.1103
     24 C           4.5399   -0.6883   34.2718 C.ar    1  UNL1        0.0187
     25 C           4.8332   -0.6901   35.7428 C.ar    1  UNL1        0.0013
     26 C           4.3991    0.4650   36.5956 C.ar    1  UNL1        0.0001
     27 C           3.6716    1.6219   35.9774 C.ar    1  UNL1        0.0013
     28 C           3.3782    1.6238   34.5063 C.ar    1  UNL1        0.0187
@<TRIPOS>BOND
     1     7     8    2
     2     8     9   am
     3     9     1    1
     4     1     2   ar
     5     2     3   ar
     6     3     4   ar
     7     4    20    1
     8    20    21    2
     9    20    22    2
    10    20    23    1
    11    23    24   ar
    12    24    25   ar
    13    25    26   ar
    14    26    27   ar
    15    27    28   ar
    16     4     5   ar
    17     5     6   ar
    18    11     8    1
    19    11    12    1
    20    12    13    1
    21    13    14    1
    22    14    15   ar
    23    15    16   ar
    24    16    17   ar
    25    17    18   ar
    26    18    19   ar
    27     6     1   ar
    28    13    11    1
    29    19    14   ar
    30    28    23   ar
    31     9    10    1
@<TRIPOS>MOLECULE
*****
 28 31 0 0 0
SMALL
GASTEIGER

@<TRIPOS>ATOM
      1 C           4.4133   -2.8336   21.7034 C.ar    1  UNL1        0.0504
      2 C           3.8822   -1.8300   22.6834 C.ar    1  UNL1        0.0160
      3 C           2.9547   -0.7465   22.2190 C.ar    1  UNL1        0.0200
      4 C           2.5583   -0.6667   20.7746 C.ar    1  UNL1        0.1104
      5 C           3.0894   -1.6703   19.7945 C.ar    1  UNL1        0.0200
      6 C           4.0169   -2.7538   20.2589 C.ar    1  UNL1        0.0160
      7 O           7.3819   -2.4695   21.4688 O.2     1  UNL1       -0.2748
      8 C           6.8252   -3.7351   22.0505 C.2     1  UNL1        0.2260
      9 N           5.3409   -3.9172   22.1678 N.am    1  UNL1       -0.2839
     10 H           4.9756   -4.7478   22.5496 H       1  UNL1        0.1549
     11 C           7.7528   -4.8186   22.5149 C.3     1  UNL1        0.0812
     12 C           8.8648   -5.7853   22.2341 C.3     1  UNL1        0.0143
     13 C           8.2474   -5.7286   23.5999 C.3     1  UNL1        0.0330
     14 C           8.1764   -6.2212   25.0149 C.ar    1  UNL1       -0.0029
     15 C           7.8995   -7.6691   25.2921 C.ar    1  UNL1       -0.0011
     16 C           7.8286   -8.1617   26.7071 C.ar    1  UNL1        0.0204
     17 C           8.0345   -7.2063   27.8450 C.ar    1  UNL1        0.0989
     18 N           8.3114   -5.7584   27.5679 N.ar    1  UNL1       -0.2426
     19 C           8.3823   -5.2658   26.1528 C.ar    1  UNL1        0.0946
     20 S           1.6307    0.4168   20.3102 S.O2    1  UNL1        0.0274
     21 O           2.7829    1.3750   20.2444 O.2     1  UNL1       -0.1642
     22 O           0.4785   -0.5413   20.3759 O.2     1  UNL1       -0.1642
     23 C           0.7032    1.5003   19.8458 C.ar    1  UNL1        0.1103
     24 C           0.8051    2.0253   18.4443 C.ar    1  UNL1        0.0187
     25 C          -0.1224    3.1088   17.9799 C.ar    1  UNL1        0.0013
     26 C          -1.1519    3.6674   18.9170 C.ar    1  UNL1        0.0001
     27 C          -1.2539    3.1425   20.3184 C.ar    1  UNL1        0.0013
     28 C          -0.3264    2.0590   20.7828 C.ar    1  UNL1        0.0187
@<TRIPOS>BOND
     1     7     8    2
     2     8     9   am
     3     9     1    1
     4     1     2   ar
     5     2     3   ar
     6     3     4   ar
     7     4    20    1
     8    20    21    2
     9    20    22    2
    10    20    23    1
    11    23    24   ar
    12    24    25   ar
    13    25    26   ar
    14    26    27   ar
    15    27    28   ar
    16     4     5   ar
    17     5     6   ar
    18    11     8    1
    19    11    12    1
    20    12    13    1
    21    13    14    1
    22    14    15   ar
    23    15    16   ar
    24    16    17   ar
    25    17    18   ar
    26    18    19   ar
    27     6     1   ar
    28    13    11    1
    29    19    14   ar
    30    28    23   ar
    31     9    10    1
@<TRIPOS>MOLECULE
*****
 28 31 0 0 0
SMALL
GASTEIGER

@<TRIPOS>ATOM
      1 C           3.6068   -1.2270   28.0360 C.ar    1  UNL1        0.0504
      2 C           4.9009   -1.3667   28.7813 C.ar    1  UNL1        0.0160
      3 C           4.9782   -0.9807   30.2287 C.ar    1  UNL1        0.0200
      4 C           3.7613   -0.4550   30.9307 C.ar    1  UNL1        0.1104
      5 C           2.4671   -0.3153   30.1853 C.ar    1  UNL1        0.0200
      6 C           2.3899   -0.7013   28.7380 C.ar    1  UNL1        0.0160
      7 O           3.8361    0.8756   25.9084 O.2     1  UNL1       -0.2748
      8 C           3.6441   -0.5617   25.5248 C.2     1  UNL1        0.2260
      9 N           3.5295   -1.6130   26.5885 N.am    1  UNL1       -0.2839
     10 H           3.4035   -2.5564   26.3367 H       1  UNL1        0.1549
     11 C           3.5668   -0.9478   24.0773 C.3     1  UNL1        0.0812
     12 C           4.0212   -1.8093   22.9366 C.3     1  UNL1        0.0143
     13 C           2.9786   -0.7548   22.7110 C.3     1  UNL1        0.0330
     14 C           2.0371   -0.0345   21.7920 C.ar    1  UNL1       -0.0029
     15 C           1.8575   -0.5087   20.3802 C.ar    1  UNL1       -0.0011
     16 C           0.9160    0.2116   19.4612 C.ar    1  UNL1        0.0204
     17 C           0.1539    1.4061   19.9539 C.ar    1  UNL1        0.0989
     18 N           0.3335    1.8802   21.3656 N.ar    1  UNL1       -0.2426
     19 C           1.2751    1.1599   22.2846 C.ar    1  UNL1        0.0946
     20 S           3.8386   -0.0690   32.3782 S.O2    1  UNL1        0.0274
     21 O           4.9274   -1.0788   32.5893 O.2     1  UNL1       -0.1642
     22 O           2.7497    0.9408   32.1671 O.2     1  UNL1       -0.1642
     23 C           3.9159    0.3169   33.8256 C.ar    1  UNL1        0.1103
     24 C           3.2465    1.5711   34.3042 C.ar    1  UNL1        0.0187
     25 C           3.3238    1.9571   35.7516 C.ar    1  UNL1        0.0013
     26 C           4.0705    1.0889   36.7205 C.ar    1  UNL1        0.0001
     27 C           4.7399   -0.1652   36.2419 C.ar    1  UNL1        0.0013
     28 C           4.6626   -0.5512   34.7945 C.ar    1  UNL1        0.0187
@<TRIPOS>BOND
     1     7     8    2
     2     8     9   am
     3     9     1    1
     4     1     2   ar
     5     2     3   ar
     6     3     4   ar
     7     4    20    1
     8    20    21    2
     9    20    22    2
    10    20    23    1
    11    23    24   ar
    12    24    25   ar
    13    25    26   ar
    14    26    27   ar
    15    27    28   ar
    16     4     5   ar
    17     5     6   ar
    18    11     8    1
    19    11    12    1
    20    12    13    1
    21    13    14    1
    22    14    15   ar
    23    15    16   ar
    24    16    17   ar
    25    17    18   ar
    26    18    19   ar
    27     6     1   ar
    28    13    11    1
    29    19    14   ar
    30    28    23   ar
    31     9    10    1
@<TRIPOS>MOLECULE
*****
 28 31 0 0 0
SMALL
GASTEIGER

@<TRIPOS>ATOM
      1 C          -0.9004    2.9685   20.6570 C.ar    1  UNL1        0.0504
      2 C          -0.8524    3.1845   22.1405 C.ar    1  UNL1        0.0160
      3 C          -2.0788    3.6446   22.8715 C.ar    1  UNL1        0.0200
      4 C          -3.3531    3.8888   22.1188 C.ar    1  UNL1        0.1104
      5 C          -3.4011    3.6728   20.6353 C.ar    1  UNL1        0.0200
      6 C          -2.1747    3.2127   19.9043 C.ar    1  UNL1        0.0160
      7 O          -0.1598    0.0614   20.6511 O.2     1  UNL1       -0.2748
      8 C           0.6962    1.0549   19.9230 C.2     1  UNL1        0.2260
      9 N           0.3260    2.5084   19.9259 N.am    1  UNL1       -0.2839
     10 H           0.8879    3.1605   19.4481 H       1  UNL1        0.1549
     11 C           1.9226    0.5947   19.1920 C.3     1  UNL1        0.0812
     12 C           2.8773    0.7298   18.0429 C.3     1  UNL1        0.0143
     13 C           3.0921   -0.3373   19.0749 C.3     1  UNL1        0.0330
     14 C           3.8913   -1.4915   19.6032 C.ar    1  UNL1       -0.0029
     15 C           3.3223   -2.8788   19.5625 C.ar    1  UNL1       -0.0011
     16 C           4.1214   -4.0330   20.0908 C.ar    1  UNL1        0.0204
     17 C           5.4897   -3.7999   20.6597 C.ar    1  UNL1        0.0989
     18 N           6.0587   -2.4126   20.7004 N.ar    1  UNL1       -0.2426
     19 C           5.2594   -1.2584   20.1721 C.ar    1  UNL1        0.0946
     20 S          -4.5795    4.3489   22.8499 S.O2    1  UNL1        0.0274
     21 O          -5.0666    2.9322   22.9243 O.2     1  UNL1       -0.1642
     22 O          -4.0924    5.7656   22.7754 O.2     1  UNL1       -0.1642
     23 C          -5.8058    4.8090   23.5808 C.ar    1  UNL1        0.1103
     24 C          -7.1609    4.3365   23.1440 C.ar    1  UNL1        0.0187
     25 C          -8.3872    4.7965   23.8750 C.ar    1  UNL1        0.0013
     26 C          -8.2586    5.7291   25.0428 C.ar    1  UNL1        0.0001
     27 C          -6.9037    6.2016   25.4796 C.ar    1  UNL1        0.0013
     28 C          -5.6773    5.7415   24.7486 C.ar    1  UNL1        0.0187
@<TRIPOS>BOND
     1     7     8    2
     2     8     9   am
     3     9     1    1
     4     1     2   ar
     5     2     3   ar
     6     3     4   ar
     7     4    20    1
     8    20    21    2
     9    20    22    2
    10    20    23    1
    11    23    24   ar
    12    24    25   ar
    13    25    26   ar
    14    26    27   ar
    15    27    28   ar
    16     4     5   ar
    17     5     6   ar
    18    11     8    1
    19    11    12    1
    20    12    13    1
    21    13    14    1
    22    14    15   ar
    23    15    16   ar
    24    16    17   ar
    25    17    18   ar
    26    18    19   ar
    27     6     1   ar
    28    13    11    1
    29    19    14   ar
    30    28    23   ar
    31     9    10    1
@<TRIPOS>MOLECULE
*****
 28 31 0 0 0
SMALL
GASTEIGER

@<TRIPOS>ATOM
      1 C           1.9920    0.2244   18.8224 C.ar    1  UNL1        0.0504
      2 C           3.3268    0.1223   18.1459 C.ar    1  UNL1        0.0160
      3 C           4.4070   -0.7301   18.7430 C.ar    1  UNL1        0.0200
      4 C           4.1523   -1.4805   20.0166 C.ar    1  UNL1        0.1104
      5 C           2.8175   -1.3784   20.6931 C.ar    1  UNL1        0.0200
      6 C           1.7373   -0.5260   20.0960 C.ar    1  UNL1        0.0160
      7 O           1.8741    3.1553   19.4515 O.2     1  UNL1       -0.2748
      8 C           0.8528    2.5423   18.5398 C.2     1  UNL1        0.2260
      9 N           0.9117    1.0768   18.2253 N.am    1  UNL1       -0.2839
     10 H           0.2414    0.6745   17.6270 H       1  UNL1        0.1549
     11 C          -0.2274    3.3947   17.9428 C.3     1  UNL1        0.0812
     12 C          -0.6708    4.4115   16.9331 C.3     1  UNL1        0.0143
     13 C          -1.6551    3.8543   17.9182 C.3     1  UNL1        0.0330
     14 C          -3.0476    3.7979   18.4729 C.ar    1  UNL1       -0.0029
     15 C          -4.2264    3.9406   17.5563 C.ar    1  UNL1       -0.0011
     16 C          -5.6189    3.8842   18.1109 C.ar    1  UNL1        0.0204
     17 C          -5.8327    3.6851   19.5822 C.ar    1  UNL1        0.0989
     18 N          -4.6539    3.5424   20.4989 N.ar    1  UNL1       -0.2426
     19 C          -3.2613    3.5988   19.9441 C.ar    1  UNL1        0.0946
     20 S           5.2326   -2.3329   20.6137 S.O2    1  UNL1        0.0274
     21 O           4.1922   -3.2389   21.2023 O.2     1  UNL1       -0.1642
     22 O           6.2730   -1.4269   20.0250 O.2     1  UNL1       -0.1642
     23 C           6.3128   -3.1853   21.2108 C.ar    1  UNL1        0.1103
     24 C           6.1718   -3.7024   22.6118 C.ar    1  UNL1        0.0187
     25 C           7.2520   -4.5548   23.2089 C.ar    1  UNL1        0.0013
     26 C           8.4731   -4.8903   22.4050 C.ar    1  UNL1        0.0001
     27 C           8.6141   -4.3733   21.0040 C.ar    1  UNL1        0.0013
     28 C           7.5339   -3.5208   20.4069 C.ar    1  UNL1        0.0187
@<TRIPOS>BOND
     1     7     8    2
     2     8     9   am
     3     9     1    1
     4     1     2   ar
     5     2     3   ar
     6     3     4   ar
     7     4    20    1
     8    20    21    2
     9    20    22    2
    10    20    23    1
    11    23    24   ar
    12    24    25   ar
    13    25    26   ar
    14    26    27   ar
    15    27    28   ar
    16     4     5   ar
    17     5     6   ar
    18    11     8    1
    19    11    12    1
    20    12    13    1
    21    13    14    1
    22    14    15   ar
    23    15    16   ar
    24    16    17   ar
    25    17    18   ar
    26    18    19   ar
    27     6     1   ar
    28    13    11    1
    29    19    14   ar
    30    28    23   ar
    31     9    10    1
@<TRIPOS>MOLECULE
*****
 28 31 0 0 0
SMALL
GASTEIGER

@<TRIPOS>ATOM
      1 C          -0.2254    3.0769   19.8756 C.ar    1  UNL1        0.0504
      2 C           0.1837    2.6879   18.4860 C.ar    1  UNL1        0.0160
      3 C           1.1132    1.5298   18.2743 C.ar    1  UNL1        0.0200
      4 C           1.6335    0.7607   19.4523 C.ar    1  UNL1        0.1104
      5 C           1.2244    1.1497   20.8420 C.ar    1  UNL1        0.0200
      6 C           0.2949    2.3078   21.0537 C.ar    1  UNL1        0.0160
      7 O          -3.0558    2.5897   20.7426 O.2     1  UNL1       -0.2748
      8 C          -2.5701    3.9915   20.5208 C.2     1  UNL1        0.2260
      9 N          -1.1549    4.2351   20.0874 N.am    1  UNL1       -0.2839
     10 H          -0.8362    5.1551   19.9418 H       1  UNL1        0.1549
     11 C          -3.4996    5.1496   20.7325 C.3     1  UNL1        0.0812
     12 C          -3.9348    6.5447   20.3943 C.3     1  UNL1        0.0143
     13 C          -4.6743    5.7605   21.4374 C.3     1  UNL1        0.0330
     14 C          -5.7794    5.6605   22.4467 C.ar    1  UNL1       -0.0029
     15 C          -5.6907    6.4248   23.7343 C.ar    1  UNL1       -0.0011
     16 C          -6.7959    6.3247   24.7435 C.ar    1  UNL1        0.0204
     17 C          -7.9898    5.4603   24.4652 C.ar    1  UNL1        0.0989
     18 N          -8.0785    4.6960   23.1775 N.ar    1  UNL1       -0.2426
     19 C          -6.9733    4.7961   22.1683 C.ar    1  UNL1        0.0946
     20 S           2.5630   -0.3975   19.2406 S.O2    1  UNL1        0.0274
     21 O           2.2609   -0.8927   20.6239 O.2     1  UNL1       -0.1642
     22 O           2.8652    0.0978   17.8574 O.2     1  UNL1       -0.1642
     23 C           3.4925   -1.5556   19.0290 C.ar    1  UNL1        0.1103
     24 C           3.1258   -2.9155   19.5449 C.ar    1  UNL1        0.0187
     25 C           4.0553   -4.0736   19.3333 C.ar    1  UNL1        0.0013
     26 C           5.3514   -3.8719   18.6057 C.ar    1  UNL1        0.0001
     27 C           5.7180   -2.5120   18.0897 C.ar    1  UNL1        0.0013
     28 C           4.7886   -1.3538   18.3014 C.ar    1  UNL1        0.0187
@<TRIPOS>BOND
     1     7     8    2
     2     8     9   am
     3     9     1    1
     4     1     2   ar
     5     2     3   ar
     6     3     4   ar
     7     4    20    1
     8    20    21    2
     9    20    22    2
    10    20    23    1
    11    23    24   ar
    12    24    25   ar
    13    25    26   ar
    14    26    27   ar
    15    27    28   ar
    16     4     5   ar
    17     5     6   ar
    18    11     8    1
    19    11    12    1
    20    12    13    1
    21    13    14    1
    22    14    15   ar
    23    15    16   ar
    24    16    17   ar
    25    17    18   ar
    26    18    19   ar
    27     6     1   ar
    28    13    11    1
    29    19    14   ar
    30    28    23   ar
    31     9    10    1
