@<TRIPOS>MOLECULE
*****
 25 29 0 0 0
SMALL
GASTEIGER

@<TRIPOS>ATOM
      1 N          -6.2056  -19.9460   22.1483 N.pl3   1  UNL1       -0.2535
      2 H          -6.2688  -20.6727   22.8094 H       1  UNL1        0.1579
      3 C          -4.9116  -19.2099   21.9643 C.2     1  UNL1        0.2847
      4 N          -4.1867  -18.4245   23.0166 N.2     1  UNL1       -0.2204
      5 C          -2.9425  -17.8592   22.3983 C.3     1  UNL1        0.1712
      6 C          -2.8984  -18.2953   20.9637 C.3     1  UNL1        0.1729
      7 C          -2.9899  -18.8059   19.5563 C.3     1  UNL1        0.1147
      8 N          -1.9172  -18.4667   18.5642 N.3     1  UNL1       -0.2697
      9 C          -0.7530  -17.6169   18.9795 C.3     1  UNL1        0.0723
     10 C          -0.6616  -17.1063   20.3869 C.3     1  UNL1        0.0209
     11 C          -1.7343  -17.4455   21.3790 C.3     1  UNL1        0.0429
     12 C          -2.3978  -18.1370   20.5007 C.3     1  UNL1        0.0209
     13 C          -2.4466  -18.4093   19.7501 C.3     1  UNL1        0.0723
     14 O          -4.1155  -19.1300   20.6955 O.2     1  UNL1       -0.4536
     15 C          -9.7568  -18.4903   21.1381 C.ar    1  UNL1        0.1535
     16 C          -8.5591  -18.8615   21.9615 C.ar    1  UNL1        0.0720
     17 C          -7.4032  -19.5748   21.3250 C.ar    1  UNL1        0.1402
     18 N          -7.4450  -19.9170   19.8651 N.ar    1  UNL1       -0.2087
     19 C          -8.6426  -19.5458   19.0418 C.ar    1  UNL1        0.2014
     20 N          -9.7985  -18.8325   19.6783 N.ar    1  UNL1       -0.2061
     21 C         -12.9170  -17.3231   23.0657 C.ar    1  UNL1        0.1197
     22 C         -11.9573  -18.3995   22.6528 C.ar    1  UNL1        0.1035
     23 N         -10.9126  -17.7770   21.7746 N.ar    1  UNL1       -0.2711
     24 C         -11.2267  -16.3160   21.6448 C.ar    1  UNL1        0.1840
     25 N         -12.4654  -16.0356   22.4427 N.ar    1  UNL1       -0.2220
@<TRIPOS>BOND
     1    21    22   ar
     2    22    23   ar
     3    23    15    1
     4    15    16   ar
     5    16    17   ar
     6    17     1    1
     7     1     3    1
     8     3     4    2
     9     4     5    1
    10     6     5    1
    11     6     7    1
    12     7     8    1
    13     8     9    1
    14     9    10    1
    15    10    11    1
    16    11    12    1
    17    12    13    1
    18     6    14    1
    19    17    18   ar
    20    18    19   ar
    21    19    20   ar
    22    23    24   ar
    23    24    25   ar
    24    25    21   ar
    25    20    15   ar
    26    14     3    1
    27    11     6    1
    28    13     8    1
    29     1     2    1
@<TRIPOS>MOLECULE
*****
 25 29 0 0 0
SMALL
GASTEIGER

@<TRIPOS>ATOM
      1 N          -5.0769  -15.7520   24.2635 N.pl3   1  UNL1       -0.2535
      2 H          -4.6025  -15.0785   24.8026 H       1  UNL1        0.1579
      3 C          -4.3025  -16.6994   23.3960 C.2     1  UNL1        0.2847
      4 N          -4.5235  -18.1792   23.2902 N.2     1  UNL1       -0.2204
      5 C          -3.5286  -18.7277   22.3108 C.3     1  UNL1        0.1712
      6 C          -2.6926  -17.5869   21.8112 C.3     1  UNL1        0.1729
      7 C          -1.9422  -16.3533   21.4050 C.3     1  UNL1        0.1147
      8 N          -0.8243  -16.4492   20.4095 N.3     1  UNL1       -0.2697
      9 C          -0.4568  -17.7787   19.8202 C.3     1  UNL1        0.0723
     10 C          -1.2072  -19.0123   20.2263 C.3     1  UNL1        0.0209
     11 C          -2.3251  -18.9164   21.2218 C.3     1  UNL1        0.0429
     12 C          -2.1709  -17.6316   21.3466 C.3     1  UNL1        0.0209
     13 C          -1.7707  -16.9737   21.1300 C.3     1  UNL1        0.0723
     14 O          -3.1709  -16.3333   22.4819 O.2     1  UNL1       -0.4536
     15 C          -8.8371  -16.3474   23.1424 C.ar    1  UNL1        0.1535
     16 C          -7.3398  -16.2688   23.0963 C.ar    1  UNL1        0.0720
     17 C          -6.5741  -15.8306   24.3095 C.ar    1  UNL1        0.1402
     18 N          -7.3057  -15.4711   25.5687 N.ar    1  UNL1       -0.2087
     19 C          -8.8029  -15.5497   25.6147 C.ar    1  UNL1        0.2014
     20 N          -9.5685  -15.9879   24.4016 N.ar    1  UNL1       -0.2061
     21 C         -11.1830  -16.8274   20.0876 C.ar    1  UNL1        0.1197
     22 C         -10.7034  -16.0196   21.2570 C.ar    1  UNL1        0.1035
     23 N          -9.6027  -16.7856   21.9292 N.ar    1  UNL1       -0.2711
     24 C          -9.4021  -18.0667   21.1752 C.ar    1  UNL1        0.1840
     25 N         -10.3788  -18.0925   20.0371 N.ar    1  UNL1       -0.2220
@<TRIPOS>BOND
     1    21    22   ar
     2    22    23   ar
     3    23    15    1
     4    15    16   ar
     5    16    17   ar
     6    17     1    1
     7     1     3    1
     8     3     4    2
     9     4     5    1
    10     6     5    1
    11     6     7    1
    12     7     8    1
    13     8     9    1
    14     9    10    1
    15    10    11    1
    16    11    12    1
    17    12    13    1
    18     6    14    1
    19    17    18   ar
    20    18    19   ar
    21    19    20   ar
    22    23    24   ar
    23    24    25   ar
    24    25    21   ar
    25    20    15   ar
    26    14     3    1
    27    11     6    1
    28    13     8    1
    29     1     2    1
@<TRIPOS>MOLECULE
*****
 25 29 0 0 0
SMALL
GASTEIGER

@<TRIPOS>ATOM
      1 N          -7.3392  -18.9821   20.3947 N.pl3   1  UNL1       -0.2535
      2 H          -7.7817  -19.4799   19.6696 H       1  UNL1        0.1579
      3 C          -5.8552  -19.0924   20.5831 C.2     1  UNL1        0.2847
      4 N          -5.1582  -19.8853   21.6488 N.2     1  UNL1       -0.2204
      5 C          -3.6799  -19.7120   21.4632 C.3     1  UNL1        0.1712
      6 C          -3.4631  -18.8121   20.2829 C.3     1  UNL1        0.1729
      7 C          -3.4027  -17.9055   19.0894 C.3     1  UNL1        0.1147
      8 N          -2.0747  -17.4657   18.5481 N.3     1  UNL1       -0.2697
      9 C          -0.8071  -17.9325   19.2003 C.3     1  UNL1        0.0723
     10 C          -0.8676  -18.8390   20.3938 C.3     1  UNL1        0.0209
     11 C          -2.1956  -19.2788   20.9351 C.3     1  UNL1        0.0429
     12 C          -2.8434  -18.6068   20.0303 C.3     1  UNL1        0.0209
     13 C          -2.8112  -18.1233   19.3938 C.3     1  UNL1        0.0723
     14 O          -4.8075  -18.4291   19.7390 O.2     1  UNL1       -0.4536
     15 C          -8.3439  -16.7000   23.4822 C.ar    1  UNL1        0.1535
     16 C          -7.5340  -17.5687   22.5659 C.ar    1  UNL1        0.0720
     17 C          -8.1490  -18.1134   21.3109 C.ar    1  UNL1        0.1402
     18 N          -9.5739  -17.7893   20.9721 N.ar    1  UNL1       -0.2087
     19 C         -10.3837  -16.9206   21.8883 C.ar    1  UNL1        0.2014
     20 N          -9.7687  -16.3760   23.1433 N.ar    1  UNL1       -0.2061
     21 C          -7.4131  -15.4707   27.0442 C.ar    1  UNL1        0.1197
     22 C          -8.3879  -16.0836   26.0828 C.ar    1  UNL1        0.1035
     23 N          -7.7289  -16.1553   24.7372 N.ar    1  UNL1       -0.2711
     24 C          -6.3469  -15.5868   24.8670 C.ar    1  UNL1        0.1840
     25 N          -6.1518  -15.1638   26.2928 N.ar    1  UNL1       -0.2220
@<TRIPOS>BOND
     1    21    22   ar
     2    22    23   ar
     3    23    15    1
     4    15    16   ar
     5    16    17   ar
     6    17     1    1
     7     1     3    1
     8     3     4    2
     9     4     5    1
    10     6     5    1
    11     6     7    1
    12     7     8    1
    13     8     9    1
    14     9    10    1
    15    10    11    1
    16    11    12    1
    17    12    13    1
    18     6    14    1
    19    17    18   ar
    20    18    19   ar
    21    19    20   ar
    22    23    24   ar
    23    24    25   ar
    24    25    21   ar
    25    20    15   ar
    26    14     3    1
    27    11     6    1
    28    13     8    1
    29     1     2    1
@<TRIPOS>MOLECULE
*****
 25 29 0 0 0
SMALL
GASTEIGER

@<TRIPOS>ATOM
      1 N          -6.7195  -19.6024   22.1687 N.pl3   1  UNL1       -0.2535
      2 H          -7.0355  -20.5339   22.2105 H       1  UNL1        0.1579
      3 C          -5.2707  -19.3128   21.9094 C.2     1  UNL1        0.2847
      4 N          -4.1521  -19.4569   22.8983 N.2     1  UNL1       -0.2204
      5 C          -2.8763  -19.0614   22.2157 C.3     1  UNL1        0.1712
      6 C          -3.2064  -18.6729   20.8050 C.3     1  UNL1        0.1729
      7 C          -3.6861  -18.3168   19.4292 C.3     1  UNL1        0.1147
      8 N          -2.7081  -17.8541   18.3902 N.3     1  UNL1       -0.2697
      9 C          -1.2504  -17.7476   18.7271 C.3     1  UNL1        0.0723
     10 C          -0.7706  -18.1037   20.1029 C.3     1  UNL1        0.0209
     11 C          -1.7486  -18.5663   21.1419 C.3     1  UNL1        0.0429
     12 C          -2.7500  -18.4570   20.3202 C.3     1  UNL1        0.0209
     13 C          -3.0058  -18.2671   19.5864 C.3     1  UNL1        0.0723
     14 O          -4.6862  -18.8283   20.6157 O.2     1  UNL1       -0.4536
     15 C         -10.0430  -17.6218   23.0529 C.ar    1  UNL1        0.1535
     16 C          -9.0757  -18.7516   22.8574 C.ar    1  UNL1        0.0720
     17 C          -7.6868  -18.4728   22.3642 C.ar    1  UNL1        0.1402
     18 N          -7.2652  -17.0643   22.0666 N.ar    1  UNL1       -0.2087
     19 C          -8.2324  -15.9347   22.2622 C.ar    1  UNL1        0.2014
     20 N          -9.6214  -16.2135   22.7553 N.ar    1  UNL1       -0.2061
     21 C         -13.8503  -17.9099   23.7506 C.ar    1  UNL1        0.1197
     22 C         -12.7031  -17.3853   22.9390 C.ar    1  UNL1        0.1035
     23 N         -11.4319  -17.9006   23.5460 N.ar    1  UNL1       -0.2711
     24 C         -11.7935  -18.7438   24.7327 C.ar    1  UNL1        0.1840
     25 N         -13.2881  -18.7495   24.8591 N.ar    1  UNL1       -0.2220
@<TRIPOS>BOND
     1    21    22   ar
     2    22    23   ar
     3    23    15    1
     4    15    16   ar
     5    16    17   ar
     6    17     1    1
     7     1     3    1
     8     3     4    2
     9     4     5    1
    10     6     5    1
    11     6     7    1
    12     7     8    1
    13     8     9    1
    14     9    10    1
    15    10    11    1
    16    11    12    1
    17    12    13    1
    18     6    14    1
    19    17    18   ar
    20    18    19   ar
    21    19    20   ar
    22    23    24   ar
    23    24    25   ar
    24    25    21   ar
    25    20    15   ar
    26    14     3    1
    27    11     6    1
    28    13     8    1
    29     1     2    1
@<TRIPOS>MOLECULE
*****
 25 29 0 0 0
SMALL
GASTEIGER

@<TRIPOS>ATOM
      1 N          -6.9256  -19.7602   20.5421 N.pl3   1  UNL1       -0.2535
      2 H          -6.6981  -20.5858   20.0564 H       1  UNL1        0.1579
      3 C          -8.3483  -19.2877   20.5928 C.2     1  UNL1        0.2847
      4 N          -9.1947  -18.9106   19.4132 N.2     1  UNL1       -0.2204
      5 C         -10.5439  -18.4992   19.9235 C.3     1  UNL1        0.1712
      6 C         -10.5314  -18.6219   21.4184 C.3     1  UNL1        0.1729
      7 C         -10.3702  -18.7934   22.8998 C.3     1  UNL1        0.1147
      8 N         -11.5139  -18.4832   23.8195 N.3     1  UNL1       -0.2697
      9 C         -12.8187  -18.0016   23.2578 C.3     1  UNL1        0.0723
     10 C         -12.9799  -17.8302   21.7764 C.3     1  UNL1        0.0209
     11 C         -11.8362  -18.1403   20.8567 C.3     1  UNL1        0.0429
     12 C         -11.0651  -18.4772   21.8476 C.3     1  UNL1        0.0209
     13 C         -10.9791  -18.5686   22.6377 C.3     1  UNL1        0.0723
     14 O          -9.1744  -19.1092   21.8320 O.2     1  UNL1       -0.4536
     15 C          -3.3935  -18.1336   21.3351 C.ar    1  UNL1        0.1535
     16 C          -4.4697  -18.9190   20.6457 C.ar    1  UNL1        0.0720
     17 C          -5.8495  -18.9748   21.2314 C.ar    1  UNL1        0.1402
     18 N          -6.1532  -18.2453   22.5064 N.ar    1  UNL1       -0.2087
     19 C          -5.0771  -17.4599   23.1957 C.ar    1  UNL1        0.2014
     20 N          -3.6973  -17.4041   22.6100 N.ar    1  UNL1       -0.2061
     21 C           0.1361  -17.2543   19.9808 C.ar    1  UNL1        0.1197
     22 C          -1.1599  -16.8514   20.6197 C.ar    1  UNL1        0.1035
     23 N          -2.0137  -18.0778   20.7495 N.ar    1  UNL1       -0.2711
     24 C          -1.2455  -19.2386   20.1907 C.ar    1  UNL1        0.1840
     25 N           0.0831  -18.7297   19.7157 N.ar    1  UNL1       -0.2220
@<TRIPOS>BOND
     1    21    22   ar
     2    22    23   ar
     3    23    15    1
     4    15    16   ar
     5    16    17   ar
     6    17     1    1
     7     1     3    1
     8     3     4    2
     9     4     5    1
    10     6     5    1
    11     6     7    1
    12     7     8    1
    13     8     9    1
    14     9    10    1
    15    10    11    1
    16    11    12    1
    17    12    13    1
    18     6    14    1
    19    17    18   ar
    20    18    19   ar
    21    19    20   ar
    22    23    24   ar
    23    24    25   ar
    24    25    21   ar
    25    20    15   ar
    26    14     3    1
    27    11     6    1
    28    13     8    1
    29     1     2    1
@<TRIPOS>MOLECULE
*****
 25 29 0 0 0
SMALL
GASTEIGER

@<TRIPOS>ATOM
      1 N          -6.8992  -18.1958   22.9811 N.pl3   1  UNL1       -0.2535
      2 H          -6.4862  -17.8844   23.8188 H       1  UNL1        0.1579
      3 C          -8.3410  -17.8940   22.6982 C.2     1  UNL1        0.2847
      4 N          -8.8693  -17.1543   21.5050 N.2     1  UNL1       -0.2204
      5 C         -10.3625  -17.0821   21.6282 C.3     1  UNL1        0.1712
      6 C         -10.7571  -17.7772   22.8975 C.3     1  UNL1        0.1729
      7 C         -10.9987  -18.5000   24.1895 C.3     1  UNL1        0.1147
      8 N         -12.3971  -18.6644   24.7067 N.3     1  UNL1       -0.2697
      9 C         -13.5538  -18.1060   23.9320 C.3     1  UNL1        0.0723
     10 C         -13.3121  -17.3832   22.6401 C.3     1  UNL1        0.0209
     11 C         -11.9138  -17.2188   22.1229 C.3     1  UNL1        0.0429
     12 C         -11.4096  -17.8539   23.1389 C.3     1  UNL1        0.0209
     13 C         -11.5385  -18.2394   23.8279 C.3     1  UNL1        0.0723
     14 O          -9.5077  -18.2790   23.5588 O.2     1  UNL1       -0.4536
     15 C          -3.9350  -19.2340   20.5549 C.ar    1  UNL1        0.1535
     16 C          -4.7477  -18.4576   21.5485 C.ar    1  UNL1        0.0720
     17 C          -6.0865  -18.9721   21.9876 C.ar    1  UNL1        0.1402
     18 N          -6.6127  -20.2628   21.4333 N.ar    1  UNL1       -0.2087
     19 C          -5.8000  -21.0390   20.4398 C.ar    1  UNL1        0.2014
     20 N          -4.4612  -20.5246   20.0007 N.ar    1  UNL1       -0.2061
     21 C          -0.3061  -17.9165   20.1538 C.ar    1  UNL1        0.1197
     22 C          -1.4374  -18.3987   21.0127 C.ar    1  UNL1        0.1035
     23 N          -2.5962  -18.7195   20.1158 N.ar    1  UNL1       -0.2711
     24 C          -2.1810  -18.4355   18.7026 C.ar    1  UNL1        0.1840
     25 N          -0.7657  -17.9392   18.7262 N.ar    1  UNL1       -0.2220
@<TRIPOS>BOND
     1    21    22   ar
     2    22    23   ar
     3    23    15    1
     4    15    16   ar
     5    16    17   ar
     6    17     1    1
     7     1     3    1
     8     3     4    2
     9     4     5    1
    10     6     5    1
    11     6     7    1
    12     7     8    1
    13     8     9    1
    14     9    10    1
    15    10    11    1
    16    11    12    1
    17    12    13    1
    18     6    14    1
    19    17    18   ar
    20    18    19   ar
    21    19    20   ar
    22    23    24   ar
    23    24    25   ar
    24    25    21   ar
    25    20    15   ar
    26    14     3    1
    27    11     6    1
    28    13     8    1
    29     1     2    1
@<TRIPOS>MOLECULE
*****
 25 29 0 0 0
SMALL
GASTEIGER

@<TRIPOS>ATOM
      1 N          -6.4026  -20.5482   21.9761 N.pl3   1  UNL1       -0.2535
      2 H          -6.3106  -21.5108   21.7908 H       1  UNL1        0.1579
      3 C          -5.2001  -19.6539   21.9122 C.2     1  UNL1        0.2847
      4 N          -4.6906  -18.7812   23.0207 N.2     1  UNL1       -0.2204
      5 C          -3.4716  -18.0631   22.5222 C.3     1  UNL1        0.1712
      6 C          -3.2278  -18.4920   21.1057 C.3     1  UNL1        0.1729
      7 C          -3.1110  -19.0121   19.7036 C.3     1  UNL1        0.1147
      8 N          -1.9948  -18.5406   18.8193 N.3     1  UNL1       -0.2697
      9 C          -0.9955  -17.5491   19.3371 C.3     1  UNL1        0.0723
     10 C          -1.1122  -17.0291   20.7392 C.3     1  UNL1        0.0209
     11 C          -2.2284  -17.5005   21.6235 C.3     1  UNL1        0.0429
     12 C          -2.7069  -18.2720   20.6930 C.3     1  UNL1        0.0209
     13 C          -2.6446  -18.5494   19.9452 C.3     1  UNL1        0.0723
     14 O          -4.2961  -19.4752   20.7287 O.2     1  UNL1       -0.4536
     15 C          -9.6755  -18.3084   21.8286 C.ar    1  UNL1        0.1535
     16 C          -8.3327  -18.8806   21.4825 C.ar    1  UNL1        0.0720
     17 C          -7.7453  -19.9761   22.3221 C.ar    1  UNL1        0.1402
     18 N          -8.5006  -20.4994   23.5078 N.ar    1  UNL1       -0.2087
     19 C          -9.8433  -19.9272   23.8538 C.ar    1  UNL1        0.2014
     20 N         -10.4307  -18.8317   23.0142 N.ar    1  UNL1       -0.2061
     21 C         -11.6135  -16.0259   19.3589 C.ar    1  UNL1        0.1197
     22 C         -11.3310  -17.3759   19.9484 C.ar    1  UNL1        0.1035
     23 N         -10.2630  -17.2130   20.9890 N.ar    1  UNL1       -0.2711
     24 C          -9.8855  -15.7623   21.0426 C.ar    1  UNL1        0.1840
     25 N         -10.7202  -15.0286   20.0352 N.ar    1  UNL1       -0.2220
@<TRIPOS>BOND
     1    21    22   ar
     2    22    23   ar
     3    23    15    1
     4    15    16   ar
     5    16    17   ar
     6    17     1    1
     7     1     3    1
     8     3     4    2
     9     4     5    1
    10     6     5    1
    11     6     7    1
    12     7     8    1
    13     8     9    1
    14     9    10    1
    15    10    11    1
    16    11    12    1
    17    12    13    1
    18     6    14    1
    19    17    18   ar
    20    18    19   ar
    21    19    20   ar
    22    23    24   ar
    23    24    25   ar
    24    25    21   ar
    25    20    15   ar
    26    14     3    1
    27    11     6    1
    28    13     8    1
    29     1     2    1
@<TRIPOS>MOLECULE
*****
 25 29 0 0 0
SMALL
GASTEIGER

@<TRIPOS>ATOM
      1 N          -4.7926  -15.6156   24.1238 N.pl3   1  UNL1       -0.2535
      2 H          -4.2227  -14.8238   24.2564 H       1  UNL1        0.1579
      3 C          -4.3749  -16.6877   23.1615 C.2     1  UNL1        0.2847
      4 N          -3.0193  -16.8313   22.5356 N.2     1  UNL1       -0.2204
      5 C          -3.0461  -18.0368   21.6434 C.3     1  UNL1        0.1712
      6 C          -4.4182  -18.6383   21.7178 C.3     1  UNL1        0.1729
      7 C          -5.8264  -19.1243   21.8924 C.3     1  UNL1        0.1147
      8 N          -6.2950  -20.3452   21.1576 N.3     1  UNL1       -0.2697
      9 C          -5.3554  -21.0800   20.2482 C.3     1  UNL1        0.0723
     10 C          -3.9471  -20.5940   20.0736 C.3     1  UNL1        0.0209
     11 C          -3.4785  -19.3731   20.8084 C.3     1  UNL1        0.0429
     12 C          -4.6369  -19.2080   21.3749 C.3     1  UNL1        0.0209
     13 C          -5.3879  -19.4672   21.4680 C.3     1  UNL1        0.0723
     14 O          -5.2394  -17.8044   22.6560 O.2     1  UNL1       -0.4536
     15 C          -8.5820  -16.4404   24.9670 C.ar    1  UNL1        0.1535
     16 C          -7.2958  -16.3061   24.2066 C.ar    1  UNL1        0.0720
     17 C          -6.0786  -15.7498   24.8841 C.ar    1  UNL1        0.1402
     18 N          -6.1475  -15.3278   26.3218 N.ar    1  UNL1       -0.2087
     19 C          -7.4336  -15.4620   27.0821 C.ar    1  UNL1        0.2014
     20 N          -8.6507  -16.0183   26.4046 N.ar    1  UNL1       -0.2061
     21 C         -11.6585  -18.4441   23.7079 C.ar    1  UNL1        0.1197
     22 C         -10.4925  -18.2806   24.6372 C.ar    1  UNL1        0.1035
     23 N          -9.7991  -16.9967   24.2895 N.ar    1  UNL1       -0.2711
     24 C         -10.5367  -16.3668   23.1453 C.ar    1  UNL1        0.1840
     25 N         -11.6858  -17.2613   22.7859 N.ar    1  UNL1       -0.2220
@<TRIPOS>BOND
     1    21    22   ar
     2    22    23   ar
     3    23    15    1
     4    15    16   ar
     5    16    17   ar
     6    17     1    1
     7     1     3    1
     8     3     4    2
     9     4     5    1
    10     6     5    1
    11     6     7    1
    12     7     8    1
    13     8     9    1
    14     9    10    1
    15    10    11    1
    16    11    12    1
    17    12    13    1
    18     6    14    1
    19    17    18   ar
    20    18    19   ar
    21    19    20   ar
    22    23    24   ar
    23    24    25   ar
    24    25    21   ar
    25    20    15   ar
    26    14     3    1
    27    11     6    1
    28    13     8    1
    29     1     2    1
@<TRIPOS>MOLECULE
*****
 25 29 0 0 0
SMALL
GASTEIGER

@<TRIPOS>ATOM
      1 N          -6.8397  -20.1326   20.4730 N.pl3   1  UNL1       -0.2535
      2 H          -6.6641  -20.9443   19.9442 H       1  UNL1        0.1579
      3 C          -8.2172  -19.5396   20.5017 C.2     1  UNL1        0.2847
      4 N          -8.9720  -19.0055   19.3206 N.2     1  UNL1       -0.2204
      5 C         -10.3030  -18.5124   19.8055 C.3     1  UNL1        0.1712
      6 C         -10.3709  -18.7417   21.2863 C.3     1  UNL1        0.1729
      7 C         -10.2945  -19.0317   22.7559 C.3     1  UNL1        0.1147
      8 N         -11.4488  -18.6868   23.6496 N.3     1  UNL1       -0.2697
      9 C         -12.6796  -18.0517   23.0735 C.3     1  UNL1        0.0723
     10 C         -12.7560  -17.7617   21.6038 C.3     1  UNL1        0.0209
     11 C         -11.6017  -18.1067   20.7102 C.3     1  UNL1        0.0429
     12 C         -10.9096  -18.5807   21.7033 C.3     1  UNL1        0.0209
     13 C         -10.8688  -18.7354   22.4871 C.3     1  UNL1        0.0723
     14 O          -9.0818  -19.3765   21.7166 O.2     1  UNL1       -0.4536
     15 C          -4.9254  -17.7464   23.0013 C.ar    1  UNL1        0.1535
     16 C          -6.0355  -18.3901   22.2242 C.ar    1  UNL1        0.0720
     17 C          -5.7298  -19.4890   21.2500 C.ar    1  UNL1        0.1402
     18 N          -4.3142  -19.9442   21.0529 N.ar    1  UNL1       -0.2087
     19 C          -3.2043  -19.3005   21.8299 C.ar    1  UNL1        0.2014
     20 N          -3.5100  -18.2017   22.8041 N.ar    1  UNL1       -0.2061
     21 C          -5.3212  -15.3228   26.0071 C.ar    1  UNL1        0.1197
     22 C          -4.7953  -16.5943   25.4098 C.ar    1  UNL1        0.1035
     23 N          -5.2311  -16.6475   23.9755 N.ar    1  UNL1       -0.2711
     24 C          -6.0264  -15.4090   23.6864 C.ar    1  UNL1        0.1840
     25 N          -6.0820  -14.5903   24.9420 N.ar    1  UNL1       -0.2220
@<TRIPOS>BOND
     1    21    22   ar
     2    22    23   ar
     3    23    15    1
     4    15    16   ar
     5    16    17   ar
     6    17     1    1
     7     1     3    1
     8     3     4    2
     9     4     5    1
    10     6     5    1
    11     6     7    1
    12     7     8    1
    13     8     9    1
    14     9    10    1
    15    10    11    1
    16    11    12    1
    17    12    13    1
    18     6    14    1
    19    17    18   ar
    20    18    19   ar
    21    19    20   ar
    22    23    24   ar
    23    24    25   ar
    24    25    21   ar
    25    20    15   ar
    26    14     3    1
    27    11     6    1
    28    13     8    1
    29     1     2    1
