@<TRIPOS>MOLECULE
*****
 25 28 0 0 0
SMALL
GASTEIGER

@<TRIPOS>ATOM
      1 C          -9.7698  -18.8296   20.1579 C.ar    1  UNL1        0.1386
      2 C          -9.0912  -19.6587   19.1081 C.ar    1  UNL1        0.0384
      3 C          -7.6238  -19.9504   19.2154 C.ar    1  UNL1        0.0203
      4 C          -6.8349  -19.4129   20.3725 C.ar    1  UNL1        0.0602
      5 C          -7.5135  -18.5837   21.4222 C.ar    1  UNL1        0.0204
      6 C          -8.9809  -18.2921   21.3149 C.ar    1  UNL1        0.0384
      7 C          -6.4842  -18.1925   22.4408 C.ar    1  UNL1        0.0233
      8 C          -5.1695  -18.7799   22.0206 C.ar    1  UNL1        0.1140
      9 N          -5.3862  -19.5342   20.7423 N.ar    1  UNL1       -0.3219
     10 C          -4.2365  -20.2339   20.0802 C.3     1  UNL1        0.1273
     11 C          -2.8700  -20.1795   20.6964 C.3     1  UNL1        0.1142
     12 N          -2.6533  -19.4252   21.9747 N.am    1  UNL1       -0.2978
     13 C          -3.8031  -18.7254   22.6368 C.2     1  UNL1        0.2618
     14 O          -3.5863  -17.9712   23.9152 O.2     1  UNL1       -0.2686
     15 H          -1.7565  -19.3895   22.3792 H       1  UNL1        0.1499
     16 O         -11.2373  -18.5379   20.0506 O.3     1  UNL1       -0.4754
     17 C         -11.7248  -17.1199   20.0890 C.3     1  UNL1        0.2068
     18 C         -12.5267  -16.6339   21.2599 C.3     1  UNL1        0.0646
     19 C         -11.8354  -16.2471   22.5336 C.3     1  UNL1        0.0759
     20 C          -9.1488  -15.9773   24.3664 C.3     1  UNL1        0.0173
     21 C         -10.0364  -17.1831   24.2750 C.3     1  UNL1        0.0576
     22 C          -9.8449  -18.4765   25.0100 C.3     1  UNL1        0.0174
     23 C         -10.9614  -19.4000   24.6218 C.3     1  UNL1        0.0187
     24 C         -11.8430  -18.6772   23.6469 C.3     1  UNL1        0.0721
     25 N         -11.2713  -17.3071   23.4325 N.3     1  UNL1       -0.2738
@<TRIPOS>BOND
     1    21    20    1
     2    21    22    1
     3    22    23    1
     4    23    24    1
     5    24    25    1
     6    25    19    1
     7    19    18    1
     8    18    17    1
     9    17    16    1
    10    16     1    1
    11     1     2   ar
    12     2     3   ar
    13     3     4   ar
    14     4     5   ar
    15     5     6   ar
    16     5     7   ar
    17     7     8   ar
    18     8     9   ar
    19     9    10    1
    20    10    11    1
    21    11    12    1
    22    12    13   am
    23    13    14    2
    24    25    21    1
    25     6     1   ar
    26    13     8    1
    27     9     4   ar
    28    12    15    1
@<TRIPOS>MOLECULE
*****
 25 28 0 0 0
SMALL
GASTEIGER

@<TRIPOS>ATOM
      1 C          -8.4009  -19.6518   20.3208 C.ar    1  UNL1        0.1386
      2 C          -8.2765  -19.4089   21.7957 C.ar    1  UNL1        0.0384
      3 C          -6.9420  -19.0679   22.3897 C.ar    1  UNL1        0.0203
      4 C          -5.7320  -18.9698   21.5087 C.ar    1  UNL1        0.0602
      5 C          -5.8564  -19.2127   20.0337 C.ar    1  UNL1        0.0204
      6 C          -7.1909  -19.5537   19.4398 C.ar    1  UNL1        0.0384
      7 C          -4.4977  -19.0466   19.4204 C.ar    1  UNL1        0.0233
      8 C          -3.5334  -18.7010   20.5163 C.ar    1  UNL1        0.1140
      9 N          -4.2963  -18.6536   21.8069 N.ar    1  UNL1       -0.3219
     10 C          -3.5851  -18.3286   23.0869 C.3     1  UNL1        0.1273
     11 C          -2.1110  -18.0510   23.0763 C.3     1  UNL1        0.1142
     12 N          -1.3482  -18.0985   21.7856 N.am    1  UNL1       -0.2978
     13 C          -2.0594  -18.4235   20.5056 C.2     1  UNL1        0.2618
     14 O          -1.2966  -18.4710   19.2149 O.2     1  UNL1       -0.2686
     15 H          -0.3807  -17.9163   21.7787 H       1  UNL1        0.1499
     16 O          -9.7355  -19.9928   19.7268 O.3     1  UNL1       -0.4754
     17 C         -10.9597  -19.2356   20.1485 C.3     1  UNL1        0.2068
     18 C         -11.1101  -17.7888   19.7818 C.3     1  UNL1        0.0646
     19 C         -11.4060  -16.7726   20.8446 C.3     1  UNL1        0.0759
     20 C         -12.0340  -18.1823   23.7200 C.3     1  UNL1        0.0173
     21 C         -10.8335  -17.3449   23.3921 C.3     1  UNL1        0.0576
     22 C          -9.7109  -17.0084   24.3283 C.3     1  UNL1        0.0174
     23 C          -8.7283  -16.1525   23.5852 C.3     1  UNL1        0.0187
     24 C          -9.2438  -15.9600   22.1898 C.3     1  UNL1        0.0721
     25 N         -10.5448  -16.6969   22.0704 N.3     1  UNL1       -0.2738
@<TRIPOS>BOND
     1    21    20    1
     2    21    22    1
     3    22    23    1
     4    23    24    1
     5    24    25    1
     6    25    19    1
     7    19    18    1
     8    18    17    1
     9    17    16    1
    10    16     1    1
    11     1     2   ar
    12     2     3   ar
    13     3     4   ar
    14     4     5   ar
    15     5     6   ar
    16     5     7   ar
    17     7     8   ar
    18     8     9   ar
    19     9    10    1
    20    10    11    1
    21    11    12    1
    22    12    13   am
    23    13    14    2
    24    25    21    1
    25     6     1   ar
    26    13     8    1
    27     9     4   ar
    28    12    15    1
@<TRIPOS>MOLECULE
*****
 25 28 0 0 0
SMALL
GASTEIGER

@<TRIPOS>ATOM
      1 C          -8.7403  -17.2216   23.5371 C.ar    1  UNL1        0.1386
      2 C          -7.7340  -16.2562   24.0896 C.ar    1  UNL1        0.0384
      3 C          -6.2774  -16.4300   23.7763 C.ar    1  UNL1        0.0203
      4 C          -5.8272  -17.5692   22.9106 C.ar    1  UNL1        0.0602
      5 C          -6.8336  -18.5346   22.3581 C.ar    1  UNL1        0.0204
      6 C          -8.2901  -18.3608   22.6713 C.ar    1  UNL1        0.0384
      7 C          -6.0975  -19.5538   21.5399 C.ar    1  UNL1        0.0233
      8 C          -4.6362  -19.2184   21.5868 C.ar    1  UNL1        0.1140
      9 N          -4.4692  -17.9918   22.4339 N.ar    1  UNL1       -0.3219
     10 C          -3.1021  -17.4183   22.6618 C.3     1  UNL1        0.1273
     11 C          -1.9020  -18.0712   22.0425 C.3     1  UNL1        0.1142
     12 N          -2.0691  -19.2978   21.1954 N.am    1  UNL1       -0.2978
     13 C          -3.4363  -19.8714   20.9676 C.2     1  UNL1        0.2618
     14 O          -3.6033  -21.0980   20.1204 O.2     1  UNL1       -0.2686
     15 H          -1.2815  -19.7264   20.7890 H       1  UNL1        0.1499
     16 O         -10.1970  -17.0478   23.8504 O.3     1  UNL1       -0.4754
     17 C         -11.0278  -18.2352   24.2372 C.3     1  UNL1        0.2068
     18 C         -12.5224  -18.1733   24.1255 C.3     1  UNL1        0.0646
     19 C         -13.1730  -18.1426   22.7743 C.3     1  UNL1        0.0759
     20 C         -11.1162  -19.9668   21.0161 C.3     1  UNL1        0.0173
     21 C         -11.4479  -18.5250   20.7687 C.3     1  UNL1        0.0576
     22 C         -10.8925  -17.6686   19.6695 C.3     1  UNL1        0.0174
     23 C         -11.4946  -16.3008   19.7984 C.3     1  UNL1        0.0187
     24 C         -12.4222  -16.3119   20.9771 C.3     1  UNL1        0.0721
     25 N         -12.3933  -17.6865   21.5768 N.3     1  UNL1       -0.2738
@<TRIPOS>BOND
     1    21    20    1
     2    21    22    1
     3    22    23    1
     4    23    24    1
     5    24    25    1
     6    25    19    1
     7    19    18    1
     8    18    17    1
     9    17    16    1
    10    16     1    1
    11     1     2   ar
    12     2     3   ar
    13     3     4   ar
    14     4     5   ar
    15     5     6   ar
    16     5     7   ar
    17     7     8   ar
    18     8     9   ar
    19     9    10    1
    20    10    11    1
    21    11    12    1
    22    12    13   am
    23    13    14    2
    24    25    21    1
    25     6     1   ar
    26    13     8    1
    27     9     4   ar
    28    12    15    1
@<TRIPOS>MOLECULE
*****
 25 28 0 0 0
SMALL
GASTEIGER

@<TRIPOS>ATOM
      1 C          -7.0513  -15.4727   24.4483 C.ar    1  UNL1        0.1386
      2 C          -7.8564  -16.1712   25.5036 C.ar    1  UNL1        0.0384
      3 C          -9.2007  -16.7440   25.1649 C.ar    1  UNL1        0.0203
      4 C          -9.7399  -16.6182   23.7708 C.ar    1  UNL1        0.0602
      5 C          -8.9348  -15.9196   22.7154 C.ar    1  UNL1        0.0204
      6 C          -7.5905  -15.3469   23.0542 C.ar    1  UNL1        0.0384
      7 C          -9.7202  -15.9492   21.4379 C.ar    1  UNL1        0.0233
      8 C         -11.0108  -16.6661   21.7036 C.ar    1  UNL1        0.1140
      9 N         -11.0230  -17.0795   23.1454 N.ar    1  UNL1       -0.3219
     10 C         -12.2007  -17.8226   23.7026 C.3     1  UNL1        0.1273
     11 C         -13.3664  -18.1523   22.8180 C.3     1  UNL1        0.1142
     12 N         -13.3542  -17.7388   21.3761 N.am    1  UNL1       -0.2978
     13 C         -12.1763  -16.9957   20.8189 C.2     1  UNL1        0.2618
     14 O         -12.1641  -16.5822   19.3770 O.2     1  UNL1       -0.2686
     15 H         -14.1192  -17.9552   20.7955 H       1  UNL1        0.1499
     16 O          -5.7069  -14.8999   24.7870 O.3     1  UNL1       -0.4754
     17 C          -4.4736  -15.4392   24.1253 C.3     1  UNL1        0.2068
     18 C          -4.4377  -16.8621   23.6517 C.3     1  UNL1        0.0646
     19 C          -3.3655  -17.3100   22.7032 C.3     1  UNL1        0.0759
     20 C          -1.8624  -17.5810   19.8194 C.3     1  UNL1        0.0173
     21 C          -2.9899  -18.4400   20.3101 C.3     1  UNL1        0.0576
     22 C          -3.6245  -19.5743   19.5614 C.3     1  UNL1        0.0174
     23 C          -4.7077  -20.1509   20.4242 C.3     1  UNL1        0.0187
     24 C          -4.7425  -19.3728   21.7062 C.3     1  UNL1        0.0721
     25 N          -3.6808  -18.3154   21.6356 N.3     1  UNL1       -0.2738
@<TRIPOS>BOND
     1    21    20    1
     2    21    22    1
     3    22    23    1
     4    23    24    1
     5    24    25    1
     6    25    19    1
     7    19    18    1
     8    18    17    1
     9    17    16    1
    10    16     1    1
    11     1     2   ar
    12     2     3   ar
    13     3     4   ar
    14     4     5   ar
    15     5     6   ar
    16     5     7   ar
    17     7     8   ar
    18     8     9   ar
    19     9    10    1
    20    10    11    1
    21    11    12    1
    22    12    13   am
    23    13    14    2
    24    25    21    1
    25     6     1   ar
    26    13     8    1
    27     9     4   ar
    28    12    15    1
@<TRIPOS>MOLECULE
*****
 25 28 0 0 0
SMALL
GASTEIGER

@<TRIPOS>ATOM
      1 C         -14.0173   -4.3825   19.6984 C.ar    1  UNL1        0.1386
      2 C         -15.4614   -4.0277   19.8950 C.ar    1  UNL1        0.0384
      3 C         -16.5200   -5.0787   19.7376 C.ar    1  UNL1        0.0203
      4 C         -16.1345   -6.4844   19.3836 C.ar    1  UNL1        0.0602
      5 C         -14.6904   -6.8392   19.1870 C.ar    1  UNL1        0.0204
      6 C         -13.6318   -5.7882   19.3444 C.ar    1  UNL1        0.0384
      7 C         -14.6138   -8.2977   18.8454 C.ar    1  UNL1        0.0233
      8 C         -16.0106   -8.8444   18.8309 C.ar    1  UNL1        0.1140
      9 N         -16.9505   -7.7238   19.1635 N.ar    1  UNL1       -0.3219
     10 C         -18.4277   -7.9765   19.2230 C.3     1  UNL1        0.1273
     11 C         -18.9652   -9.3500   18.9499 C.3     1  UNL1        0.1142
     12 N         -18.0253  -10.4707   18.6173 N.am    1  UNL1       -0.2978
     13 C         -16.5480  -10.2179   18.5578 C.2     1  UNL1        0.2618
     14 O         -15.6081  -11.3387   18.2251 O.2     1  UNL1       -0.2686
     15 H         -18.3781  -11.3722   18.4380 H       1  UNL1        0.1499
     16 O         -12.9586   -3.3315   19.8558 O.3     1  UNL1       -0.4754
     17 C         -12.0665   -2.9867   18.7004 C.3     1  UNL1        0.2068
     18 C         -10.6092   -3.3394   18.7467 C.3     1  UNL1        0.0646
     19 C         -10.0028   -4.1674   17.6528 C.3     1  UNL1        0.0759
     20 C          -9.6070   -7.1221   18.9804 C.3     1  UNL1        0.0173
     21 C         -10.4947   -6.7895   17.8180 C.3     1  UNL1        0.0576
     22 C         -11.3563   -7.7567   17.0616 C.3     1  UNL1        0.0174
     23 C         -12.0708   -6.9964   15.9839 C.3     1  UNL1        0.0187
     24 C         -11.6507   -5.5593   16.0742 C.3     1  UNL1        0.0721
     25 N         -10.6766   -5.4314   17.2077 N.3     1  UNL1       -0.2738
@<TRIPOS>BOND
     1    21    20    1
     2    21    22    1
     3    22    23    1
     4    23    24    1
     5    24    25    1
     6    25    19    1
     7    19    18    1
     8    18    17    1
     9    17    16    1
    10    16     1    1
    11     1     2   ar
    12     2     3   ar
    13     3     4   ar
    14     4     5   ar
    15     5     6   ar
    16     5     7   ar
    17     7     8   ar
    18     8     9   ar
    19     9    10    1
    20    10    11    1
    21    11    12    1
    22    12    13   am
    23    13    14    2
    24    25    21    1
    25     6     1   ar
    26    13     8    1
    27     9     4   ar
    28    12    15    1
@<TRIPOS>MOLECULE
*****
 25 28 0 0 0
SMALL
GASTEIGER

@<TRIPOS>ATOM
      1 C          -5.9371  -16.5746   23.7709 C.ar    1  UNL1        0.1386
      2 C          -6.8570  -15.5767   24.4096 C.ar    1  UNL1        0.0384
      3 C          -8.3060  -15.5385   24.0240 C.ar    1  UNL1        0.0203
      4 C          -8.8352  -16.4982   22.9998 C.ar    1  UNL1        0.0602
      5 C          -7.9153  -17.4961   22.3612 C.ar    1  UNL1        0.0204
      6 C          -6.4662  -17.5343   22.7467 C.ar    1  UNL1        0.0384
      7 C          -8.7172  -18.3104   21.3897 C.ar    1  UNL1        0.0233
      8 C         -10.1329  -17.8158   21.4280 C.ar    1  UNL1        0.1140
      9 N         -10.2058  -16.6958   22.4231 N.ar    1  UNL1       -0.3219
     10 C         -11.5107  -16.0006   22.6755 C.3     1  UNL1        0.1273
     11 C         -12.7427  -16.4254   21.9328 C.3     1  UNL1        0.1142
     12 N         -12.6698  -17.5454   20.9377 N.am    1  UNL1       -0.2978
     13 C         -11.3648  -18.2406   20.6853 C.2     1  UNL1        0.2618
     14 O         -11.2919  -19.3607   19.6902 O.2     1  UNL1       -0.2686
     15 H         -13.4784  -17.8242   20.4503 H       1  UNL1        0.1499
     16 O          -4.4879  -16.6128   24.1565 O.3     1  UNL1       -0.4754
     17 C          -3.6703  -17.8396   23.8799 C.3     1  UNL1        0.2068
     18 C          -2.2883  -17.7076   23.3117 C.3     1  UNL1        0.0646
     19 C          -1.8332  -18.6342   22.2235 C.3     1  UNL1        0.0759
     20 C          -4.4283  -19.8269   20.6450 C.3     1  UNL1        0.0173
     21 C          -3.3956  -18.9026   20.0714 C.3     1  UNL1        0.0576
     22 C          -3.3744  -18.3642   18.6715 C.3     1  UNL1        0.0174
     23 C          -2.1684  -17.4832   18.5319 C.3     1  UNL1        0.0187
     24 C          -1.4443  -17.4771   19.8455 C.3     1  UNL1        0.0721
     25 N          -2.2027  -18.3543   20.7970 N.3     1  UNL1       -0.2738
@<TRIPOS>BOND
     1    21    20    1
     2    21    22    1
     3    22    23    1
     4    23    24    1
     5    24    25    1
     6    25    19    1
     7    19    18    1
     8    18    17    1
     9    17    16    1
    10    16     1    1
    11     1     2   ar
    12     2     3   ar
    13     3     4   ar
    14     4     5   ar
    15     5     6   ar
    16     5     7   ar
    17     7     8   ar
    18     8     9   ar
    19     9    10    1
    20    10    11    1
    21    11    12    1
    22    12    13   am
    23    13    14    2
    24    25    21    1
    25     6     1   ar
    26    13     8    1
    27     9     4   ar
    28    12    15    1
@<TRIPOS>MOLECULE
*****
 25 28 0 0 0
SMALL
GASTEIGER

@<TRIPOS>ATOM
      1 C         -13.3635   -5.9601   16.5479 C.ar    1  UNL1        0.1386
      2 C         -14.6359   -5.1703   16.6323 C.ar    1  UNL1        0.0384
      3 C         -15.8959   -5.8273   17.1126 C.ar    1  UNL1        0.0203
      4 C         -15.8835   -7.2741   17.5084 C.ar    1  UNL1        0.0602
      5 C         -14.6110   -8.0638   17.4240 C.ar    1  UNL1        0.0204
      6 C         -13.3510   -7.4068   16.9438 C.ar    1  UNL1        0.0384
      7 C         -14.9029   -9.4630   17.8790 C.ar    1  UNL1        0.0233
      8 C         -16.3557   -9.5381   18.2446 C.ar    1  UNL1        0.1140
      9 N         -16.9618   -8.1852   18.0156 N.ar    1  UNL1       -0.3219
     10 C         -18.4171   -7.9578   18.2985 C.3     1  UNL1        0.1273
     11 C         -19.2665   -9.0832   18.8103 C.3     1  UNL1        0.1142
     12 N         -18.6605  -10.4360   19.0394 N.am    1  UNL1       -0.2978
     13 C         -17.2050  -10.6635   18.7565 C.2     1  UNL1        0.2618
     14 O         -16.5990  -12.0164   18.9855 O.2     1  UNL1       -0.2686
     15 H         -19.2179  -11.1746   19.3753 H       1  UNL1        0.1499
     16 O         -12.1034   -5.3030   16.0676 O.3     1  UNL1       -0.4754
     17 C         -10.7732   -5.7620   16.5872 C.3     1  UNL1        0.2068
     18 C         -10.5328   -5.8427   18.0656 C.3     1  UNL1        0.0646
     19 C         -10.7241   -4.6276   18.9240 C.3     1  UNL1        0.0759
     20 C         -12.0327   -1.6383   18.9521 C.3     1  UNL1        0.0173
     21 C         -12.6943   -2.8950   19.4347 C.3     1  UNL1        0.0576
     22 C         -14.0737   -2.9982   20.0150 C.3     1  UNL1        0.0174
     23 C         -14.3247   -4.4361   20.3608 C.3     1  UNL1        0.0187
     24 C         -13.1005   -5.2215   19.9942 C.3     1  UNL1        0.0721
     25 N         -12.0929   -4.2690   19.4218 N.3     1  UNL1       -0.2738
@<TRIPOS>BOND
     1    21    20    1
     2    21    22    1
     3    22    23    1
     4    23    24    1
     5    24    25    1
     6    25    19    1
     7    19    18    1
     8    18    17    1
     9    17    16    1
    10    16     1    1
    11     1     2   ar
    12     2     3   ar
    13     3     4   ar
    14     4     5   ar
    15     5     6   ar
    16     5     7   ar
    17     7     8   ar
    18     8     9   ar
    19     9    10    1
    20    10    11    1
    21    11    12    1
    22    12    13   am
    23    13    14    2
    24    25    21    1
    25     6     1   ar
    26    13     8    1
    27     9     4   ar
    28    12    15    1
@<TRIPOS>MOLECULE
*****
 25 28 0 0 0
SMALL
GASTEIGER

@<TRIPOS>ATOM
      1 C          -7.1610  -19.4896   21.3359 C.ar    1  UNL1        0.1386
      2 C          -6.3170  -19.4455   22.5751 C.ar    1  UNL1        0.0384
      3 C          -4.8567  -19.1172   22.4767 C.ar    1  UNL1        0.0203
      4 C          -4.2404  -18.8329   21.1390 C.ar    1  UNL1        0.0602
      5 C          -5.0844  -18.8771   19.8998 C.ar    1  UNL1        0.0204
      6 C          -6.5447  -19.2054   19.9982 C.ar    1  UNL1        0.0384
      7 C          -4.2050  -18.5543   18.7283 C.ar    1  UNL1        0.0233
      8 C          -2.8174  -18.3108   19.2435 C.ar    1  UNL1        0.1140
      9 N          -2.8393  -18.4830   20.7334 N.ar    1  UNL1       -0.3219
     10 C          -1.5807  -18.2988   21.5282 C.3     1  UNL1        0.1273
     11 C          -0.3001  -17.9425   20.8331 C.3     1  UNL1        0.1142
     12 N          -0.2782  -17.7703   19.3432 N.am    1  UNL1       -0.2978
     13 C          -1.5369  -17.9545   18.5484 C.2     1  UNL1        0.2618
     14 O          -1.5150  -17.7822   17.0584 O.2     1  UNL1       -0.2686
     15 H           0.5623  -17.5364   18.8870 H       1  UNL1        0.1499
     16 O          -8.6213  -19.8179   21.4343 O.3     1  UNL1       -0.4754
     17 C          -9.6205  -19.0422   20.6282 C.3     1  UNL1        0.2068
     18 C          -9.8748  -17.5968   20.9386 C.3     1  UNL1        0.0646
     19 C         -10.1009  -17.1628   22.3565 C.3     1  UNL1        0.0759
     20 C         -10.1539  -19.2198   24.8893 C.3     1  UNL1        0.0173
     21 C         -11.3479  -18.5661   24.2592 C.3     1  UNL1        0.0576
     22 C         -12.7760  -18.7432   24.6827 C.3     1  UNL1        0.0174
     23 C         -13.6342  -17.9071   23.7802 C.3     1  UNL1        0.0187
     24 C         -12.7366  -17.2134   22.7990 C.3     1  UNL1        0.0721
     25 N         -11.3236  -17.6206   23.0950 N.3     1  UNL1       -0.2738
@<TRIPOS>BOND
     1    21    20    1
     2    21    22    1
     3    22    23    1
     4    23    24    1
     5    24    25    1
     6    25    19    1
     7    19    18    1
     8    18    17    1
     9    17    16    1
    10    16     1    1
    11     1     2   ar
    12     2     3   ar
    13     3     4   ar
    14     4     5   ar
    15     5     6   ar
    16     5     7   ar
    17     7     8   ar
    18     8     9   ar
    19     9    10    1
    20    10    11    1
    21    11    12    1
    22    12    13   am
    23    13    14    2
    24    25    21    1
    25     6     1   ar
    26    13     8    1
    27     9     4   ar
    28    12    15    1
@<TRIPOS>MOLECULE
*****
 25 28 0 0 0
SMALL
GASTEIGER

@<TRIPOS>ATOM
      1 C         -14.7897   -3.6181   17.9371 C.ar    1  UNL1        0.1386
      2 C         -16.0807   -3.3987   18.6684 C.ar    1  UNL1        0.0384
      3 C         -16.9037   -4.5738   19.1063 C.ar    1  UNL1        0.0203
      4 C         -16.4356   -5.9683   18.8128 C.ar    1  UNL1        0.0602
      5 C         -15.1445   -6.1878   18.0814 C.ar    1  UNL1        0.0204
      6 C         -14.3216   -5.0127   17.6436 C.ar    1  UNL1        0.0384
      7 C         -14.9405   -7.6666   17.9347 C.ar    1  UNL1        0.0233
      8 C         -16.1055   -8.3611   18.5755 C.ar    1  UNL1        0.1140
      9 N         -17.0295   -7.3115   19.1182 N.ar    1  UNL1       -0.3219
     10 C         -18.2923   -7.7145   19.8202 C.3     1  UNL1        0.1273
     11 C         -18.6310   -9.1670   19.9796 C.3     1  UNL1        0.1142
     12 N         -17.7070  -10.2165   19.4369 N.am    1  UNL1       -0.2978
     13 C         -16.4442   -9.8136   18.7348 C.2     1  UNL1        0.2618
     14 O         -15.5201  -10.8632   18.1921 O.2     1  UNL1       -0.2686
     15 H         -17.9293  -11.1699   19.5415 H       1  UNL1        0.1499
     16 O         -13.9666   -2.4430   17.4991 O.3     1  UNL1       -0.4754
     17 C         -13.4188   -1.4892   18.5190 C.3     1  UNL1        0.2068
     18 C         -11.9979   -1.6206   18.9817 C.3     1  UNL1        0.0646
     19 C         -10.9594   -2.1911   18.0621 C.3     1  UNL1        0.0759
     20 C          -8.8456   -3.7609   16.1341 C.3     1  UNL1        0.0173
     21 C          -9.6202   -4.3640   17.2682 C.3     1  UNL1        0.0576
     22 C          -9.5592   -5.7945   17.7153 C.3     1  UNL1        0.0174
     23 C         -10.4931   -5.9571   18.8778 C.3     1  UNL1        0.0187
     24 C         -11.1313   -4.6271   19.1492 C.3     1  UNL1        0.0721
     25 N         -10.5918   -3.6424   18.1544 N.3     1  UNL1       -0.2738
@<TRIPOS>BOND
     1    21    20    1
     2    21    22    1
     3    22    23    1
     4    23    24    1
     5    24    25    1
     6    25    19    1
     7    19    18    1
     8    18    17    1
     9    17    16    1
    10    16     1    1
    11     1     2   ar
    12     2     3   ar
    13     3     4   ar
    14     4     5   ar
    15     5     6   ar
    16     5     7   ar
    17     7     8   ar
    18     8     9   ar
    19     9    10    1
    20    10    11    1
    21    11    12    1
    22    12    13   am
    23    13    14    2
    24    25    21    1
    25     6     1   ar
    26    13     8    1
    27     9     4   ar
    28    12    15    1
