@<TRIPOS>MOLECULE
*****
 39 42 0 0 0
SMALL
GASTEIGER

@<TRIPOS>ATOM
      1 C           0.6465    2.0191   26.9852 C.ar    1  UNL1        0.0053
      2 C          -0.5667    2.4323   26.2059 C.ar    1  UNL1        0.0033
      3 C          -0.6278    2.1870   24.7274 C.ar    1  UNL1        0.0382
      4 C           0.5243    1.5283   24.0282 C.ar    1  UNL1        0.1529
      5 C           1.7375    1.1151   24.8075 C.ar    1  UNL1        0.0881
      6 C           1.7986    1.3605   26.2860 C.ar    1  UNL1        0.0181
      7 N           2.8896    0.4565   24.1083 N.am    1  UNL1       -0.2528
      8 C           2.8285    0.2111   22.6298 C.2     1  UNL1        0.2697
      9 O           3.9806   -0.4475   21.9306 O.2     1  UNL1       -0.2704
     10 C           1.6153    0.6243   21.8504 C.3     1  UNL1        0.2198
     11 C           0.6907    0.8342   20.6881 C.3     1  UNL1        0.0579
     12 O           0.4632    1.2830   22.5496 O.3     1  UNL1       -0.4686
     13 C           0.2737    1.1936   29.4203 C.ar    1  UNL1        0.0645
     14 N           0.3348    1.4390   30.8988 N.ar    1  UNL1       -0.2183
     15 C           0.8299    2.7552   31.4209 C.ar    1  UNL1        0.2145
     16 N           0.8910    3.0005   32.8994 N.pl3   1  UNL1       -0.3274
     17 N           1.2638    3.8261   30.4643 N.ar    1  UNL1       -0.1995
     18 C           1.2027    3.5807   28.9858 C.ar    1  UNL1        0.1293
     19 N           1.6367    4.6515   28.0292 N.pl3   1  UNL1       -0.3425
     20 C           0.7076    2.2645   28.4638 C.ar    1  UNL1        0.0449
     21 H           0.6062    2.2977   33.5272 H       1  UNL1        0.1452
     22 H           1.2159    3.8644   33.2420 H       1  UNL1        0.1452
     23 H           1.9616    5.5154   28.3718 H       1  UNL1        0.1437
     24 H           1.5966    4.4905   27.0588 H       1  UNL1        0.1437
     25 C          -1.6858   -0.4446   28.9439 C.3     1  UNL1        0.0067
     26 C          -0.2214   -0.1226   28.8982 C.3     1  UNL1        0.0460
     27 C           2.4463    0.0386   20.7476 C.ar    1  UNL1        0.0243
     28 C           3.3326    0.9255   19.9243 C.ar    1  UNL1        0.0020
     29 C           4.1636    0.3397   18.8214 C.ar    1  UNL1        0.0318
     30 C           4.1083   -1.1329   18.5418 C.ar    1  UNL1        0.1674
     31 F           4.9393   -1.7187   17.4389 F       1  UNL1       -0.2018
     32 C           3.2220   -2.0198   19.3651 C.ar    1  UNL1        0.1672
     33 F           3.1666   -3.4925   19.0854 F       1  UNL1       -0.2018
     34 C           2.3909   -1.4341   20.4679 C.ar    1  UNL1        0.0315
     35 C           4.1028    0.0433   24.8876 C.3     1  UNL1        0.1010
     36 C           4.2279   -1.3646   25.3899 C.3     1  UNL1        0.0539
     37 C           4.4153   -1.6241   26.8554 C.3     1  UNL1        0.1440
     38 O           3.2588   -1.4704   27.7982 O.3     1  UNL1       -0.3510
     39 C           3.4136   -0.6567   29.0488 C.3     1  UNL1        0.1741
@<TRIPOS>BOND
     1    25    26    1
     2    26    13    1
     3    13    14   ar
     4    14    15   ar
     5    15    16    1
     6    15    17   ar
     7    17    18   ar
     8    18    19    1
     9    18    20   ar
    10    20     1    1
    11     1     2   ar
    12     2     3   ar
    13     3     4   ar
    14     4     5   ar
    15     5     6   ar
    16     5     7    1
    17     7    35    1
    18    35    36    1
    19    36    37    1
    20    37    38    1
    21    38    39    1
    22     7     8   am
    23     8     9    2
    24     8    10    1
    25    10    11    1
    26    10    27    1
    27    27    28   ar
    28    28    29   ar
    29    29    30   ar
    30    30    31    1
    31    30    32   ar
    32    32    33    1
    33    32    34   ar
    34    10    12    1
    35    20    13   ar
    36     6     1   ar
    37    34    27   ar
    38    12     4    1
    39    16    21    1
    40    16    22    1
    41    19    23    1
    42    19    24    1
@<TRIPOS>MOLECULE
*****
 39 42 0 0 0
SMALL
GASTEIGER

@<TRIPOS>ATOM
      1 C           0.5821    2.0138   26.9541 C.ar    1  UNL1        0.0053
      2 C          -0.6549    2.4214   26.2100 C.ar    1  UNL1        0.0033
      3 C          -0.7438    2.2061   24.7282 C.ar    1  UNL1        0.0382
      4 C           0.4042    1.5833   23.9906 C.ar    1  UNL1        0.1529
      5 C           1.6412    1.1758   24.7347 C.ar    1  UNL1        0.0881
      6 C           1.7301    1.3910   26.2165 C.ar    1  UNL1        0.0181
      7 N           2.7892    0.5530   23.9971 N.am    1  UNL1       -0.2528
      8 C           2.7003    0.3377   22.5153 C.2     1  UNL1        0.2697
      9 O           3.8484   -0.2851   21.7776 O.2     1  UNL1       -0.2704
     10 C           1.4633    0.7453   21.7711 C.3     1  UNL1        0.2198
     11 C           0.5100    0.9628   20.6335 C.3     1  UNL1        0.0579
     12 O           0.3153    1.3681   22.5087 O.3     1  UNL1       -0.4686
     13 C           0.3139    1.1178   29.3780 C.ar    1  UNL1        0.0645
     14 N           0.4028    1.3330   30.8598 N.ar    1  UNL1       -0.2183
     15 C           0.8490    2.6595   31.3996 C.ar    1  UNL1        0.2145
     16 N           0.9379    2.8747   32.8814 N.pl3   1  UNL1       -0.3274
     17 N           1.2061    3.7708   30.4576 N.ar    1  UNL1       -0.1995
     18 C           1.1172    3.5556   28.9757 C.ar    1  UNL1        0.1293
     19 N           1.4743    4.6669   28.0337 N.pl3   1  UNL1       -0.3425
     20 C           0.6710    2.2291   28.4360 C.ar    1  UNL1        0.0449
     21 H           0.7035    2.1453   33.4997 H       1  UNL1        0.1452
     22 H           1.2307    3.7453   33.2357 H       1  UNL1        0.1452
     23 H           1.7671    5.5375   28.3880 H       1  UNL1        0.1437
     24 H           1.4159    4.5256   27.0611 H       1  UNL1        0.1437
     25 C          -1.5780   -0.6014   28.9139 C.3     1  UNL1        0.0067
     26 C          -0.1323   -0.2088   28.8382 C.3     1  UNL1        0.0460
     27 C           2.2803    0.1980   20.6384 C.ar    1  UNL1        0.0243
     28 C           3.0318    1.1315   19.7362 C.ar    1  UNL1        0.0020
     29 C           3.8488    0.5842   18.6035 C.ar    1  UNL1        0.0318
     30 C           3.9143   -0.8965   18.3730 C.ar    1  UNL1        0.1674
     31 F           4.7313   -1.4438   17.2402 F       1  UNL1       -0.2018
     32 C           3.1628   -1.8299   19.2751 C.ar    1  UNL1        0.1672
     33 F           3.2283   -3.3107   19.0446 F       1  UNL1       -0.2018
     34 C           2.3458   -1.2827   20.4078 C.ar    1  UNL1        0.0315
     35 C           4.0262    0.1454   24.7412 C.3     1  UNL1        0.1010
     36 C           4.1868   -1.2701   25.2107 C.3     1  UNL1        0.0539
     37 C           5.0115   -2.2360   24.4126 C.3     1  UNL1        0.1440
     38 O           4.3495   -3.1471   23.4217 O.3     1  UNL1       -0.3510
     39 C           5.0777   -3.5560   22.1758 C.3     1  UNL1        0.1741
@<TRIPOS>BOND
     1    25    26    1
     2    26    13    1
     3    13    14   ar
     4    14    15   ar
     5    15    16    1
     6    15    17   ar
     7    17    18   ar
     8    18    19    1
     9    18    20   ar
    10    20     1    1
    11     1     2   ar
    12     2     3   ar
    13     3     4   ar
    14     4     5   ar
    15     5     6   ar
    16     5     7    1
    17     7    35    1
    18    35    36    1
    19    36    37    1
    20    37    38    1
    21    38    39    1
    22     7     8   am
    23     8     9    2
    24     8    10    1
    25    10    11    1
    26    10    27    1
    27    27    28   ar
    28    28    29   ar
    29    29    30   ar
    30    30    31    1
    31    30    32   ar
    32    32    33    1
    33    32    34   ar
    34    10    12    1
    35    20    13   ar
    36     6     1   ar
    37    34    27   ar
    38    12     4    1
    39    16    21    1
    40    16    22    1
    41    19    23    1
    42    19    24    1
@<TRIPOS>MOLECULE
*****
 39 42 0 0 0
SMALL
GASTEIGER

@<TRIPOS>ATOM
      1 C           4.4545    1.1744   35.8742 C.ar    1  UNL1        0.0053
      2 C           4.7605   -0.2441   35.4948 C.ar    1  UNL1        0.0033
      3 C           4.3420   -0.7686   34.1533 C.ar    1  UNL1        0.0382
      4 C           3.6174    0.1255   33.1912 C.ar    1  UNL1        0.1529
      5 C           3.3114    1.5440   33.5706 C.ar    1  UNL1        0.0881
      6 C           3.7299    2.0685   34.9121 C.ar    1  UNL1        0.0181
      7 N           2.5868    2.4381   32.6085 N.am    1  UNL1       -0.2528
      8 C           2.1683    1.9136   31.2670 C.2     1  UNL1        0.2697
      9 O           1.4437    2.8076   30.3049 O.2     1  UNL1       -0.2704
     10 C           2.4744    0.4949   30.8875 C.3     1  UNL1        0.2198
     11 C           2.5362   -0.7651   30.0761 C.3     1  UNL1        0.0579
     12 O           3.1989   -0.3991   31.8496 O.3     1  UNL1       -0.4686
     13 C           3.8797    1.7668   38.3377 C.ar    1  UNL1        0.0645
     14 N           4.2981    2.2913   39.6793 N.ar    1  UNL1       -0.2183
     15 C           5.7100    2.7481   39.8989 C.ar    1  UNL1        0.2145
     16 N           6.1284    3.2726   41.2404 N.pl3   1  UNL1       -0.3274
     17 N           6.7033    2.6803   38.7770 N.ar    1  UNL1       -0.1995
     18 C           6.2848    2.1557   37.4354 C.ar    1  UNL1        0.1293
     19 N           7.2781    2.0879   36.3135 N.pl3   1  UNL1       -0.3425
     20 C           4.8730    1.6990   37.2158 C.ar    1  UNL1        0.0449
     21 H           5.4765    3.3171   41.9768 H       1  UNL1        0.1452
     22 H           7.0550    3.5724   41.3846 H       1  UNL1        0.1452
     23 H           8.2047    2.3877   36.4576 H       1  UNL1        0.1437
     24 H           7.0034    1.7436   35.4330 H       1  UNL1        0.1437
     25 C           1.7570    0.5313   39.1850 C.3     1  UNL1        0.0067
     26 C           2.4679    1.3100   38.1181 C.3     1  UNL1        0.0460
     27 C           1.7713    0.9514   29.6437 C.ar    1  UNL1        0.0243
     28 C           2.5579    1.5427   28.5116 C.ar    1  UNL1        0.0020
     29 C           1.8548    1.9992   27.2677 C.ar    1  UNL1        0.0318
     30 C           0.3651    1.8643   27.1558 C.ar    1  UNL1        0.1674
     31 F          -0.3380    2.3208   25.9119 F       1  UNL1       -0.2018
     32 C          -0.4215    1.2730   28.2878 C.ar    1  UNL1        0.1672
     33 F          -1.9113    1.1382   28.1760 F       1  UNL1       -0.2018
     34 C           0.2815    0.8166   29.5318 C.ar    1  UNL1        0.0315
     35 C           2.2808    3.8566   32.9879 C.3     1  UNL1        0.1010
     36 C           0.9489    4.2026   33.5849 C.3     1  UNL1        0.0539
     37 C          -0.1440    4.7488   32.7146 C.3     1  UNL1        0.1440
     38 O          -1.3135    5.4551   33.3338 O.3     1  UNL1       -0.3510
     39 C          -1.7411    6.7956   32.8141 C.3     1  UNL1        0.1741
@<TRIPOS>BOND
     1    25    26    1
     2    26    13    1
     3    13    14   ar
     4    14    15   ar
     5    15    16    1
     6    15    17   ar
     7    17    18   ar
     8    18    19    1
     9    18    20   ar
    10    20     1    1
    11     1     2   ar
    12     2     3   ar
    13     3     4   ar
    14     4     5   ar
    15     5     6   ar
    16     5     7    1
    17     7    35    1
    18    35    36    1
    19    36    37    1
    20    37    38    1
    21    38    39    1
    22     7     8   am
    23     8     9    2
    24     8    10    1
    25    10    11    1
    26    10    27    1
    27    27    28   ar
    28    28    29   ar
    29    29    30   ar
    30    30    31    1
    31    30    32   ar
    32    32    33    1
    33    32    34   ar
    34    10    12    1
    35    20    13   ar
    36     6     1   ar
    37    34    27   ar
    38    12     4    1
    39    16    21    1
    40    16    22    1
    41    19    23    1
    42    19    24    1
@<TRIPOS>MOLECULE
*****
 39 42 0 0 0
SMALL
GASTEIGER

@<TRIPOS>ATOM
      1 C           2.5788    0.4202   27.8459 C.ar    1  UNL1        0.0053
      2 C           3.3408   -0.8571   28.0406 C.ar    1  UNL1        0.0033
      3 C           3.9016   -1.5840   26.8545 C.ar    1  UNL1        0.0382
      4 C           3.7005   -1.0338   25.4737 C.ar    1  UNL1        0.1529
      5 C           2.9386    0.2435   25.2789 C.ar    1  UNL1        0.0881
      6 C           2.3777    0.9705   26.4650 C.ar    1  UNL1        0.0181
      7 N           2.7375    0.7938   23.8981 N.am    1  UNL1       -0.2528
      8 C           3.2983    0.0668   22.7120 C.2     1  UNL1        0.2697
      9 O           3.0973    0.6171   21.3311 O.2     1  UNL1       -0.2704
     10 C           4.0603   -1.2105   22.9067 C.3     1  UNL1        0.2198
     11 C           4.8474   -2.4457   22.5828 C.3     1  UNL1        0.0579
     12 O           4.2614   -1.7608   24.2875 O.3     1  UNL1       -0.4686
     13 C           0.6389    0.8247   29.5261 C.ar    1  UNL1        0.0645
     14 N           0.0779    1.5517   30.7122 N.ar    1  UNL1       -0.2183
     15 C           0.8961    2.6013   31.4042 C.ar    1  UNL1        0.2145
     16 N           0.3352    3.3283   32.5903 N.pl3   1  UNL1       -0.3274
     17 N           2.2752    2.9239   30.9102 N.ar    1  UNL1       -0.1995
     18 C           2.8361    2.1969   29.7240 C.ar    1  UNL1        0.1293
     19 N           4.2152    2.5195   29.2300 N.pl3   1  UNL1       -0.3425
     20 C           2.0179    1.1473   29.0320 C.ar    1  UNL1        0.0449
     21 H          -0.5699    3.1166   32.9146 H       1  UNL1        0.1452
     22 H           0.8722    4.0172   33.0445 H       1  UNL1        0.1452
     23 H           4.7522    3.2084   29.6842 H       1  UNL1        0.1437
     24 H           4.5833    2.0423   28.4515 H       1  UNL1        0.1437
     25 C          -1.6652   -0.2705   29.0342 C.3     1  UNL1        0.0067
     26 C          -0.1793   -0.2250   28.8340 C.3     1  UNL1        0.0460
     27 C           4.1326   -1.0892   21.4134 C.ar    1  UNL1        0.0243
     28 C           3.0553   -1.6890   20.5592 C.ar    1  UNL1        0.0020
     29 C           3.1276   -1.5677   19.0658 C.ar    1  UNL1        0.0318
     30 C           4.2770   -0.8466   18.4267 C.ar    1  UNL1        0.1674
     31 F           4.3493   -0.7252   16.9333 F       1  UNL1       -0.2018
     32 C           5.3543   -0.2467   19.2809 C.ar    1  UNL1        0.1672
     33 F           6.5038    0.4744   18.6417 F       1  UNL1       -0.2018
     34 C           5.2821   -0.3680   20.7742 C.ar    1  UNL1        0.0315
     35 C           1.9756    2.0711   23.7033 C.3     1  UNL1        0.1010
     36 C           0.5234    2.0287   23.3298 C.3     1  UNL1        0.0539
     37 C          -0.5004    2.6592   24.2267 C.3     1  UNL1        0.1440
     38 O          -0.8762    1.9958   25.5185 O.3     1  UNL1       -0.3510
     39 C          -0.9794    2.8069   26.7760 C.3     1  UNL1        0.1741
@<TRIPOS>BOND
     1    25    26    1
     2    26    13    1
     3    13    14   ar
     4    14    15   ar
     5    15    16    1
     6    15    17   ar
     7    17    18   ar
     8    18    19    1
     9    18    20   ar
    10    20     1    1
    11     1     2   ar
    12     2     3   ar
    13     3     4   ar
    14     4     5   ar
    15     5     6   ar
    16     5     7    1
    17     7    35    1
    18    35    36    1
    19    36    37    1
    20    37    38    1
    21    38    39    1
    22     7     8   am
    23     8     9    2
    24     8    10    1
    25    10    11    1
    26    10    27    1
    27    27    28   ar
    28    28    29   ar
    29    29    30   ar
    30    30    31    1
    31    30    32   ar
    32    32    33    1
    33    32    34   ar
    34    10    12    1
    35    20    13   ar
    36     6     1   ar
    37    34    27   ar
    38    12     4    1
    39    16    21    1
    40    16    22    1
    41    19    23    1
    42    19    24    1
@<TRIPOS>MOLECULE
*****
 39 42 0 0 0
SMALL
GASTEIGER

@<TRIPOS>ATOM
      1 C           0.2118    2.4546   26.8711 C.ar    1  UNL1        0.0053
      2 C           1.1987    1.8380   25.9247 C.ar    1  UNL1        0.0033
      3 C           0.9741    1.9264   24.4443 C.ar    1  UNL1        0.0382
      4 C          -0.2374    2.6313   23.9102 C.ar    1  UNL1        0.1529
      5 C          -1.2244    3.2479   24.8566 C.ar    1  UNL1        0.0881
      6 C          -0.9998    3.1595   26.3371 C.ar    1  UNL1        0.0181
      7 N          -2.4359    3.9528   24.3226 N.am    1  UNL1       -0.2528
      8 C          -2.6605    4.0412   22.8422 C.2     1  UNL1        0.2697
      9 O          -3.8721    4.7461   22.3081 O.2     1  UNL1       -0.2704
     10 C          -1.6736    3.4246   21.8957 C.3     1  UNL1        0.2198
     11 C          -1.0297    3.0018   20.6086 C.3     1  UNL1        0.0579
     12 O          -0.4620    2.7197   22.4297 O.3     1  UNL1       -0.4686
     13 C           0.0152    1.1376   29.1020 C.ar    1  UNL1        0.0645
     14 N           0.2398    1.0493   30.5825 N.ar    1  UNL1       -0.2183
     15 C           0.8854    2.1895   31.3126 C.ar    1  UNL1        0.2145
     16 N           1.1100    2.1012   32.7930 N.pl3   1  UNL1       -0.3274
     17 N           1.3066    3.4182   30.5621 N.ar    1  UNL1       -0.1995
     18 C           1.0820    3.5065   29.0816 C.ar    1  UNL1        0.1293
     19 N           1.5031    4.7351   28.3312 N.pl3   1  UNL1       -0.3425
     20 C           0.4363    2.3663   28.3516 C.ar    1  UNL1        0.0449
     21 H           0.8336    1.2948   33.2855 H       1  UNL1        0.1452
     22 H           1.5338    2.8496   33.2721 H       1  UNL1        0.1452
     23 H           1.9269    5.4835   28.8103 H       1  UNL1        0.1437
     24 H           1.3557    4.7931   27.3595 H       1  UNL1        0.1437
     25 C          -1.7867   -0.7307   28.9908 C.3     1  UNL1        0.0067
     26 C          -0.6305   -0.0026   28.3720 C.3     1  UNL1        0.0460
     27 C          -2.6615    3.9827   20.9147 C.ar    1  UNL1        0.0243
     28 C          -2.4958    5.3805   20.3962 C.ar    1  UNL1        0.0020
     29 C          -3.4838    5.9386   19.4152 C.ar    1  UNL1        0.0318
     30 C          -4.6374    5.0990   18.9526 C.ar    1  UNL1        0.1674
     31 F          -5.6254    5.6571   17.9715 F       1  UNL1       -0.2018
     32 C          -4.8031    3.7013   19.4710 C.ar    1  UNL1        0.1672
     33 F          -5.9568    2.8616   19.0084 F       1  UNL1       -0.2018
     34 C          -3.8152    3.1431   20.4521 C.ar    1  UNL1        0.0315
     35 C          -3.4229    4.5694   25.2690 C.3     1  UNL1        0.1010
     36 C          -4.7631    3.9288   25.4775 C.3     1  UNL1        0.0539
     37 C          -6.0152    4.7376   25.3102 C.3     1  UNL1        0.1440
     38 O          -6.9705    4.4196   24.1983 O.3     1  UNL1       -0.3510
     39 C          -8.0753    5.3768   23.8620 C.3     1  UNL1        0.1741
@<TRIPOS>BOND
     1    25    26    1
     2    26    13    1
     3    13    14   ar
     4    14    15   ar
     5    15    16    1
     6    15    17   ar
     7    17    18   ar
     8    18    19    1
     9    18    20   ar
    10    20     1    1
    11     1     2   ar
    12     2     3   ar
    13     3     4   ar
    14     4     5   ar
    15     5     6   ar
    16     5     7    1
    17     7    35    1
    18    35    36    1
    19    36    37    1
    20    37    38    1
    21    38    39    1
    22     7     8   am
    23     8     9    2
    24     8    10    1
    25    10    11    1
    26    10    27    1
    27    27    28   ar
    28    28    29   ar
    29    29    30   ar
    30    30    31    1
    31    30    32   ar
    32    32    33    1
    33    32    34   ar
    34    10    12    1
    35    20    13   ar
    36     6     1   ar
    37    34    27   ar
    38    12     4    1
    39    16    21    1
    40    16    22    1
    41    19    23    1
    42    19    24    1
@<TRIPOS>MOLECULE
*****
 39 42 0 0 0
SMALL
GASTEIGER

@<TRIPOS>ATOM
      1 C           0.9961    1.4237   26.5406 C.ar    1  UNL1        0.0053
      2 C           0.0398    2.0998   25.6034 C.ar    1  UNL1        0.0033
      3 C           0.1551    1.8768   24.1246 C.ar    1  UNL1        0.0382
      4 C           1.2268    0.9778   23.5830 C.ar    1  UNL1        0.1529
      5 C           2.1831    0.3018   24.5201 C.ar    1  UNL1        0.0881
      6 C           2.0677    0.5247   25.9989 C.ar    1  UNL1        0.0181
      7 N           3.2547   -0.5972   23.9785 N.am    1  UNL1       -0.2528
      8 C           3.3701   -0.8202   22.4997 C.2     1  UNL1        0.2697
      9 O           4.4417   -1.7192   21.9580 O.2     1  UNL1       -0.2704
     10 C           2.4137   -0.1441   21.5624 C.3     1  UNL1        0.2198
     11 C           1.7494    0.2697   20.2827 C.3     1  UNL1        0.0579
     12 O           1.3421    0.7549   22.1040 O.3     1  UNL1       -0.4686
     13 C           1.6236    2.7770   28.6677 C.ar    1  UNL1        0.0645
     14 N           1.5083    3.0000   30.1466 N.ar    1  UNL1       -0.2183
     15 C           0.6502    2.0924   30.9772 C.ar    1  UNL1        0.2145
     16 N           0.5349    2.3153   32.4561 N.pl3   1  UNL1       -0.3274
     17 N          -0.0927    0.9619   30.3290 N.ar    1  UNL1       -0.1995
     18 C           0.0226    0.7390   28.8501 C.ar    1  UNL1        0.1293
     19 N          -0.7202   -0.3915   28.2019 N.pl3   1  UNL1       -0.3425
     20 C           0.8808    1.6466   28.0195 C.ar    1  UNL1        0.0449
     21 H           1.0225    3.0573   32.8815 H       1  UNL1        0.1452
     22 H          -0.0283    1.7196   33.0012 H       1  UNL1        0.1452
     23 H          -1.2834   -0.9871   28.7470 H       1  UNL1        0.1437
     24 H          -0.6445   -0.5378   27.2312 H       1  UNL1        0.1437
     25 C           3.9523    3.4174   27.7099 C.3     1  UNL1        0.0067
     26 C           2.4818    3.6846   27.8371 C.3     1  UNL1        0.0460
     27 C           3.2547   -0.8993   20.5764 C.ar    1  UNL1        0.0243
     28 C           4.5111   -0.2839   20.0356 C.ar    1  UNL1        0.0020
     29 C           5.3521   -1.0392   19.0495 C.ar    1  UNL1        0.0318
     30 C           4.9366   -2.4099   18.6042 C.ar    1  UNL1        0.1674
     31 F           5.7776   -3.1653   17.6181 F       1  UNL1       -0.2018
     32 C           3.6802   -3.0254   19.1450 C.ar    1  UNL1        0.1672
     33 F           3.2646   -4.3962   18.6997 F       1  UNL1       -0.2018
     34 C           2.8391   -2.2702   20.1311 C.ar    1  UNL1        0.0315
     35 C           4.2110   -1.2733   24.9157 C.3     1  UNL1        0.1010
     36 C           5.4684   -0.5730   25.3382 C.3     1  UNL1        0.0539
     37 C           5.9749    0.5990   24.5509 C.3     1  UNL1        0.1440
     38 O           5.3448    1.9489   24.7261 O.3     1  UNL1       -0.3510
     39 C           4.8162    2.6903   23.5341 C.3     1  UNL1        0.1741
@<TRIPOS>BOND
     1    25    26    1
     2    26    13    1
     3    13    14   ar
     4    14    15   ar
     5    15    16    1
     6    15    17   ar
     7    17    18   ar
     8    18    19    1
     9    18    20   ar
    10    20     1    1
    11     1     2   ar
    12     2     3   ar
    13     3     4   ar
    14     4     5   ar
    15     5     6   ar
    16     5     7    1
    17     7    35    1
    18    35    36    1
    19    36    37    1
    20    37    38    1
    21    38    39    1
    22     7     8   am
    23     8     9    2
    24     8    10    1
    25    10    11    1
    26    10    27    1
    27    27    28   ar
    28    28    29   ar
    29    29    30   ar
    30    30    31    1
    31    30    32   ar
    32    32    33    1
    33    32    34   ar
    34    10    12    1
    35    20    13   ar
    36     6     1   ar
    37    34    27   ar
    38    12     4    1
    39    16    21    1
    40    16    22    1
    41    19    23    1
    42    19    24    1
@<TRIPOS>MOLECULE
*****
 39 42 0 0 0
SMALL
GASTEIGER

@<TRIPOS>ATOM
      1 C           0.9961    1.4315   26.5093 C.ar    1  UNL1        0.0053
      2 C           0.0461    2.1183   25.5735 C.ar    1  UNL1        0.0033
      3 C           0.1611    1.8995   24.0940 C.ar    1  UNL1        0.0382
      4 C           1.2262    0.9940   23.5503 C.ar    1  UNL1        0.1529
      5 C           2.1763    0.3072   24.4861 C.ar    1  UNL1        0.0881
      6 C           2.0612    0.5260   25.9656 C.ar    1  UNL1        0.0181
      7 N           3.2413   -0.5983   23.9424 N.am    1  UNL1       -0.2528
      8 C           3.3564   -0.8171   22.4630 C.2     1  UNL1        0.2697
      9 O           4.4215   -1.7226   21.9193 O.2     1  UNL1       -0.2704
     10 C           2.4063   -0.1303   21.5271 C.3     1  UNL1        0.2198
     11 C           1.7466    0.2930   20.2482 C.3     1  UNL1        0.0579
     12 O           1.3412    0.7752   22.0708 O.3     1  UNL1       -0.4686
     13 C           1.6265    2.7771   28.6405 C.ar    1  UNL1        0.0645
     14 N           1.5115    2.9959   30.1200 N.ar    1  UNL1       -0.2183
     15 C           0.6511    2.0879   30.9478 C.ar    1  UNL1        0.2145
     16 N           0.5361    2.3066   32.4273 N.pl3   1  UNL1       -0.3274
     17 N          -0.0942    0.9610   30.2961 N.ar    1  UNL1       -0.1995
     18 C           0.0208    0.7423   28.8166 C.ar    1  UNL1        0.1293
     19 N          -0.7246   -0.3846   28.1649 N.pl3   1  UNL1       -0.3425
     20 C           0.8811    1.6503   27.9888 C.ar    1  UNL1        0.0449
     21 H           1.0254    3.0462   32.8550 H       1  UNL1        0.1452
     22 H          -0.0285    1.7107   32.9706 H       1  UNL1        0.1452
     23 H          -1.2893   -0.9805   28.7082 H       1  UNL1        0.1437
     24 H          -0.6491   -0.5281   27.1938 H       1  UNL1        0.1437
     25 C           3.9802    3.5529   27.8607 C.3     1  UNL1        0.0067
     26 C           2.4869    3.6852   27.8126 C.3     1  UNL1        0.0460
     27 C           3.2423   -0.8888   20.5393 C.ar    1  UNL1        0.0243
     28 C           4.4916   -0.2718   19.9839 C.ar    1  UNL1        0.0020
     29 C           5.3276   -1.0304   18.9961 C.ar    1  UNL1        0.0318
     30 C           4.9143   -2.4058   18.5636 C.ar    1  UNL1        0.1674
     31 F           5.7503   -3.1644   17.5758 F       1  UNL1       -0.2018
     32 C           3.6650   -3.0229   19.1190 C.ar    1  UNL1        0.1672
     33 F           3.2516   -4.3984   18.6866 F       1  UNL1       -0.2018
     34 C           2.8289   -2.2644   20.1069 C.ar    1  UNL1        0.0315
     35 C           4.1914   -1.2851   24.8782 C.3     1  UNL1        0.1010
     36 C           5.4663   -0.6067   25.2839 C.3     1  UNL1        0.0539
     37 C           6.0802   -0.9015   26.6205 C.3     1  UNL1        0.1440
     38 O           5.2047   -1.2504   27.7874 O.3     1  UNL1       -0.3510
     39 C           5.8213   -1.6775   29.0864 C.3     1  UNL1        0.1741
@<TRIPOS>BOND
     1    25    26    1
     2    26    13    1
     3    13    14   ar
     4    14    15   ar
     5    15    16    1
     6    15    17   ar
     7    17    18   ar
     8    18    19    1
     9    18    20   ar
    10    20     1    1
    11     1     2   ar
    12     2     3   ar
    13     3     4   ar
    14     4     5   ar
    15     5     6   ar
    16     5     7    1
    17     7    35    1
    18    35    36    1
    19    36    37    1
    20    37    38    1
    21    38    39    1
    22     7     8   am
    23     8     9    2
    24     8    10    1
    25    10    11    1
    26    10    27    1
    27    27    28   ar
    28    28    29   ar
    29    29    30   ar
    30    30    31    1
    31    30    32   ar
    32    32    33    1
    33    32    34   ar
    34    10    12    1
    35    20    13   ar
    36     6     1   ar
    37    34    27   ar
    38    12     4    1
    39    16    21    1
    40    16    22    1
    41    19    23    1
    42    19    24    1
@<TRIPOS>MOLECULE
*****
 39 42 0 0 0
SMALL
GASTEIGER

@<TRIPOS>ATOM
      1 C          -0.2762    2.6917   26.7579 C.ar    1  UNL1        0.0053
      2 C           0.7819    2.4721   25.7177 C.ar    1  UNL1        0.0033
      3 C           0.4642    2.6873   24.2676 C.ar    1  UNL1        0.0382
      4 C          -0.9117    3.1221   23.8578 C.ar    1  UNL1        0.1529
      5 C          -1.9698    3.3417   24.8980 C.ar    1  UNL1        0.0881
      6 C          -1.6521    3.1265   26.3481 C.ar    1  UNL1        0.0181
      7 N          -3.3457    3.7765   24.4882 N.am    1  UNL1       -0.2528
      8 C          -3.6634    3.9918   23.0382 C.2     1  UNL1        0.2697
      9 O          -5.0392    4.4266   22.6283 O.2     1  UNL1       -0.2704
     10 C          -2.6052    3.7722   21.9979 C.3     1  UNL1        0.2198
     11 C          -1.9453    3.6942   20.6531 C.3     1  UNL1        0.0579
     12 O          -1.2294    3.3374   22.4077 O.3     1  UNL1       -0.4686
     13 C           0.5345    3.6191   29.0454 C.ar    1  UNL1        0.0645
     14 N           0.8522    3.4040   30.4955 N.ar    1  UNL1       -0.2183
     15 C           0.6769    2.0460   31.1082 C.ar    1  UNL1        0.2145
     16 N           0.9946    1.8309   32.5583 N.pl3   1  UNL1       -0.3274
     17 N           0.1839    0.9033   30.2709 N.ar    1  UNL1       -0.1995
     18 C          -0.1338    1.1186   28.8207 C.ar    1  UNL1        0.1293
     19 N          -0.6268   -0.0241   27.9833 N.pl3   1  UNL1       -0.3425
     20 C           0.0415    2.4764   28.2080 C.ar    1  UNL1        0.0449
     21 H           1.3181    2.5809   33.1079 H       1  UNL1        0.1452
     22 H           0.8795    0.9396   32.9605 H       1  UNL1        0.1452
     23 H          -0.7419   -0.9153   28.3855 H       1  UNL1        0.1437
     24 H          -0.8354    0.1171   27.0316 H       1  UNL1        0.1437
     25 C          -0.4056    5.9780   28.4958 C.3     1  UNL1        0.0067
     26 C           0.7098    4.9770   28.4327 C.3     1  UNL1        0.0460
     27 C          -3.7519    4.1799   21.1210 C.ar    1  UNL1        0.0243
     28 C          -4.0492    5.6339   20.9030 C.ar    1  UNL1        0.0020
     29 C          -5.1960    6.0416   20.0261 C.ar    1  UNL1        0.0318
     30 C          -6.0452    4.9955   19.3673 C.ar    1  UNL1        0.1674
     31 F          -7.1920    5.4032   18.4904 F       1  UNL1       -0.2018
     32 C          -5.7479    3.5415   19.5854 C.ar    1  UNL1        0.1672
     33 F          -6.5972    2.4953   18.9265 F       1  UNL1       -0.2018
     34 C          -4.6012    3.1337   20.4622 C.ar    1  UNL1        0.0315
     35 C          -4.4038    3.9961   25.5284 C.3     1  UNL1        0.1010
     36 C          -4.7394    5.3884   25.9746 C.3     1  UNL1        0.0539
     37 C          -5.6417    5.6009   27.1540 C.3     1  UNL1        0.1440
     38 O          -5.3270    6.6724   28.1555 O.3     1  UNL1       -0.3510
     39 C          -3.9219    7.1779   28.2964 C.3     1  UNL1        0.1741
@<TRIPOS>BOND
     1    25    26    1
     2    26    13    1
     3    13    14   ar
     4    14    15   ar
     5    15    16    1
     6    15    17   ar
     7    17    18   ar
     8    18    19    1
     9    18    20   ar
    10    20     1    1
    11     1     2   ar
    12     2     3   ar
    13     3     4   ar
    14     4     5   ar
    15     5     6   ar
    16     5     7    1
    17     7    35    1
    18    35    36    1
    19    36    37    1
    20    37    38    1
    21    38    39    1
    22     7     8   am
    23     8     9    2
    24     8    10    1
    25    10    11    1
    26    10    27    1
    27    27    28   ar
    28    28    29   ar
    29    29    30   ar
    30    30    31    1
    31    30    32   ar
    32    32    33    1
    33    32    34   ar
    34    10    12    1
    35    20    13   ar
    36     6     1   ar
    37    34    27   ar
    38    12     4    1
    39    16    21    1
    40    16    22    1
    41    19    23    1
    42    19    24    1
@<TRIPOS>MOLECULE
*****
 39 42 0 0 0
SMALL
GASTEIGER

@<TRIPOS>ATOM
      1 C           2.6571    0.2387   27.8594 C.ar    1  UNL1        0.0053
      2 C           3.4949   -0.9703   28.1531 C.ar    1  UNL1        0.0033
      3 C           4.1386   -1.7276   27.0297 C.ar    1  UNL1        0.0382
      4 C           3.9444   -1.2760   25.6125 C.ar    1  UNL1        0.1529
      5 C           3.1065   -0.0670   25.3188 C.ar    1  UNL1        0.0881
      6 C           2.4629    0.6903   26.4422 C.ar    1  UNL1        0.0181
      7 N           2.9123    0.3846   23.9017 N.am    1  UNL1       -0.2528
      8 C           3.5560   -0.3728   22.7782 C.2     1  UNL1        0.2697
      9 O           3.3618    0.0789   21.3611 O.2     1  UNL1       -0.2704
     10 C           4.3939   -1.5818   23.0720 C.3     1  UNL1        0.2198
     11 C           5.2699   -2.7783   22.8463 C.3     1  UNL1        0.0579
     12 O           4.5881   -2.0334   24.4891 O.3     1  UNL1       -0.4686
     13 C           2.7384    2.1394   29.6287 C.ar    1  UNL1        0.0645
     14 N           2.0947    2.8968   30.7521 N.ar    1  UNL1       -0.2183
     15 C           0.7261    2.5110   31.2296 C.ar    1  UNL1        0.2145
     16 N           0.0825    3.2684   32.3530 N.pl3   1  UNL1       -0.3274
     17 N           0.0011    1.3677   30.5837 N.ar    1  UNL1       -0.1995
     18 C           0.6448    0.6102   29.4602 C.ar    1  UNL1        0.1293
     19 N          -0.0802   -0.5331   28.8143 N.pl3   1  UNL1       -0.3425
     20 C           2.0134    0.9961   28.9828 C.ar    1  UNL1        0.0449
     21 H           0.5583    4.0188   32.7769 H       1  UNL1        0.1452
     22 H          -0.8158    3.0151   32.6664 H       1  UNL1        0.1452
     23 H          -0.9784   -0.7864   29.1277 H       1  UNL1        0.1437
     24 H           0.3423   -1.0302   28.0770 H       1  UNL1        0.1437
     25 C           5.3223    2.0246   29.8740 C.3     1  UNL1        0.0067
     26 C           4.1070    2.5253   29.1513 C.3     1  UNL1        0.0460
     27 C           4.5039   -1.5457   21.5765 C.ar    1  UNL1        0.0243
     28 C           3.4812   -2.2465   20.7320 C.ar    1  UNL1        0.0020
     29 C           3.5913   -2.2103   19.2365 C.ar    1  UNL1        0.0318
     30 C           4.7240   -1.4735   18.5854 C.ar    1  UNL1        0.1674
     31 F           4.8340   -1.4374   17.0898 F       1  UNL1       -0.2018
     32 C           5.7466   -0.7728   19.4298 C.ar    1  UNL1        0.1672
     33 F           6.8794   -0.0359   18.7787 F       1  UNL1       -0.2018
     34 C           5.6367   -0.8088   20.9253 C.ar    1  UNL1        0.0315
     35 C           2.0745    1.5936   23.6079 C.3     1  UNL1        0.1010
     36 C           0.6465    1.4302   23.1788 C.3     1  UNL1        0.0539
     37 C           0.2401    1.7773   21.7772 C.3     1  UNL1        0.1440
     38 O          -0.1571    0.6921   20.8209 O.3     1  UNL1       -0.3510
     39 C           0.6365    0.4692   19.5677 C.3     1  UNL1        0.1741
@<TRIPOS>BOND
     1    25    26    1
     2    26    13    1
     3    13    14   ar
     4    14    15   ar
     5    15    16    1
     6    15    17   ar
     7    17    18   ar
     8    18    19    1
     9    18    20   ar
    10    20     1    1
    11     1     2   ar
    12     2     3   ar
    13     3     4   ar
    14     4     5   ar
    15     5     6   ar
    16     5     7    1
    17     7    35    1
    18    35    36    1
    19    36    37    1
    20    37    38    1
    21    38    39    1
    22     7     8   am
    23     8     9    2
    24     8    10    1
    25    10    11    1
    26    10    27    1
    27    27    28   ar
    28    28    29   ar
    29    29    30   ar
    30    30    31    1
    31    30    32   ar
    32    32    33    1
    33    32    34   ar
    34    10    12    1
    35    20    13   ar
    36     6     1   ar
    37    34    27   ar
    38    12     4    1
    39    16    21    1
    40    16    22    1
    41    19    23    1
    42    19    24    1
