@<TRIPOS>MOLECULE
*****
 34 37 0 0 0
SMALL
GASTEIGER

@<TRIPOS>ATOM
      1 C           6.0394   -3.4347   21.6557 C.ar    1  UNL1        0.2600
      2 N           5.8529   -3.4249   23.1440 N.ar    1  UNL1       -0.1870
      3 C           6.7650   -4.4603   23.7323 C.ar    1  UNL1        0.2036
      4 N           7.5152   -5.1101   22.6076 N.ar    1  UNL1       -0.0556
      5 O           7.0667   -4.4762   21.3241 O.2     1  UNL1       -0.3324
      6 C           6.9027   -4.7883   25.1895 C.ar    1  UNL1        0.0388
      7 C           7.3425   -6.1590   25.6114 C.ar    1  UNL1        0.0028
      8 C           7.4802   -6.4870   27.0686 C.ar    1  UNL1       -0.0044
      9 C           7.1781   -5.4444   28.1039 C.ar    1  UNL1       -0.0247
     10 C           6.7384   -4.0739   27.6820 C.ar    1  UNL1       -0.0246
     11 C           6.6007   -3.7458   26.2248 C.ar    1  UNL1       -0.0014
     12 C           6.3900   -2.8968   28.5440 C.3     1  UNL1        0.0433
     13 C           6.3953   -2.7996   30.0409 C.3     1  UNL1        0.0768
     14 N           6.7504   -3.8555   31.0453 N.3     1  UNL1       -0.2721
     15 C           7.1878   -5.2694   30.8011 C.3     1  UNL1        0.0768
     16 C           7.3781   -5.9765   29.4920 C.3     1  UNL1        0.0433
     17 C           6.6555   -3.4430   32.4844 C.3     1  UNL1        0.0725
     18 C           6.8066   -1.9992   32.8623 C.3     1  UNL1        0.0232
     19 C           5.5950   -1.1808   33.1974 C.3     1  UNL1        0.0431
     20 C           4.2239   -1.7592   33.0096 C.2     1  UNL1        0.0504
     21 O           3.7012   -2.7792   33.9774 O.co2   1  UNL1       -0.5492
     22 O           3.3754   -1.3176   31.8542 O.co2   1  UNL1       -0.5492
     23 C           3.8936   -0.8020   18.7037 C.ar    1  UNL1        0.1479
     24 C           3.1168   -1.5396   19.7537 C.ar    1  UNL1        0.0377
     25 C           3.8321   -2.4172   20.7377 C.ar    1  UNL1        0.0079
     26 C           5.3241   -2.5571   20.6717 C.ar    1  UNL1        0.0569
     27 C           6.1008   -1.8195   19.6216 C.ar    1  UNL1        0.0181
     28 C           5.3856   -0.9420   18.6376 C.ar    1  UNL1        0.1024
     29 C           6.1623   -0.2043   17.5876 C.1     1  UNL1        0.1035
     30 N           6.9390    0.5333   16.5375 N.1     1  UNL1       -0.1907
     31 O           3.1783    0.0755   17.7197 O.3     1  UNL1       -0.4785
     32 C           0.9594    1.2540   18.3814 C.3     1  UNL1        0.0472
     33 C           2.4474    1.2958   18.1960 C.3     1  UNL1        0.1662
     34 C           3.2042    2.5576   18.4870 C.3     1  UNL1        0.0472
@<TRIPOS>UNITY_ATOM_ATTR
21 1
charge -1
@<TRIPOS>BOND
     1    32    33    1
     2    33    34    1
     3    33    31    1
     4    31    23    1
     5    23    24   ar
     6    24    25   ar
     7    25    26   ar
     8    26     1    1
     9     1     2   ar
    10     2     3   ar
    11     3     6    1
    12     6     7   ar
    13     7     8   ar
    14     8     9   ar
    15     9    10   ar
    16    10    11   ar
    17    10    12    1
    18    12    13    1
    19    13    14    1
    20    14    17    1
    21    17    18    1
    22    18    19    1
    23    19    20    1
    24    20    21   ar
    25    20    22   ar
    26    14    15    1
    27    15    16    1
    28     3     4   ar
    29     4     5   ar
    30    26    27   ar
    31    27    28   ar
    32    28    29    1
    33    29    30    3
    34    28    23   ar
    35     5     1   ar
    36    11     6   ar
    37    16     9    1
@<TRIPOS>MOLECULE
*****
 34 37 0 0 0
SMALL
GASTEIGER

@<TRIPOS>ATOM
      1 C           6.8648   -4.5617   23.8741 C.ar    1  UNL1        0.2600
      2 N           5.7005   -3.6258   23.7388 N.ar    1  UNL1       -0.1870
      3 C           5.4087   -3.4571   22.2772 C.ar    1  UNL1        0.2036
      4 N           6.3926   -4.2889   21.5091 N.ar    1  UNL1       -0.0556
      5 O           7.2926   -4.9716   22.4960 O.2     1  UNL1       -0.3324
      6 C           4.3234   -2.6062   21.6873 C.ar    1  UNL1        0.0388
      7 C           3.8813   -2.8295   20.2714 C.ar    1  UNL1        0.0028
      8 C           2.7960   -1.9785   19.6814 C.ar    1  UNL1       -0.0044
      9 C           2.1529   -0.9042   20.5074 C.ar    1  UNL1       -0.0247
     10 C           2.5950   -0.6809   21.9232 C.ar    1  UNL1       -0.0246
     11 C           3.6802   -1.5318   22.5132 C.ar    1  UNL1       -0.0014
     12 C           2.0904    0.3275   22.9126 C.3     1  UNL1        0.0433
     13 C           1.0190    1.3615   22.7303 C.3     1  UNL1        0.0768
     14 N           0.1878    1.6425   21.5138 N.3     1  UNL1       -0.2721
     15 C           0.2225    0.9590   20.1790 C.3     1  UNL1        0.0768
     16 C           1.0970   -0.1744   19.7311 C.3     1  UNL1        0.0433
     17 C          -0.8101    2.7541   21.6500 C.3     1  UNL1        0.0725
     18 C          -1.5655    3.2355   20.4468 C.3     1  UNL1        0.0232
     19 C          -2.9058    3.8880   20.6143 C.3     1  UNL1        0.0431
     20 C          -3.7350    3.5969   21.8298 C.2     1  UNL1        0.0504
     21 O          -3.5854    4.4422   23.0599 O.co2   1  UNL1       -0.5492
     22 O          -4.7139    2.4604   21.8152 O.co2   1  UNL1       -0.5492
     23 C           8.7445   -5.9045   27.7359 C.ar    1  UNL1        0.1479
     24 C           8.7774   -4.4554   27.3498 C.ar    1  UNL1        0.0377
     25 C           8.1508   -4.0078   26.0626 C.ar    1  UNL1        0.0079
     26 C           7.4914   -5.0093   25.1614 C.ar    1  UNL1        0.0569
     27 C           7.4585   -6.4584   25.5475 C.ar    1  UNL1        0.0181
     28 C           8.0851   -6.9060   26.8348 C.ar    1  UNL1        0.1024
     29 C           8.0522   -8.3551   27.2209 C.1     1  UNL1        0.1035
     30 N           8.0193   -9.8042   27.6070 N.1     1  UNL1       -0.1907
     31 O           9.3711   -6.3521   29.0232 O.3     1  UNL1       -0.4785
     32 C           9.1528   -6.9109   31.5512 C.3     1  UNL1        0.0472
     33 C           8.5665   -6.3506   30.2892 C.3     1  UNL1        0.1662
     34 C           7.1757   -5.7889   30.2933 C.3     1  UNL1        0.0472
@<TRIPOS>UNITY_ATOM_ATTR
21 1
charge -1
@<TRIPOS>BOND
     1    32    33    1
     2    33    34    1
     3    33    31    1
     4    31    23    1
     5    23    24   ar
     6    24    25   ar
     7    25    26   ar
     8    26     1    1
     9     1     2   ar
    10     2     3   ar
    11     3     6    1
    12     6     7   ar
    13     7     8   ar
    14     8     9   ar
    15     9    10   ar
    16    10    11   ar
    17    10    12    1
    18    12    13    1
    19    13    14    1
    20    14    17    1
    21    17    18    1
    22    18    19    1
    23    19    20    1
    24    20    21   ar
    25    20    22   ar
    26    14    15    1
    27    15    16    1
    28     3     4   ar
    29     4     5   ar
    30    26    27   ar
    31    27    28   ar
    32    28    29    1
    33    29    30    3
    34    28    23   ar
    35     5     1   ar
    36    11     6   ar
    37    16     9    1
@<TRIPOS>MOLECULE
*****
 34 37 0 0 0
SMALL
GASTEIGER

@<TRIPOS>ATOM
      1 C           6.3939   -4.0301   22.7953 C.ar    1  UNL1        0.2600
      2 N           6.1328   -3.5693   24.1986 N.ar    1  UNL1       -0.1870
      3 C           6.8548   -4.4950   25.1323 C.ar    1  UNL1        0.2036
      4 N           7.5620   -5.5280   24.3060 N.ar    1  UNL1       -0.0556
      5 O           7.2772   -5.2406   22.8615 O.2     1  UNL1       -0.3324
      6 C           6.8672   -4.4038   26.6295 C.ar    1  UNL1        0.0388
      7 C           6.6076   -5.6273   27.4575 C.ar    1  UNL1        0.0028
      8 C           6.6200   -5.5361   28.9548 C.ar    1  UNL1       -0.0044
      9 C           6.8921   -4.2214   29.6238 C.ar    1  UNL1       -0.0247
     10 C           7.1517   -2.9981   28.7958 C.ar    1  UNL1       -0.0246
     11 C           7.1393   -3.0892   27.2986 C.ar    1  UNL1       -0.0014
     12 C           7.4420   -1.6006   29.2573 C.3     1  UNL1        0.0433
     13 C           7.5444   -1.0816   30.6610 C.3     1  UNL1        0.0768
     14 N           7.3817   -1.8317   31.9496 N.3     1  UNL1       -0.2721
     15 C           7.0765   -3.2862   32.1531 C.3     1  UNL1        0.0768
     16 C           6.8586   -4.3497   31.1180 C.3     1  UNL1        0.0433
     17 C           7.5460   -1.0201   33.2003 C.3     1  UNL1        0.0725
     18 C           6.3447   -0.6574   34.0223 C.3     1  UNL1        0.0232
     19 C           5.0685   -0.2511   33.3469 C.3     1  UNL1        0.0431
     20 C           4.0430   -1.2877   32.9953 C.2     1  UNL1        0.0504
     21 O           3.9249   -2.5355   33.8193 O.co2   1  UNL1       -0.5492
     22 O           3.1356   -1.0765   31.8197 O.co2   1  UNL1       -0.5492
     23 C           4.8061   -2.1167   19.0445 C.ar    1  UNL1        0.1479
     24 C           6.1687   -2.7437   19.0476 C.ar    1  UNL1        0.0377
     25 C           6.6980   -3.3815   20.2978 C.ar    1  UNL1        0.0079
     26 C           5.8646   -3.3923   21.5449 C.ar    1  UNL1        0.0569
     27 C           4.5019   -2.7653   21.5418 C.ar    1  UNL1        0.0181
     28 C           3.9727   -2.1275   20.2916 C.ar    1  UNL1        0.1024
     29 C           2.6100   -1.5005   20.2885 C.1     1  UNL1        0.1035
     30 N           1.2473   -0.8735   20.2854 N.1     1  UNL1       -0.1907
     31 O           4.2768   -1.4789   17.7943 O.3     1  UNL1       -0.4785
     32 C           3.5188    1.0010   17.9545 C.3     1  UNL1        0.0472
     33 C           4.5285   -0.0239   17.5301 C.3     1  UNL1        0.1662
     34 C           5.7899    0.4061   16.8417 C.3     1  UNL1        0.0472
@<TRIPOS>UNITY_ATOM_ATTR
21 1
charge -1
@<TRIPOS>BOND
     1    32    33    1
     2    33    34    1
     3    33    31    1
     4    31    23    1
     5    23    24   ar
     6    24    25   ar
     7    25    26   ar
     8    26     1    1
     9     1     2   ar
    10     2     3   ar
    11     3     6    1
    12     6     7   ar
    13     7     8   ar
    14     8     9   ar
    15     9    10   ar
    16    10    11   ar
    17    10    12    1
    18    12    13    1
    19    13    14    1
    20    14    17    1
    21    17    18    1
    22    18    19    1
    23    19    20    1
    24    20    21   ar
    25    20    22   ar
    26    14    15    1
    27    15    16    1
    28     3     4   ar
    29     4     5   ar
    30    26    27   ar
    31    27    28   ar
    32    28    29    1
    33    29    30    3
    34    28    23   ar
    35     5     1   ar
    36    11     6   ar
    37    16     9    1
@<TRIPOS>MOLECULE
*****
 34 37 0 0 0
SMALL
GASTEIGER

@<TRIPOS>ATOM
      1 C           5.8628   -3.0147   20.8719 C.ar    1  UNL1        0.2600
      2 N           5.8366   -3.2596   22.3515 N.ar    1  UNL1       -0.1870
      3 C           6.8444   -4.3263   22.6627 C.ar    1  UNL1        0.2036
      4 N           7.4934   -4.7405   21.3754 N.ar    1  UNL1       -0.0556
      5 O           6.8867   -3.9299   20.2685 O.2     1  UNL1       -0.3324
      6 C           7.1495   -4.8811   24.0224 C.ar    1  UNL1        0.0388
      7 C           7.9180   -6.1625   24.1543 C.ar    1  UNL1        0.0028
      8 C           8.2232   -6.7175   25.5141 C.ar    1  UNL1       -0.0044
      9 C           7.7599   -5.9909   26.7420 C.ar    1  UNL1       -0.0247
     10 C           6.9914   -4.7096   26.6100 C.ar    1  UNL1       -0.0246
     11 C           6.6862   -4.1546   25.2503 C.ar    1  UNL1       -0.0014
     12 C           6.4409   -3.8331   27.6957 C.3     1  UNL1        0.0433
     13 C           6.5229   -4.0217   29.1816 C.3     1  UNL1        0.0768
     14 N           7.1756   -5.1332   29.9486 N.3     1  UNL1       -0.2721
     15 C           7.9076   -6.3307   29.4193 C.3     1  UNL1        0.0768
     16 C           8.1677   -6.7125   27.9922 C.3     1  UNL1        0.0433
     17 C           7.0843   -5.0341   31.4426 C.3     1  UNL1        0.0725
     18 C           7.0212   -3.6886   32.1026 C.3     1  UNL1        0.0232
     19 C           5.7238   -3.1899   32.6666 C.3     1  UNL1        0.0431
     20 C           5.0230   -2.0301   32.0236 C.2     1  UNL1        0.0504
     21 O           5.7614   -1.1474   31.0614 O.co2   1  UNL1       -0.5492
     22 O           3.5838   -1.7528   32.3427 O.co2   1  UNL1       -0.5492
     23 C           3.3165   -0.0541   18.6355 C.ar    1  UNL1        0.1479
     24 C           4.7060   -0.3587   18.1594 C.ar    1  UNL1        0.0377
     25 C           5.5547   -1.3456   18.9049 C.ar    1  UNL1        0.0079
     26 C           5.0140   -2.0278   20.1264 C.ar    1  UNL1        0.0569
     27 C           3.6246   -1.7232   20.6025 C.ar    1  UNL1        0.0181
     28 C           2.7758   -0.7364   19.8570 C.ar    1  UNL1        0.1024
     29 C           1.3864   -0.4318   20.3331 C.1     1  UNL1        0.1035
     30 N          -0.0031   -0.1272   20.8092 N.1     1  UNL1       -0.1907
     31 O           2.4678    0.9328   17.8901 O.3     1  UNL1       -0.4785
     32 C           3.5704    3.1552   18.6616 C.3     1  UNL1        0.0472
     33 C           2.3400    2.3410   18.3908 C.3     1  UNL1        0.1662
     34 C           0.9820    2.9350   18.6206 C.3     1  UNL1        0.0472
@<TRIPOS>UNITY_ATOM_ATTR
21 1
charge -1
@<TRIPOS>BOND
     1    32    33    1
     2    33    34    1
     3    33    31    1
     4    31    23    1
     5    23    24   ar
     6    24    25   ar
     7    25    26   ar
     8    26     1    1
     9     1     2   ar
    10     2     3   ar
    11     3     6    1
    12     6     7   ar
    13     7     8   ar
    14     8     9   ar
    15     9    10   ar
    16    10    11   ar
    17    10    12    1
    18    12    13    1
    19    13    14    1
    20    14    17    1
    21    17    18    1
    22    18    19    1
    23    19    20    1
    24    20    21   ar
    25    20    22   ar
    26    14    15    1
    27    15    16    1
    28     3     4   ar
    29     4     5   ar
    30    26    27   ar
    31    27    28   ar
    32    28    29    1
    33    29    30    3
    34    28    23   ar
    35     5     1   ar
    36    11     6   ar
    37    16     9    1
@<TRIPOS>MOLECULE
*****
 34 37 0 0 0
SMALL
GASTEIGER

@<TRIPOS>ATOM
      1 C           3.3189   -0.6754   24.6443 C.ar    1  UNL1        0.2600
      2 N           4.0853   -1.2785   25.7840 N.ar    1  UNL1       -0.1870
      3 C           3.7334   -0.5224   27.0308 C.ar    1  UNL1        0.2036
      4 N           2.7495    0.5480   26.6617 N.ar    1  UNL1       -0.0556
      5 O           2.4933    0.4534   25.1867 O.2     1  UNL1       -0.3324
      6 C           4.2710   -0.7898   28.4053 C.ar    1  UNL1        0.0388
      7 C           5.4529   -1.6958   28.5852 C.ar    1  UNL1        0.0028
      8 C           5.9906   -1.9633   29.9598 C.ar    1  UNL1       -0.0044
      9 C           5.3463   -1.3247   31.1544 C.ar    1  UNL1       -0.0247
     10 C           4.1646   -0.4187   30.9745 C.ar    1  UNL1       -0.0246
     11 C           3.6268   -0.1512   29.6001 C.ar    1  UNL1       -0.0014
     12 C           3.3795    0.3137   32.0221 C.3     1  UNL1        0.0433
     13 C           3.5826    0.3210   33.5084 C.3     1  UNL1        0.0768
     14 N           4.6207   -0.4023   34.3139 N.3     1  UNL1       -0.2721
     15 C           5.7122   -1.3116   33.8324 C.3     1  UNL1        0.0768
     16 C           6.0352   -1.7221   32.4263 C.3     1  UNL1        0.0433
     17 C           4.5592   -0.1880   35.7973 C.3     1  UNL1        0.0725
     18 C           5.2042    1.0208   36.4079 C.3     1  UNL1        0.0232
     19 C           4.3546    2.1025   37.0065 C.3     1  UNL1        0.0431
     20 C           2.8614    2.0405   36.8786 C.2     1  UNL1        0.0504
     21 O           2.0429    1.3898   37.9541 O.co2   1  UNL1       -0.5492
     22 O           2.1867    2.6292   35.6752 O.co2   1  UNL1       -0.5492
     23 C           3.4698   -2.0170   20.3516 C.ar    1  UNL1        0.1479
     24 C           4.3195   -2.7007   21.3813 C.ar    1  UNL1        0.0377
     25 C           4.2692   -2.2535   22.8122 C.ar    1  UNL1        0.0079
     26 C           3.3692   -1.1226   23.2133 C.ar    1  UNL1        0.0569
     27 C           2.5194   -0.4389   22.1836 C.ar    1  UNL1        0.0181
     28 C           2.5697   -0.8860   20.7527 C.ar    1  UNL1        0.1024
     29 C           1.7200   -0.2023   19.7229 C.1     1  UNL1        0.1035
     30 N           0.8703    0.4815   18.6931 N.1     1  UNL1       -0.1907
     31 O           3.5201   -2.4642   18.9207 O.3     1  UNL1       -0.4785
     32 C           5.9593   -2.3393   18.0347 C.3     1  UNL1        0.0472
     33 C           4.5340   -1.8742   17.9858 C.3     1  UNL1        0.1662
     34 C           4.1228   -0.8192   17.0021 C.3     1  UNL1        0.0472
@<TRIPOS>UNITY_ATOM_ATTR
21 1
charge -1
@<TRIPOS>BOND
     1    32    33    1
     2    33    34    1
     3    33    31    1
     4    31    23    1
     5    23    24   ar
     6    24    25   ar
     7    25    26   ar
     8    26     1    1
     9     1     2   ar
    10     2     3   ar
    11     3     6    1
    12     6     7   ar
    13     7     8   ar
    14     8     9   ar
    15     9    10   ar
    16    10    11   ar
    17    10    12    1
    18    12    13    1
    19    13    14    1
    20    14    17    1
    21    17    18    1
    22    18    19    1
    23    19    20    1
    24    20    21   ar
    25    20    22   ar
    26    14    15    1
    27    15    16    1
    28     3     4   ar
    29     4     5   ar
    30    26    27   ar
    31    27    28   ar
    32    28    29    1
    33    29    30    3
    34    28    23   ar
    35     5     1   ar
    36    11     6   ar
    37    16     9    1
@<TRIPOS>MOLECULE
*****
 34 37 0 0 0
SMALL
GASTEIGER

@<TRIPOS>ATOM
      1 C           7.3886   -4.4846   21.9481 C.ar    1  UNL1        0.2600
      2 N           7.0764   -4.1468   23.3758 N.ar    1  UNL1       -0.1870
      3 C           7.5729   -5.2701   24.2371 C.ar    1  UNL1        0.2036
      4 N           8.1918   -6.3021   23.3417 N.ar    1  UNL1       -0.0556
      5 O           8.0780   -5.8167   21.9270 O.2     1  UNL1       -0.3324
      6 C           7.4686   -5.3476   25.7314 C.ar    1  UNL1        0.0388
      7 C           7.7796   -6.6330   26.4392 C.ar    1  UNL1        0.0028
      8 C           7.6753   -6.7106   27.9336 C.ar    1  UNL1       -0.0044
      9 C           7.2600   -5.5027   28.7202 C.ar    1  UNL1       -0.0247
     10 C           6.9490   -4.2174   28.0124 C.ar    1  UNL1       -0.0246
     11 C           7.0533   -4.1397   26.5181 C.ar    1  UNL1       -0.0014
     12 C           6.5206   -2.9057   28.6006 C.3     1  UNL1        0.0433
     13 C           6.2973   -2.5556   30.0421 C.3     1  UNL1        0.0768
     14 N           6.4474   -3.4305   31.2511 N.3     1  UNL1       -0.2721
     15 C           6.8577   -4.8718   31.3174 C.3     1  UNL1        0.0768
     16 C           7.2194   -5.7940   30.1911 C.3     1  UNL1        0.0433
     17 C           6.1474   -2.7780   32.5680 C.3     1  UNL1        0.0725
     18 C           4.7246   -2.5624   32.9914 C.3     1  UNL1        0.0232
     19 C           4.2746   -1.2054   33.4457 C.3     1  UNL1        0.0431
     20 C           3.4721   -0.3344   32.5253 C.2     1  UNL1        0.0504
     21 O           3.4568    1.1524   32.7235 O.co2   1  UNL1       -0.5492
     22 O           2.6850   -0.9500   31.4066 O.co2   1  UNL1       -0.5492
     23 C           6.4262   -1.9474   18.3583 C.ar    1  UNL1        0.1479
     24 C           5.5958   -3.1584   18.6652 C.ar    1  UNL1        0.0377
     25 C           5.9166   -4.0041   19.8618 C.ar    1  UNL1        0.0079
     26 C           7.0678   -3.6389   20.7514 C.ar    1  UNL1        0.0569
     27 C           7.8981   -2.4279   20.4445 C.ar    1  UNL1        0.0181
     28 C           7.5773   -1.5822   19.2479 C.ar    1  UNL1        0.1024
     29 C           8.4076   -0.3713   18.9410 C.1     1  UNL1        0.1035
     30 N           9.2380    0.8396   18.6341 N.1     1  UNL1       -0.1907
     31 O           6.1053   -1.1017   17.1617 O.3     1  UNL1       -0.4785
     32 C           5.5107    1.4189   17.3704 C.3     1  UNL1        0.0472
     33 C           5.0780   -0.0137   17.2661 C.3     1  UNL1        0.1662
     34 C           3.6182   -0.3581   17.2661 C.3     1  UNL1        0.0472
@<TRIPOS>UNITY_ATOM_ATTR
21 1
charge -1
@<TRIPOS>BOND
     1    32    33    1
     2    33    34    1
     3    33    31    1
     4    31    23    1
     5    23    24   ar
     6    24    25   ar
     7    25    26   ar
     8    26     1    1
     9     1     2   ar
    10     2     3   ar
    11     3     6    1
    12     6     7   ar
    13     7     8   ar
    14     8     9   ar
    15     9    10   ar
    16    10    11   ar
    17    10    12    1
    18    12    13    1
    19    13    14    1
    20    14    17    1
    21    17    18    1
    22    18    19    1
    23    19    20    1
    24    20    21   ar
    25    20    22   ar
    26    14    15    1
    27    15    16    1
    28     3     4   ar
    29     4     5   ar
    30    26    27   ar
    31    27    28   ar
    32    28    29    1
    33    29    30    3
    34    28    23   ar
    35     5     1   ar
    36    11     6   ar
    37    16     9    1
@<TRIPOS>MOLECULE
*****
 34 37 0 0 0
SMALL
GASTEIGER

@<TRIPOS>ATOM
      1 C           6.6718   -4.2798   24.1883 C.ar    1  UNL1        0.2600
      2 N           5.5861   -3.2683   23.9694 N.ar    1  UNL1       -0.1870
      3 C           5.2121   -3.2968   22.5170 C.ar    1  UNL1        0.2036
      4 N           6.0667   -4.3259   21.8384 N.ar    1  UNL1       -0.0556
      5 O           6.9689   -4.9335   22.8714 O.2     1  UNL1       -0.3324
      6 C           4.1671   -2.4455   21.8589 C.ar    1  UNL1        0.0388
      7 C           3.8118   -2.6732   20.4194 C.ar    1  UNL1        0.0028
      8 C           2.7666   -1.8219   19.7612 C.ar    1  UNL1       -0.0044
      9 C           2.0769   -0.7430   20.5425 C.ar    1  UNL1       -0.0247
     10 C           2.4322   -0.5155   21.9818 C.ar    1  UNL1       -0.0246
     11 C           3.4772   -1.3667   22.6401 C.ar    1  UNL1       -0.0014
     12 C           1.8706    0.4977   22.9349 C.3     1  UNL1        0.0433
     13 C           0.8150    1.5334   22.6838 C.3     1  UNL1        0.0768
     14 N           0.0604    1.8118   21.4178 N.3     1  UNL1       -0.2721
     15 C           0.1748    1.1233   20.0901 C.3     1  UNL1        0.0768
     16 C           1.0722   -0.0138   19.7005 C.3     1  UNL1        0.0433
     17 C          -0.9413    2.9261   21.4889 C.3     1  UNL1        0.0725
     18 C          -1.7771    3.2610   20.2891 C.3     1  UNL1        0.0232
     19 C          -2.8872    4.2632   20.4044 C.3     1  UNL1        0.0431
     20 C          -4.2923    3.8007   20.6525 C.2     1  UNL1        0.0504
     21 O          -5.4463    4.5624   20.0708 O.co2   1  UNL1       -0.5492
     22 O          -4.5436    2.5766   21.4822 O.co2   1  UNL1       -0.5492
     23 C           8.6844   -5.1932   28.1082 C.ar    1  UNL1        0.1479
     24 C           8.4672   -6.2862   27.1041 C.ar    1  UNL1        0.0377
     25 C           7.7963   -5.9817   25.7975 C.ar    1  UNL1        0.0079
     26 C           7.3427   -4.5843   25.4950 C.ar    1  UNL1        0.0569
     27 C           7.5599   -3.4914   26.4992 C.ar    1  UNL1        0.0181
     28 C           8.2308   -3.7958   27.8057 C.ar    1  UNL1        0.1024
     29 C           8.4480   -2.7029   28.8099 C.1     1  UNL1        0.1035
     30 N           8.6653   -1.6099   29.8140 N.1     1  UNL1       -0.1907
     31 O           9.3553   -5.4977   29.4148 O.3     1  UNL1       -0.4785
     32 C           7.0867   -5.7893   30.6471 C.3     1  UNL1        0.0472
     33 C           8.5586   -6.0630   30.5531 C.3     1  UNL1        0.1662
     34 C           9.2336   -6.9020   31.5973 C.3     1  UNL1        0.0472
@<TRIPOS>UNITY_ATOM_ATTR
21 1
charge -1
@<TRIPOS>BOND
     1    32    33    1
     2    33    34    1
     3    33    31    1
     4    31    23    1
     5    23    24   ar
     6    24    25   ar
     7    25    26   ar
     8    26     1    1
     9     1     2   ar
    10     2     3   ar
    11     3     6    1
    12     6     7   ar
    13     7     8   ar
    14     8     9   ar
    15     9    10   ar
    16    10    11   ar
    17    10    12    1
    18    12    13    1
    19    13    14    1
    20    14    17    1
    21    17    18    1
    22    18    19    1
    23    19    20    1
    24    20    21   ar
    25    20    22   ar
    26    14    15    1
    27    15    16    1
    28     3     4   ar
    29     4     5   ar
    30    26    27   ar
    31    27    28   ar
    32    28    29    1
    33    29    30    3
    34    28    23   ar
    35     5     1   ar
    36    11     6   ar
    37    16     9    1
@<TRIPOS>MOLECULE
*****
 34 37 0 0 0
SMALL
GASTEIGER

@<TRIPOS>ATOM
      1 C           0.6527    1.3920   30.1267 C.ar    1  UNL1        0.2600
      2 N           0.8682    2.0090   28.7767 N.ar    1  UNL1       -0.1870
      3 C          -0.2655    1.5888   27.8887 C.ar    1  UNL1        0.2036
      4 N          -1.1816    0.7121   28.6901 N.ar    1  UNL1       -0.0556
      5 O          -0.6141    0.5905   30.0733 O.2     1  UNL1       -0.3324
      6 C          -0.4505    1.9772   26.4518 C.ar    1  UNL1        0.0388
      7 C          -1.4771    3.0053   26.0790 C.ar    1  UNL1        0.0028
      8 C          -1.6622    3.3938   24.6420 C.ar    1  UNL1       -0.0044
      9 C          -0.8205    2.7540   23.5778 C.ar    1  UNL1       -0.0247
     10 C           0.2061    1.7260   23.9506 C.ar    1  UNL1       -0.0246
     11 C           0.3912    1.3375   25.3875 C.ar    1  UNL1       -0.0014
     12 C           1.1426    0.9715   23.0540 C.3     1  UNL1        0.0433
     13 C           1.2838    1.0589   21.5632 C.3     1  UNL1        0.0768
     14 N           0.5233    1.9222   20.6009 N.3     1  UNL1       -0.2721
     15 C          -0.5662    2.9115   20.8915 C.3     1  UNL1        0.0768
     16 C          -1.1642    3.2817   22.2164 C.3     1  UNL1        0.0433
     17 C           0.9024    1.7771   19.1568 C.3     1  UNL1        0.0725
     18 C           1.5435    0.5101   18.6732 C.3     1  UNL1        0.0232
     19 C           2.9241    0.5441   18.0878 C.3     1  UNL1        0.0431
     20 C           3.5991   -0.7330   17.6838 C.2     1  UNL1        0.0504
     21 O           4.0023   -1.7312   18.7284 O.co2   1  UNL1       -0.5492
     22 O           3.8708   -1.0121   16.2353 O.co2   1  UNL1       -0.5492
     23 C           3.3355    1.8627   33.7088 C.ar    1  UNL1        0.1479
     24 C           3.6572    0.8396   32.6601 C.ar    1  UNL1        0.0377
     25 C           2.7629    0.6827   31.4661 C.ar    1  UNL1        0.0079
     26 C           1.5470    1.5489   31.3208 C.ar    1  UNL1        0.0569
     27 C           1.2253    2.5720   32.3695 C.ar    1  UNL1        0.0181
     28 C           2.1196    2.7289   33.5635 C.ar    1  UNL1        0.1024
     29 C           1.7979    3.7521   34.6121 C.1     1  UNL1        0.1035
     30 N           1.4763    4.7752   35.6608 N.1     1  UNL1       -0.1907
     31 O           4.2298    2.0196   34.9027 O.3     1  UNL1       -0.4785
     32 C           4.7287   -0.2369   36.0900 C.3     1  UNL1        0.0472
     33 C           4.0690    1.1103   36.0849 C.3     1  UNL1        0.1662
     34 C           3.2485    1.5481   37.2617 C.3     1  UNL1        0.0472
@<TRIPOS>UNITY_ATOM_ATTR
21 1
charge -1
@<TRIPOS>BOND
     1    32    33    1
     2    33    34    1
     3    33    31    1
     4    31    23    1
     5    23    24   ar
     6    24    25   ar
     7    25    26   ar
     8    26     1    1
     9     1     2   ar
    10     2     3   ar
    11     3     6    1
    12     6     7   ar
    13     7     8   ar
    14     8     9   ar
    15     9    10   ar
    16    10    11   ar
    17    10    12    1
    18    12    13    1
    19    13    14    1
    20    14    17    1
    21    17    18    1
    22    18    19    1
    23    19    20    1
    24    20    21   ar
    25    20    22   ar
    26    14    15    1
    27    15    16    1
    28     3     4   ar
    29     4     5   ar
    30    26    27   ar
    31    27    28   ar
    32    28    29    1
    33    29    30    3
    34    28    23   ar
    35     5     1   ar
    36    11     6   ar
    37    16     9    1
@<TRIPOS>MOLECULE
*****
 34 37 0 0 0
SMALL
GASTEIGER

@<TRIPOS>ATOM
      1 C          -0.8142    2.4164   20.6540 C.ar    1  UNL1        0.2600
      2 N          -0.0512    1.3620   21.3996 N.ar    1  UNL1       -0.1870
      3 C           1.0224    0.8381   20.4925 C.ar    1  UNL1        0.2036
      4 N           0.9229    1.5687   19.1863 N.ar    1  UNL1       -0.0556
      5 O          -0.2123    2.5442   19.2861 O.2     1  UNL1       -0.3324
      6 C           2.0203   -0.2291   20.8321 C.ar    1  UNL1        0.0388
      7 C           2.4415   -1.2212   19.7889 C.ar    1  UNL1        0.0028
      8 C           3.4394   -2.2884   20.1284 C.ar    1  UNL1       -0.0044
      9 C           4.0161   -2.3635   21.5112 C.ar    1  UNL1       -0.0247
     10 C           3.5948   -1.3714   22.5542 C.ar    1  UNL1       -0.0246
     11 C           2.5969   -0.3042   22.2148 C.ar    1  UNL1       -0.0014
     12 C           4.0429   -1.2684   23.9821 C.3     1  UNL1        0.0433
     13 C           5.0230   -2.1322   24.7194 C.3     1  UNL1        0.0768
     14 N           5.7968   -3.3121   24.2109 N.3     1  UNL1       -0.2721
     15 C           5.7820   -3.9199   22.8396 C.3     1  UNL1        0.0768
     16 C           4.9894   -3.4977   21.6381 C.3     1  UNL1        0.0433
     17 C           6.7059   -3.9716   25.2052 C.3     1  UNL1        0.0725
     18 C           7.1966   -5.3681   24.9619 C.3     1  UNL1        0.0232
     19 C           7.2574   -6.3498   26.0945 C.3     1  UNL1        0.0431
     20 C           7.9389   -7.6724   25.9047 C.2     1  UNL1        0.0504
     21 O           8.9344   -7.8512   24.7970 O.co2   1  UNL1       -0.5492
     22 O           7.6249   -8.8164   26.8227 O.co2   1  UNL1       -0.5492
     23 C          -4.2979    4.7813   22.2421 C.ar    1  UNL1        0.1479
     24 C          -3.0248    4.6996   23.0312 C.ar    1  UNL1        0.0377
     25 C          -1.8636    3.9113   22.5018 C.ar    1  UNL1        0.0079
     26 C          -1.9755    3.2048   21.1834 C.ar    1  UNL1        0.0569
     27 C          -3.2486    3.2865   20.3944 C.ar    1  UNL1        0.0181
     28 C          -4.4098    4.0747   20.9237 C.ar    1  UNL1        0.1024
     29 C          -5.6828    4.1564   20.1347 C.1     1  UNL1        0.1035
     30 N          -6.9559    4.2381   19.3456 N.1     1  UNL1       -0.1907
     31 O          -5.4591    5.5696   22.7715 O.3     1  UNL1       -0.4785
     32 C          -6.0315    4.9618   25.2319 C.3     1  UNL1        0.0472
     33 C          -6.3885    4.9536   23.7749 C.3     1  UNL1        0.1662
     34 C          -7.6749    4.3295   23.3215 C.3     1  UNL1        0.0472
@<TRIPOS>UNITY_ATOM_ATTR
21 1
charge -1
@<TRIPOS>BOND
     1    32    33    1
     2    33    34    1
     3    33    31    1
     4    31    23    1
     5    23    24   ar
     6    24    25   ar
     7    25    26   ar
     8    26     1    1
     9     1     2   ar
    10     2     3   ar
    11     3     6    1
    12     6     7   ar
    13     7     8   ar
    14     8     9   ar
    15     9    10   ar
    16    10    11   ar
    17    10    12    1
    18    12    13    1
    19    13    14    1
    20    14    17    1
    21    17    18    1
    22    18    19    1
    23    19    20    1
    24    20    21   ar
    25    20    22   ar
    26    14    15    1
    27    15    16    1
    28     3     4   ar
    29     4     5   ar
    30    26    27   ar
    31    27    28   ar
    32    28    29    1
    33    29    30    3
    34    28    23   ar
    35     5     1   ar
    36    11     6   ar
    37    16     9    1
