@<TRIPOS>MOLECULE
*****
 37 40 0 0 0
SMALL
GASTEIGER

@<TRIPOS>ATOM
      1 C           1.1488    1.6630   22.5967 C.ar    1  UNL1        0.0769
      2 N           0.0935    2.4871   21.9205 N.ar    1  UNL1       -0.2502
      3 C          -0.9224    3.2249   22.7413 C.ar    1  UNL1        0.0579
      4 C          -1.9776    4.0490   22.0652 C.3     1  UNL1        0.0518
      5 C          -0.8830    3.1385   24.2383 C.ar    1  UNL1        0.0232
      6 C           0.1724    2.3144   24.9145 C.ar    1  UNL1       -0.0027
      7 C           1.1882    1.5766   24.0936 C.ar    1  UNL1       -0.0044
      8 C           2.2435    0.7525   24.7698 C.3     1  UNL1        0.0326
      9 C           0.2118    2.2280   26.4115 C.ar    1  UNL1       -0.0004
     10 C          -0.5718    1.1646   27.1223 C.ar    1  UNL1        0.0008
     11 C          -0.5324    1.0782   28.6192 C.ar    1  UNL1        0.0114
     12 C           0.2907    2.0552   29.4055 C.ar    1  UNL1        0.0577
     13 CL          0.3301    1.9688   30.9024 Cl      1  UNL1       -0.0822
     14 C           1.0743    3.1185   28.6947 C.ar    1  UNL1        0.0114
     15 C           1.0348    3.2049   27.1977 C.ar    1  UNL1        0.0008
     16 C           4.1964   -0.5502   20.1342 C.ar    1  UNL1        0.0039
     17 C           4.5284    0.7966   20.7052 C.ar    1  UNL1        0.0002
     18 C           3.5125    1.5343   21.5260 C.ar    1  UNL1        0.0015
     19 C           2.1647    0.9252   21.7758 C.ar    1  UNL1        0.0173
     20 C           1.8327   -0.4215   21.2049 C.ar    1  UNL1        0.0015
     21 C           2.8486   -1.1592   20.3841 C.ar    1  UNL1        0.0002
     22 C           4.2380   -0.7709   16.8786 C.3     1  UNL1        0.0556
     23 C           5.2314   -1.3894   17.8170 C.ar    1  UNL1        0.1006
     24 N           6.4183   -2.2180   17.4236 N.ar    1  UNL1       -0.0817
     25 O           7.1328   -2.6286   18.6770 O.2     1  UNL1       -0.3581
     26 C           6.3874   -2.0539   19.8449 C.ar    1  UNL1        0.1544
     27 C           6.7530   -2.2164   21.2906 C.3     1  UNL1        0.0754
     28 C           5.2123   -1.2880   19.3134 C.ar    1  UNL1        0.0496
     29 C          -1.8988    3.8763   25.0592 C.3     1  UNL1        0.1744
     30 C          -1.6926    5.3267   25.3812 C.2     1  UNL1        0.0816
     31 O          -2.2468    6.3830   24.4719 O.co2   1  UNL1       -0.5464
     32 O          -0.9321    5.7208   26.6127 O.co2   1  UNL1       -0.5464
     33 O          -3.1208    3.1636   25.5579 O.3     1  UNL1       -0.3510
     34 C          -4.4658    3.8196   25.4556 C.3     1  UNL1        0.0938
     35 C          -4.5939    3.3363   24.0414 C.3     1  UNL1        0.0297
     36 C          -4.3377    4.3030   26.8697 C.3     1  UNL1        0.0297
     37 C          -5.8109    4.4757   25.3532 C.3     1  UNL1        0.0297
@<TRIPOS>UNITY_ATOM_ATTR
31 1
charge -1
@<TRIPOS>BOND
     1    22    23    1
     2    23    24   ar
     3    24    25   ar
     4    25    26   ar
     5    26    27    1
     6    26    28   ar
     7    28    16    1
     8    16    17   ar
     9    17    18   ar
    10    18    19   ar
    11    19     1    1
    12     1     2   ar
    13     2     3   ar
    14     3     4    1
    15     3     5   ar
    16     5    29    1
    17    29    33    1
    18    33    34    1
    19    34    35    1
    20    34    36    1
    21    34    37    1
    22    29    30    1
    23    30    31   ar
    24    30    32   ar
    25     5     6   ar
    26     6     9    1
    27     9    10   ar
    28    10    11   ar
    29    11    12   ar
    30    12    13    1
    31    12    14   ar
    32    14    15   ar
    33     6     7   ar
    34     7     8    1
    35    19    20   ar
    36    20    21   ar
    37    28    23   ar
    38    21    16   ar
    39     7     1   ar
    40    15     9   ar
@<TRIPOS>MOLECULE
*****
 37 40 0 0 0
SMALL
GASTEIGER

@<TRIPOS>ATOM
      1 C           0.6226    1.6499   22.8178 C.ar    1  UNL1        0.0769
      2 N          -0.3842    2.5881   22.2212 N.ar    1  UNL1       -0.2502
      3 C          -1.2524    3.4238   23.1146 C.ar    1  UNL1        0.0579
      4 C          -2.2592    4.3620   22.5179 C.3     1  UNL1        0.0518
      5 C          -1.1137    3.3211   24.6046 C.ar    1  UNL1        0.0232
      6 C          -0.1068    2.3828   25.2013 C.ar    1  UNL1       -0.0027
      7 C           0.7613    1.5473   24.3079 C.ar    1  UNL1       -0.0044
      8 C           1.7682    0.6090   24.9045 C.3     1  UNL1        0.0326
      9 C           0.0319    2.2802   26.6913 C.ar    1  UNL1       -0.0004
     10 C           0.9669    3.1974   27.4225 C.ar    1  UNL1        0.0008
     11 C           1.1057    3.0948   28.9125 C.ar    1  UNL1        0.0114
     12 C           0.3093    2.0749   29.6714 C.ar    1  UNL1        0.0577
     13 CL          0.4480    1.9723   31.1614 Cl      1  UNL1       -0.0822
     14 C          -0.6257    1.1578   28.9403 C.ar    1  UNL1        0.0114
     15 C          -0.7644    1.2604   27.4502 C.ar    1  UNL1        0.0008
     16 C           3.2269   -0.8569   20.1377 C.ar    1  UNL1        0.0039
     17 C           1.7343   -0.9891   20.0701 C.ar    1  UNL1        0.0002
     18 C           0.8662   -0.1535   20.9635 C.ar    1  UNL1        0.0015
     19 C           1.4907    0.8143   21.9245 C.ar    1  UNL1        0.0173
     20 C           2.9833    0.9464   21.9920 C.ar    1  UNL1        0.0015
     21 C           3.8514    0.1108   21.0987 C.ar    1  UNL1        0.0002
     22 C           4.4056   -3.8195   20.8333 C.3     1  UNL1        0.0556
     23 C           4.6368   -3.0543   19.5641 C.ar    1  UNL1        0.1006
     24 N           5.4505   -3.5164   18.3917 N.ar    1  UNL1       -0.0817
     25 O           5.4115   -2.4403   17.3474 O.2     1  UNL1       -0.3581
     26 C           4.5739   -1.3131   17.8744 C.ar    1  UNL1        0.1544
     27 C           4.2686   -0.0315   17.1572 C.3     1  UNL1        0.0754
     28 C           4.0951   -1.6926   19.2443 C.ar    1  UNL1        0.0496
     29 C          -1.9818    4.1567   25.4980 C.3     1  UNL1        0.1744
     30 C          -1.6070    5.5792   25.7909 C.2     1  UNL1        0.0816
     31 O          -0.7194    5.8959   26.9580 O.co2   1  UNL1       -0.5464
     32 O          -2.1197    6.6852   24.9167 O.co2   1  UNL1       -0.5464
     33 O          -3.2247    3.5697   26.0985 O.3     1  UNL1       -0.3510
     34 C          -4.5633    4.1725   25.7906 C.3     1  UNL1        0.0938
     35 C          -4.4769    5.0014   27.0377 C.3     1  UNL1        0.0297
     36 C          -4.6496    3.3436   24.5434 C.3     1  UNL1        0.0297
     37 C          -5.9019    4.7753   25.4825 C.3     1  UNL1        0.0297
@<TRIPOS>UNITY_ATOM_ATTR
31 1
charge -1
@<TRIPOS>BOND
     1    22    23    1
     2    23    24   ar
     3    24    25   ar
     4    25    26   ar
     5    26    27    1
     6    26    28   ar
     7    28    16    1
     8    16    17   ar
     9    17    18   ar
    10    18    19   ar
    11    19     1    1
    12     1     2   ar
    13     2     3   ar
    14     3     4    1
    15     3     5   ar
    16     5    29    1
    17    29    33    1
    18    33    34    1
    19    34    35    1
    20    34    36    1
    21    34    37    1
    22    29    30    1
    23    30    31   ar
    24    30    32   ar
    25     5     6   ar
    26     6     9    1
    27     9    10   ar
    28    10    11   ar
    29    11    12   ar
    30    12    13    1
    31    12    14   ar
    32    14    15   ar
    33     6     7   ar
    34     7     8    1
    35    19    20   ar
    36    20    21   ar
    37    28    23   ar
    38    21    16   ar
    39     7     1   ar
    40    15     9   ar
@<TRIPOS>MOLECULE
*****
 37 40 0 0 0
SMALL
GASTEIGER

@<TRIPOS>ATOM
      1 C          -0.4482    2.2080   21.1965 C.ar    1  UNL1        0.0769
      2 N          -1.6386    2.4274   20.3106 N.ar    1  UNL1       -0.2502
      3 C          -2.7874    3.2636   20.7914 C.ar    1  UNL1        0.0579
      4 C          -3.9777    3.4830   19.9054 C.3     1  UNL1        0.0518
      5 C          -2.7458    3.8804   22.1581 C.ar    1  UNL1        0.0232
      6 C          -1.5554    3.6610   23.0440 C.ar    1  UNL1       -0.0027
      7 C          -0.4066    2.8248   22.5632 C.ar    1  UNL1       -0.0044
      8 C           0.7838    2.6054   23.4492 C.3     1  UNL1        0.0326
      9 C          -1.5138    4.2777   24.4107 C.ar    1  UNL1       -0.0004
     10 C          -2.1594    3.5775   25.5695 C.ar    1  UNL1        0.0008
     11 C          -2.1178    4.1942   26.9362 C.ar    1  UNL1        0.0114
     12 C          -1.4306    5.5113   27.1441 C.ar    1  UNL1        0.0577
     13 CL         -1.3890    6.1281   28.5108 Cl      1  UNL1       -0.0822
     14 C          -0.7849    6.2115   25.9853 C.ar    1  UNL1        0.0114
     15 C          -0.8265    5.5947   24.6186 C.ar    1  UNL1        0.0008
     16 C           2.9981   -0.3005   19.7543 C.ar    1  UNL1        0.0039
     17 C           1.7198   -0.9578   20.1832 C.ar    1  UNL1        0.0002
     18 C           0.5711   -0.1217   20.6639 C.ar    1  UNL1        0.0015
     19 C           0.7006    1.3718   20.7158 C.ar    1  UNL1        0.0173
     20 C           1.9789    2.0291   20.2869 C.ar    1  UNL1        0.0015
     21 C           3.1276    1.1930   19.8062 C.ar    1  UNL1        0.0002
     22 C           3.7881   -0.8651   16.6387 C.3     1  UNL1        0.0556
     23 C           4.5100   -1.3962   17.8415 C.ar    1  UNL1        0.1006
     24 N           5.7218   -2.2801   17.8234 N.ar    1  UNL1       -0.0817
     25 O           6.1077   -2.5669   19.2443 O.2     1  UNL1       -0.3581
     26 C           5.1343   -1.8602   20.1405 C.ar    1  UNL1        0.1544
     27 C           5.1463   -1.8746   21.6404 C.3     1  UNL1        0.0754
     28 C           4.1469   -1.1367   19.2736 C.ar    1  UNL1        0.0496
     29 C          -3.8945    4.7165   22.6388 C.3     1  UNL1        0.1744
     30 C          -3.9379    6.1827   22.3251 C.2     1  UNL1        0.0816
     31 O          -4.4244    6.6489   20.9850 O.co2   1  UNL1       -0.5464
     32 O          -3.4947    7.1828   23.3516 O.co2   1  UNL1       -0.5464
     33 O          -4.9999    4.0866   23.4333 O.3     1  UNL1       -0.3510
     34 C          -6.3088    4.8011   23.5949 C.3     1  UNL1        0.0938
     35 C          -6.7256    4.3469   22.2274 C.3     1  UNL1        0.0297
     36 C          -5.8920    5.2554   24.9623 C.3     1  UNL1        0.0297
     37 C          -7.6177    5.5158   23.7565 C.3     1  UNL1        0.0297
@<TRIPOS>UNITY_ATOM_ATTR
31 1
charge -1
@<TRIPOS>BOND
     1    22    23    1
     2    23    24   ar
     3    24    25   ar
     4    25    26   ar
     5    26    27    1
     6    26    28   ar
     7    28    16    1
     8    16    17   ar
     9    17    18   ar
    10    18    19   ar
    11    19     1    1
    12     1     2   ar
    13     2     3   ar
    14     3     4    1
    15     3     5   ar
    16     5    29    1
    17    29    33    1
    18    33    34    1
    19    34    35    1
    20    34    36    1
    21    34    37    1
    22    29    30    1
    23    30    31   ar
    24    30    32   ar
    25     5     6   ar
    26     6     9    1
    27     9    10   ar
    28    10    11   ar
    29    11    12   ar
    30    12    13    1
    31    12    14   ar
    32    14    15   ar
    33     6     7   ar
    34     7     8    1
    35    19    20   ar
    36    20    21   ar
    37    28    23   ar
    38    21    16   ar
    39     7     1   ar
    40    15     9   ar
@<TRIPOS>MOLECULE
*****
 37 40 0 0 0
SMALL
GASTEIGER

@<TRIPOS>ATOM
      1 C           0.1659    1.8793   22.3205 C.ar    1  UNL1        0.0769
      2 N           0.1082    1.8785   23.8193 N.ar    1  UNL1       -0.2502
      3 C          -0.8609    2.7739   24.5331 C.ar    1  UNL1        0.0579
      4 C          -0.9185    2.7732   26.0319 C.3     1  UNL1        0.0518
      5 C          -1.7722    3.6700   23.7479 C.ar    1  UNL1        0.0232
      6 C          -1.7145    3.6707   22.2489 C.ar    1  UNL1       -0.0027
      7 C          -0.7455    2.7753   21.5353 C.ar    1  UNL1       -0.0044
      8 C          -0.6877    2.7760   20.0363 C.3     1  UNL1        0.0326
      9 C          -2.6258    4.5668   21.4637 C.ar    1  UNL1       -0.0004
     10 C          -4.0158    4.1139   21.1274 C.ar    1  UNL1        0.0008
     11 C          -4.9271    5.0100   20.3422 C.ar    1  UNL1        0.0114
     12 C          -4.4484    6.3589   19.8933 C.ar    1  UNL1        0.0577
     13 CL         -5.3597    7.2550   19.1081 Cl      1  UNL1       -0.0822
     14 C          -3.0585    6.8116   20.2296 C.ar    1  UNL1        0.0114
     15 C          -2.1472    5.9156   21.0148 C.ar    1  UNL1        0.0008
     16 C           3.0729   -0.8067   20.1794 C.ar    1  UNL1        0.0039
     17 C           3.5797    0.3161   21.0351 C.ar    1  UNL1        0.0002
     18 C           2.6107    1.2114   21.7488 C.ar    1  UNL1        0.0015
     19 C           1.1349    0.9839   21.6067 C.ar    1  UNL1        0.0173
     20 C           0.6281   -0.1390   20.7510 C.ar    1  UNL1        0.0015
     21 C           1.5971   -1.0343   20.0374 C.ar    1  UNL1        0.0002
     22 C           4.0316   -0.5078   17.0743 C.3     1  UNL1        0.0556
     23 C           4.4826   -1.5647   18.0385 C.ar    1  UNL1        0.1006
     24 N           5.4534   -2.6697   17.7446 N.ar    1  UNL1       -0.0817
     25 O           5.6128   -3.4902   18.9903 O.2     1  UNL1       -0.3581
     26 C           4.7405   -2.8921   20.0539 C.ar    1  UNL1        0.1544
     27 C           4.5926   -3.3957   21.4591 C.3     1  UNL1        0.0754
     28 C           4.0420   -1.7021   19.4657 C.ar    1  UNL1        0.0496
     29 C          -2.7412    4.5653   24.4615 C.3     1  UNL1        0.1744
     30 C          -2.3243    5.9470   24.8704 C.2     1  UNL1        0.0816
     31 O          -2.8444    7.1392   24.1233 O.co2   1  UNL1       -0.5464
     32 O          -1.3873    6.1365   26.0264 O.co2   1  UNL1       -0.5464
     33 O          -4.1270    4.0790   24.7663 O.3     1  UNL1       -0.3510
     34 C          -4.9958    4.8409   25.7228 C.3     1  UNL1        0.0938
     35 C          -4.2573    4.2326   26.8780 C.3     1  UNL1        0.0297
     36 C          -5.7343    5.4491   24.5675 C.3     1  UNL1        0.0297
     37 C          -5.8646    5.6027   26.6792 C.3     1  UNL1        0.0297
@<TRIPOS>UNITY_ATOM_ATTR
31 1
charge -1
@<TRIPOS>BOND
     1    22    23    1
     2    23    24   ar
     3    24    25   ar
     4    25    26   ar
     5    26    27    1
     6    26    28   ar
     7    28    16    1
     8    16    17   ar
     9    17    18   ar
    10    18    19   ar
    11    19     1    1
    12     1     2   ar
    13     2     3   ar
    14     3     4    1
    15     3     5   ar
    16     5    29    1
    17    29    33    1
    18    33    34    1
    19    34    35    1
    20    34    36    1
    21    34    37    1
    22    29    30    1
    23    30    31   ar
    24    30    32   ar
    25     5     6   ar
    26     6     9    1
    27     9    10   ar
    28    10    11   ar
    29    11    12   ar
    30    12    13    1
    31    12    14   ar
    32    14    15   ar
    33     6     7   ar
    34     7     8    1
    35    19    20   ar
    36    20    21   ar
    37    28    23   ar
    38    21    16   ar
    39     7     1   ar
    40    15     9   ar
@<TRIPOS>MOLECULE
*****
 37 40 0 0 0
SMALL
GASTEIGER

@<TRIPOS>ATOM
      1 C           0.7379    1.6507   22.6337 C.ar    1  UNL1        0.0769
      2 N          -0.2531    2.5830   22.0022 N.ar    1  UNL1       -0.2502
      3 C          -1.1452    3.4258   22.8647 C.ar    1  UNL1        0.0579
      4 C          -2.1362    4.3580   22.2332 C.3     1  UNL1        0.0518
      5 C          -1.0463    3.3363   24.3588 C.ar    1  UNL1        0.0232
      6 C          -0.0552    2.4039   24.9903 C.ar    1  UNL1       -0.0027
      7 C           0.8368    1.5612   24.1277 C.ar    1  UNL1       -0.0044
      8 C           1.8279    0.6289   24.7592 C.3     1  UNL1        0.0326
      9 C           0.0437    2.3144   26.4843 C.ar    1  UNL1       -0.0004
     10 C          -0.7353    1.2690   27.2263 C.ar    1  UNL1        0.0008
     11 C          -0.6363    1.1795   28.7203 C.ar    1  UNL1        0.0114
     12 C           0.2416    2.1354   29.4724 C.ar    1  UNL1        0.0577
     13 CL          0.3405    2.0459   30.9665 Cl      1  UNL1       -0.0822
     14 C           1.0205    3.1807   28.7305 C.ar    1  UNL1        0.0114
     15 C           0.9216    3.2702   27.2365 C.ar    1  UNL1        0.0008
     16 C           3.4142   -0.8775   20.0462 C.ar    1  UNL1        0.0039
     17 C           4.0053    0.1890   20.9197 C.ar    1  UNL1        0.0002
     18 C           3.1132    1.0317   21.7822 C.ar    1  UNL1        0.0015
     19 C           1.6300    0.8079   21.7711 C.ar    1  UNL1        0.0173
     20 C           1.0389   -0.2586   20.8976 C.ar    1  UNL1        0.0015
     21 C           1.9310   -1.1013   20.0351 C.ar    1  UNL1        0.0002
     22 C           4.2470   -3.9829   20.6056 C.3     1  UNL1        0.0556
     23 C           4.6891   -3.1476   19.4408 C.ar    1  UNL1        0.1006
     24 N           5.5916   -3.5931   18.3286 N.ar    1  UNL1       -0.0817
     25 O           5.7666   -2.4411   17.3840 O.2     1  UNL1       -0.3581
     26 C           4.9723   -1.2836   17.9124 C.ar    1  UNL1        0.1544
     27 C           4.8631    0.0725   17.2807 C.3     1  UNL1        0.0754
     28 C           4.3063   -1.7203   19.1836 C.ar    1  UNL1        0.0496
     29 C          -1.9383    4.1790   25.2213 C.3     1  UNL1        0.1744
     30 C          -3.3288    3.7156   25.5402 C.2     1  UNL1        0.0816
     31 O          -4.2452    3.2780   24.4362 O.co2   1  UNL1       -0.5464
     32 O          -3.8030    3.6897   26.9631 O.co2   1  UNL1       -0.5464
     33 O          -1.4398    5.4851   25.7650 O.3     1  UNL1       -0.3510
     34 C          -1.0763    6.5980   24.8274 C.3     1  UNL1        0.0938
     35 C           0.3741    6.2423   24.9675 C.3     1  UNL1        0.0297
     36 C          -2.5268    6.9537   24.6872 C.3     1  UNL1        0.0297
     37 C          -0.7128    7.7110   23.8897 C.3     1  UNL1        0.0297
@<TRIPOS>UNITY_ATOM_ATTR
31 1
charge -1
@<TRIPOS>BOND
     1    22    23    1
     2    23    24   ar
     3    24    25   ar
     4    25    26   ar
     5    26    27    1
     6    26    28   ar
     7    28    16    1
     8    16    17   ar
     9    17    18   ar
    10    18    19   ar
    11    19     1    1
    12     1     2   ar
    13     2     3   ar
    14     3     4    1
    15     3     5   ar
    16     5    29    1
    17    29    33    1
    18    33    34    1
    19    34    35    1
    20    34    36    1
    21    34    37    1
    22    29    30    1
    23    30    31   ar
    24    30    32   ar
    25     5     6   ar
    26     6     9    1
    27     9    10   ar
    28    10    11   ar
    29    11    12   ar
    30    12    13    1
    31    12    14   ar
    32    14    15   ar
    33     6     7   ar
    34     7     8    1
    35    19    20   ar
    36    20    21   ar
    37    28    23   ar
    38    21    16   ar
    39     7     1   ar
    40    15     9   ar
@<TRIPOS>MOLECULE
*****
 37 40 0 0 0
SMALL
GASTEIGER

@<TRIPOS>ATOM
      1 C           1.0921    1.0929   23.2543 C.ar    1  UNL1        0.0769
      2 N           0.7495    0.7446   21.8361 N.ar    1  UNL1       -0.2502
      3 C           1.6854   -0.1013   21.0245 C.ar    1  UNL1        0.0579
      4 C           1.3428   -0.4496   19.6063 C.3     1  UNL1        0.0518
      5 C           2.9638   -0.5989   21.6311 C.ar    1  UNL1        0.0232
      6 C           3.3063   -0.2506   23.0494 C.ar    1  UNL1       -0.0027
      7 C           2.3705    0.5953   23.8609 C.ar    1  UNL1       -0.0044
      8 C           2.7130    0.9436   25.2792 C.3     1  UNL1        0.0326
      9 C           4.5847   -0.7483   23.6561 C.ar    1  UNL1       -0.0004
     10 C           5.8156    0.1084   23.6194 C.ar    1  UNL1        0.0008
     11 C           7.0940   -0.3893   24.2261 C.ar    1  UNL1        0.0114
     12 C           7.1415   -1.7435   24.8695 C.ar    1  UNL1        0.0577
     13 CL          8.4199   -2.2412   25.4761 Cl      1  UNL1       -0.0822
     14 C           5.9107   -2.6001   24.9061 C.ar    1  UNL1        0.0114
     15 C           4.6323   -2.1024   24.2994 C.ar    1  UNL1        0.0008
     16 C          -1.7154    3.6307   25.6889 C.ar    1  UNL1        0.0039
     17 C          -1.3005    4.0753   24.3177 C.ar    1  UNL1        0.0002
     18 C          -0.3647    3.2294   23.5062 C.ar    1  UNL1        0.0015
     19 C           0.1562    1.9388   24.0659 C.ar    1  UNL1        0.0173
     20 C          -0.2587    1.4942   25.4370 C.ar    1  UNL1        0.0015
     21 C          -1.1945    2.3402   26.2485 C.ar    1  UNL1        0.0002
     22 C          -4.9640    3.7233   25.3919 C.3     1  UNL1        0.0556
     23 C          -4.1444    4.5192   26.3640 C.ar    1  UNL1        0.1006
     24 N          -4.6742    5.4974   27.3702 N.ar    1  UNL1       -0.0817
     25 O          -3.5084    6.0594   28.1286 O.2     1  UNL1       -0.3581
     26 C          -2.2582    5.4285   27.5911 C.ar    1  UNL1        0.1544
     27 C          -0.8604    5.7016   28.0616 C.3     1  UNL1        0.0754
     28 C          -2.6513    4.4766   26.5005 C.ar    1  UNL1        0.0496
     29 C           3.8996   -1.4448   20.8196 C.3     1  UNL1        0.1744
     30 C           4.8554   -0.7981   19.8615 C.2     1  UNL1        0.0816
     31 O           4.4362   -0.5375   18.4450 O.co2   1  UNL1       -0.5464
     32 O           6.2305   -0.4118   20.3198 O.co2   1  UNL1       -0.5464
     33 O           3.8797   -2.9375   20.9663 O.3     1  UNL1       -0.3510
     34 C           4.4096   -3.8065   19.8645 C.3     1  UNL1        0.0938
     35 C           3.0931   -3.7067   19.1526 C.3     1  UNL1        0.0297
     36 C           5.7261   -3.9064   20.5764 C.3     1  UNL1        0.0297
     37 C           4.9396   -4.6756   18.7626 C.3     1  UNL1        0.0297
@<TRIPOS>UNITY_ATOM_ATTR
31 1
charge -1
@<TRIPOS>BOND
     1    22    23    1
     2    23    24   ar
     3    24    25   ar
     4    25    26   ar
     5    26    27    1
     6    26    28   ar
     7    28    16    1
     8    16    17   ar
     9    17    18   ar
    10    18    19   ar
    11    19     1    1
    12     1     2   ar
    13     2     3   ar
    14     3     4    1
    15     3     5   ar
    16     5    29    1
    17    29    33    1
    18    33    34    1
    19    34    35    1
    20    34    36    1
    21    34    37    1
    22    29    30    1
    23    30    31   ar
    24    30    32   ar
    25     5     6   ar
    26     6     9    1
    27     9    10   ar
    28    10    11   ar
    29    11    12   ar
    30    12    13    1
    31    12    14   ar
    32    14    15   ar
    33     6     7   ar
    34     7     8    1
    35    19    20   ar
    36    20    21   ar
    37    28    23   ar
    38    21    16   ar
    39     7     1   ar
    40    15     9   ar
@<TRIPOS>MOLECULE
*****
 37 40 0 0 0
SMALL
GASTEIGER

@<TRIPOS>ATOM
      1 C           3.6860    0.0655   24.8618 C.ar    1  UNL1        0.0769
      2 N           4.3211   -0.5746   26.0605 N.ar    1  UNL1       -0.2502
      3 C           3.8122   -0.2609   27.4363 C.ar    1  UNL1        0.0579
      4 C           4.4473   -0.9010   28.6349 C.3     1  UNL1        0.0518
      5 C           2.6682    0.6931   27.6133 C.ar    1  UNL1        0.0232
      6 C           2.0331    1.3332   26.4145 C.ar    1  UNL1       -0.0027
      7 C           2.5420    1.0194   25.0389 C.ar    1  UNL1       -0.0044
      8 C           1.9069    1.6596   23.8401 C.3     1  UNL1        0.0326
      9 C           0.8891    2.2871   26.5915 C.ar    1  UNL1       -0.0004
     10 C          -0.5189    1.7710   26.6293 C.ar    1  UNL1        0.0008
     11 C          -1.6629    2.7249   26.8063 C.ar    1  UNL1        0.0114
     12 C          -1.3989    4.1950   26.9456 C.ar    1  UNL1        0.0577
     13 CL         -2.5429    5.1489   27.1226 Cl      1  UNL1       -0.0822
     14 C           0.0090    4.7110   26.9078 C.ar    1  UNL1        0.0114
     15 C           1.1530    3.7571   26.7308 C.ar    1  UNL1        0.0008
     16 C           5.2125   -0.8758   20.7347 C.ar    1  UNL1        0.0039
     17 C           4.0732   -1.6633   21.3106 C.ar    1  UNL1        0.0002
     18 C           3.5643   -1.3495   22.6863 C.ar    1  UNL1        0.0015
     19 C           4.1949   -0.2482   23.4861 C.ar    1  UNL1        0.0173
     20 C           5.3342    0.5393   22.9102 C.ar    1  UNL1        0.0015
     21 C           5.8431    0.2255   21.5345 C.ar    1  UNL1        0.0002
     22 C           7.3777   -3.1956   19.9731 C.3     1  UNL1        0.0556
     23 C           6.7166   -2.2558   19.0089 C.ar    1  UNL1        0.1006
     24 N           6.9347   -2.2174   17.5253 N.ar    1  UNL1       -0.0817
     25 O           6.0742   -1.1272   16.9584 O.2     1  UNL1       -0.3581
     26 C           5.3244   -0.4920   18.0917 C.ar    1  UNL1        0.1544
     27 C           4.3489    0.6417   17.9777 C.3     1  UNL1        0.0754
     28 C           5.7214   -1.1895   19.3589 C.ar    1  UNL1        0.0496
     29 C           2.1593    1.0068   28.9890 C.3     1  UNL1        0.1744
     30 C           1.3431   -0.0061   29.7358 C.2     1  UNL1        0.0816
     31 O          -0.1165   -0.1664   29.4295 O.co2   1  UNL1       -0.5464
     32 O           1.9865   -0.8588   30.7889 O.co2   1  UNL1       -0.5464
     33 O           2.4666    2.3335   29.6178 O.3     1  UNL1       -0.3510
     34 C           1.8854    2.6818   30.9560 C.3     1  UNL1        0.0938
     35 C           0.6192    3.1313   30.2892 C.3     1  UNL1        0.0297
     36 C           3.1515    2.2323   31.6229 C.3     1  UNL1        0.0297
     37 C           1.3042    3.0301   32.2943 C.3     1  UNL1        0.0297
@<TRIPOS>UNITY_ATOM_ATTR
31 1
charge -1
@<TRIPOS>BOND
     1    22    23    1
     2    23    24   ar
     3    24    25   ar
     4    25    26   ar
     5    26    27    1
     6    26    28   ar
     7    28    16    1
     8    16    17   ar
     9    17    18   ar
    10    18    19   ar
    11    19     1    1
    12     1     2   ar
    13     2     3   ar
    14     3     4    1
    15     3     5   ar
    16     5    29    1
    17    29    33    1
    18    33    34    1
    19    34    35    1
    20    34    36    1
    21    34    37    1
    22    29    30    1
    23    30    31   ar
    24    30    32   ar
    25     5     6   ar
    26     6     9    1
    27     9    10   ar
    28    10    11   ar
    29    11    12   ar
    30    12    13    1
    31    12    14   ar
    32    14    15   ar
    33     6     7   ar
    34     7     8    1
    35    19    20   ar
    36    20    21   ar
    37    28    23   ar
    38    21    16   ar
    39     7     1   ar
    40    15     9   ar
@<TRIPOS>MOLECULE
*****
 37 40 0 0 0
SMALL
GASTEIGER

@<TRIPOS>ATOM
      1 C          -0.0617    2.8089   18.6977 C.ar    1  UNL1        0.0769
      2 N          -0.5686    3.4553   17.4427 N.ar    1  UNL1       -0.2502
      3 C          -1.8696    4.2020   17.4563 C.ar    1  UNL1        0.0579
      4 C          -2.3765    4.8484   16.2013 C.3     1  UNL1        0.0518
      5 C          -2.6634    4.3023   18.7251 C.ar    1  UNL1        0.0232
      6 C          -2.1564    3.6559   19.9801 C.ar    1  UNL1       -0.0027
      7 C          -0.8556    2.9092   19.9664 C.ar    1  UNL1       -0.0044
      8 C          -0.3485    2.2628   21.2215 C.3     1  UNL1        0.0326
      9 C          -2.9503    3.7562   21.2489 C.ar    1  UNL1       -0.0004
     10 C          -2.4945    4.6688   22.3486 C.ar    1  UNL1        0.0008
     11 C          -3.2884    4.7691   23.6174 C.ar    1  UNL1        0.0114
     12 C          -4.5381    3.9567   23.7863 C.ar    1  UNL1        0.0577
     13 CL         -5.3319    4.0570   25.0551 Cl      1  UNL1       -0.0822
     14 C          -4.9938    3.0442   22.6866 C.ar    1  UNL1        0.0114
     15 C          -4.1999    2.9439   21.4179 C.ar    1  UNL1        0.0008
     16 C           3.8410    0.5689   18.6567 C.ar    1  UNL1        0.0039
     17 C           3.8167    2.0269   19.0084 C.ar    1  UNL1        0.0002
     18 C           2.5159    2.7735   19.0221 C.ar    1  UNL1        0.0015
     19 C           1.2392    2.0622   18.6840 C.ar    1  UNL1        0.0173
     20 C           1.2635    0.6042   18.3323 C.ar    1  UNL1        0.0015
     21 C           2.5644   -0.1424   18.3187 C.ar    1  UNL1        0.0002
     22 C           6.2180    0.8970   16.4449 C.3     1  UNL1        0.0556
     23 C           6.2345   -0.0270   17.6265 C.ar    1  UNL1        0.1006
     24 N           7.3464   -0.9624   17.9987 N.ar    1  UNL1       -0.0817
     25 O           6.9411   -1.6913   19.2455 O.2     1  UNL1       -0.3581
     26 C           5.5786   -1.2064   19.6437 C.ar    1  UNL1        0.1544
     27 C           4.7911   -1.6689   20.8336 C.3     1  UNL1        0.0754
     28 C           5.1419   -0.1778   18.6431 C.ar    1  UNL1        0.0496
     29 C          -3.9643    5.0489   18.7388 C.3     1  UNL1        0.1744
     30 C          -3.9917    6.5009   19.1141 C.2     1  UNL1        0.0816
     31 O          -4.3994    6.9102   20.4984 O.co2   1  UNL1       -0.5464
     32 O          -3.6113    7.5438   18.1052 O.co2   1  UNL1       -0.5464
     33 O          -5.2378    4.3436   18.3771 O.3     1  UNL1       -0.3510
     34 C          -6.5101    5.1235   18.2257 C.3     1  UNL1        0.0938
     35 C          -6.8927    4.7724   19.6330 C.3     1  UNL1        0.0297
     36 C          -6.1275    5.4745   16.8185 C.3     1  UNL1        0.0297
     37 C          -7.7825    5.9033   18.0743 C.3     1  UNL1        0.0297
@<TRIPOS>UNITY_ATOM_ATTR
31 1
charge -1
@<TRIPOS>BOND
     1    22    23    1
     2    23    24   ar
     3    24    25   ar
     4    25    26   ar
     5    26    27    1
     6    26    28   ar
     7    28    16    1
     8    16    17   ar
     9    17    18   ar
    10    18    19   ar
    11    19     1    1
    12     1     2   ar
    13     2     3   ar
    14     3     4    1
    15     3     5   ar
    16     5    29    1
    17    29    33    1
    18    33    34    1
    19    34    35    1
    20    34    36    1
    21    34    37    1
    22    29    30    1
    23    30    31   ar
    24    30    32   ar
    25     5     6   ar
    26     6     9    1
    27     9    10   ar
    28    10    11   ar
    29    11    12   ar
    30    12    13    1
    31    12    14   ar
    32    14    15   ar
    33     6     7   ar
    34     7     8    1
    35    19    20   ar
    36    20    21   ar
    37    28    23   ar
    38    21    16   ar
    39     7     1   ar
    40    15     9   ar
@<TRIPOS>MOLECULE
*****
 37 40 0 0 0
SMALL
GASTEIGER

@<TRIPOS>ATOM
      1 C           3.0066    0.3249   24.6039 C.ar    1  UNL1        0.0769
      2 N           3.4136   -0.3780   25.8649 N.ar    1  UNL1       -0.2502
      3 C           2.7643   -0.0165   27.1680 C.ar    1  UNL1        0.0579
      4 C           3.1713   -0.7194   28.4291 C.3     1  UNL1        0.0518
      5 C           1.7081    1.0478   27.2099 C.ar    1  UNL1        0.0232
      6 C           1.3012    1.7506   25.9488 C.ar    1  UNL1       -0.0027
      7 C           1.9504    1.3892   24.6458 C.ar    1  UNL1       -0.0044
      8 C           1.5434    2.0920   23.3846 C.3     1  UNL1        0.0326
      9 C           0.2450    2.8149   25.9907 C.ar    1  UNL1       -0.0004
     10 C           0.6331    4.2489   26.1987 C.ar    1  UNL1        0.0008
     11 C          -0.4231    5.3132   26.2406 C.ar    1  UNL1        0.0114
     12 C          -1.8674    4.9435   26.0745 C.ar    1  UNL1        0.0577
     13 CL         -2.9236    6.0078   26.1164 Cl      1  UNL1       -0.0822
     14 C          -2.2554    3.5096   25.8665 C.ar    1  UNL1        0.0114
     15 C          -1.1992    2.4453   25.8246 C.ar    1  UNL1        0.0008
     16 C           4.9543   -0.7593   20.6948 C.ar    1  UNL1        0.0039
     17 C           5.6049    0.2394   21.6053 C.ar    1  UNL1        0.0002
     18 C           4.9557    0.6008   22.9083 C.ar    1  UNL1        0.0015
     19 C           3.6558   -0.0366   23.3008 C.ar    1  UNL1        0.0173
     20 C           3.0052   -1.0353   22.3903 C.ar    1  UNL1        0.0015
     21 C           3.6544   -1.3967   21.0873 C.ar    1  UNL1        0.0002
     22 C           4.9315    1.0440   17.9750 C.3     1  UNL1        0.0556
     23 C           5.5930   -0.2919   18.1416 C.ar    1  UNL1        0.1006
     24 N           6.3602   -1.0334   17.0873 N.ar    1  UNL1       -0.0817
     25 O           6.8449   -2.3206   17.6858 O.2     1  UNL1       -0.3581
     26 C           6.3772   -2.3746   19.1100 C.ar    1  UNL1        0.1544
     27 C           6.6375   -3.4871   20.0819 C.3     1  UNL1        0.0754
     28 C           5.6035   -1.1208   19.3917 C.ar    1  UNL1        0.0496
     29 C           1.0589    1.4092   28.5129 C.3     1  UNL1        0.1744
     30 C          -0.1030    0.6073   29.0197 C.2     1  UNL1        0.0816
     31 O          -0.6484    0.8630   30.3935 O.co2   1  UNL1       -0.5464
     32 O          -0.7196   -0.4502   28.1528 O.co2   1  UNL1       -0.5464
     33 O           1.5716    2.5725   29.3091 O.3     1  UNL1       -0.3510
     34 C           3.0012    2.5994   29.7622 C.3     1  UNL1        0.0938
     35 C           3.3520    3.4845   28.6030 C.3     1  UNL1        0.0297
     36 C           2.6505    1.7144   30.9213 C.3     1  UNL1        0.0297
     37 C           4.4310    2.6263   30.2153 C.3     1  UNL1        0.0297
@<TRIPOS>UNITY_ATOM_ATTR
31 1
charge -1
@<TRIPOS>BOND
     1    22    23    1
     2    23    24   ar
     3    24    25   ar
     4    25    26   ar
     5    26    27    1
     6    26    28   ar
     7    28    16    1
     8    16    17   ar
     9    17    18   ar
    10    18    19   ar
    11    19     1    1
    12     1     2   ar
    13     2     3   ar
    14     3     4    1
    15     3     5   ar
    16     5    29    1
    17    29    33    1
    18    33    34    1
    19    34    35    1
    20    34    36    1
    21    34    37    1
    22    29    30    1
    23    30    31   ar
    24    30    32   ar
    25     5     6   ar
    26     6     9    1
    27     9    10   ar
    28    10    11   ar
    29    11    12   ar
    30    12    13    1
    31    12    14   ar
    32    14    15   ar
    33     6     7   ar
    34     7     8    1
    35    19    20   ar
    36    20    21   ar
    37    28    23   ar
    38    21    16   ar
    39     7     1   ar
    40    15     9   ar
