@<TRIPOS>MOLECULE
*****
 38 41 0 0 0
SMALL
GASTEIGER

@<TRIPOS>ATOM
      1 C           0.3795    2.0104   22.8157 C.ar    1  UNL1        0.0611
      2 C          -0.2765    2.8706   23.8547 C.ar    1  UNL1        0.1037
      3 N           0.2980    2.5032   25.1907 N.ar    1  UNL1       -0.2269
      4 C           1.3091    1.4159   24.9774 C.ar    1  UNL1        0.1407
      5 N           2.1904    0.6639   25.9301 N.ar    1  UNL1       -0.3374
      6 C           3.1220   -0.3928   25.4149 C.ar    1  UNL1        0.0735
      7 C           3.1724   -0.6974   23.9470 C.ar    1  UNL1        0.0187
      8 C           2.2911    0.0546   22.9943 C.ar    1  UNL1        0.0047
      9 C           1.3594    1.1113   23.5095 C.ar    1  UNL1        0.0386
     10 H           2.1574    0.8638   26.8935 H       1  UNL1        0.1674
     11 C           4.1041   -1.7542   23.4318 C.ar    1  UNL1        0.0219
     12 C           5.1930   -2.2887   24.3140 C.ar    1  UNL1        0.0990
     13 N           6.1247   -3.3455   23.7988 N.ar    1  UNL1       -0.2410
     14 C           5.9674   -3.8676   22.4014 C.ar    1  UNL1        0.1171
     15 C           4.8783   -3.3329   21.5192 C.ar    1  UNL1        0.1248
     16 C           3.9467   -2.2762   22.0344 C.ar    1  UNL1        0.0215
     17 S           4.7210   -3.8550   20.1218 S.O2    1  UNL1        0.0119
     18 C           4.5636   -4.3771   18.7245 C.3     1  UNL1        0.1816
     19 O           3.4482   -3.0751   19.9738 O.2     1  UNL1       -0.1685
     20 O           5.9937   -4.6348   20.2699 O.2     1  UNL1       -0.1685
     21 C           0.1039    2.0433   21.3416 C.2     1  UNL1        0.2015
     22 O          -1.3107    2.0413   20.8428 O.2     1  UNL1       -0.2864
     23 C           2.8247    0.8525   18.7092 C.ar    1  UNL1        0.0920
     24 C           3.5211    2.1482   18.4156 C.ar    1  UNL1        0.0204
     25 C           3.0784    3.4089   19.0972 C.ar    1  UNL1        0.0312
     26 C           1.9394    3.3740   20.0725 C.ar    1  UNL1        0.1454
     27 F           1.4967    4.6347   20.7542 F       1  UNL1       -0.2040
     28 C           1.2430    2.0783   20.3662 C.ar    1  UNL1        0.0951
     29 C           1.6857    0.8176   19.6846 C.ar    1  UNL1        0.1598
     30 F           0.9893   -0.4780   19.9783 F       1  UNL1       -0.2026
     31 N           3.2674   -0.4081   18.0276 N.pl3   1  UNL1       -0.2166
     32 H           2.6026   -1.0844   17.7633 H       1  UNL1        0.1734
     33 S           4.7231   -0.6384   17.7485 S.O2    1  UNL1        0.0540
     34 O           4.4141   -0.8286   16.2931 O.2     1  UNL1       -0.1545
     35 O           5.0322   -0.4483   19.2040 O.2     1  UNL1       -0.1545
     36 C           6.1788   -0.8687   17.4696 C.3     1  UNL1        0.1724
     37 C           8.0107   -2.1809   18.7629 C.3     1  UNL1        0.0019
     38 C           7.1549   -0.9592   18.6050 C.3     1  UNL1        0.0273
@<TRIPOS>BOND
     1    37    38    1
     2    38    36    1
     3    36    33    1
     4    33    34    2
     5    33    35    2
     6    33    31    1
     7    31    23    1
     8    23    24   ar
     9    24    25   ar
    10    25    26   ar
    11    26    27    1
    12    26    28   ar
    13    28    21    1
    14    21    22    2
    15    21     1    1
    16     1     2   ar
    17     2     3   ar
    18     3     4   ar
    19     4     5   ar
    20     5     6   ar
    21     6     7   ar
    22     7    11    1
    23    11    12   ar
    24    12    13   ar
    25    13    14   ar
    26    14    15   ar
    27    15    17    1
    28    17    18    1
    29    17    19    2
    30    17    20    2
    31    15    16   ar
    32     7     8   ar
    33     8     9   ar
    34    28    29   ar
    35    29    30    1
    36    29    23   ar
    37     9     1   ar
    38     9     4    1
    39    16    11   ar
    40    31    32    1
    41     5    10    1
@<TRIPOS>MOLECULE
*****
 38 41 0 0 0
SMALL
GASTEIGER

@<TRIPOS>ATOM
      1 C           7.0443   -3.7355   22.2285 C.ar    1  UNL1        0.0611
      2 C           7.1528   -4.2323   20.8173 C.ar    1  UNL1        0.1037
      3 N           5.9765   -3.7065   20.0492 N.ar    1  UNL1       -0.2269
      4 C           5.1411   -2.8848   20.9856 C.ar    1  UNL1        0.1407
      5 N           3.8648   -2.1226   20.7859 N.ar    1  UNL1       -0.3374
      6 C           3.2484   -1.3783   21.9331 C.ar    1  UNL1        0.0735
      7 C           3.9084   -1.3963   23.2800 C.ar    1  UNL1        0.0187
      8 C           5.1847   -2.1585   23.4797 C.ar    1  UNL1        0.0047
      9 C           5.8011   -2.9027   22.3325 C.ar    1  UNL1        0.0386
     10 H           3.4317   -2.1108   19.9019 H       1  UNL1        0.1674
     11 C           3.2919   -0.6519   24.4272 C.ar    1  UNL1        0.0219
     12 C           2.2021    0.3471   24.1741 C.ar    1  UNL1        0.0990
     13 N           1.5856    1.0914   25.3213 N.ar    1  UNL1       -0.2410
     14 C           2.0591    0.8366   26.7216 C.ar    1  UNL1        0.1171
     15 C           3.1490   -0.1624   26.9747 C.ar    1  UNL1        0.1248
     16 C           3.7654   -0.9067   25.8276 C.ar    1  UNL1        0.0215
     17 S           3.6224   -0.4172   28.3751 S.O2    1  UNL1        0.0119
     18 C           4.0959   -0.6719   29.7754 C.3     1  UNL1        0.1816
     19 O           4.9723    0.1312   28.0185 O.2     1  UNL1       -0.1685
     20 O           2.2726   -0.9656   28.7317 O.2     1  UNL1       -0.1685
     21 C           8.0097   -4.0214   23.3404 C.2     1  UNL1        0.2015
     22 O           9.2436   -3.1830   23.4965 O.2     1  UNL1       -0.2864
     23 C           6.7507   -6.0034   26.5400 C.ar    1  UNL1        0.0920
     24 C           7.2038   -7.3943   26.2082 C.ar    1  UNL1        0.0204
     25 C           7.9254   -7.6609   24.9205 C.ar    1  UNL1        0.0312
     26 C           8.1941   -6.5367   23.9646 C.ar    1  UNL1        0.1454
     27 F           8.9158   -6.8033   22.6769 F       1  UNL1       -0.2040
     28 C           7.7410   -5.1457   24.2964 C.ar    1  UNL1        0.0951
     29 C           7.0194   -4.8791   25.5840 C.ar    1  UNL1        0.1598
     30 F           6.5663   -3.4881   25.9157 F       1  UNL1       -0.2026
     31 N           6.0290   -5.7368   27.8276 N.pl3   1  UNL1       -0.2166
     32 H           5.0719   -5.9524   27.9093 H       1  UNL1        0.1734
     33 S           6.7657   -5.1416   28.9909 S.O2    1  UNL1        0.0540
     34 O           7.4959   -6.4364   29.1910 O.2     1  UNL1       -0.1545
     35 O           6.0354   -3.8467   28.7908 O.2     1  UNL1       -0.1545
     36 C           7.5022   -4.5463   30.1541 C.3     1  UNL1        0.1724
     37 C           6.5352   -3.3662   32.2571 C.3     1  UNL1        0.0019
     38 C           6.9152   -4.6233   31.5323 C.3     1  UNL1        0.0273
@<TRIPOS>BOND
     1    37    38    1
     2    38    36    1
     3    36    33    1
     4    33    34    2
     5    33    35    2
     6    33    31    1
     7    31    23    1
     8    23    24   ar
     9    24    25   ar
    10    25    26   ar
    11    26    27    1
    12    26    28   ar
    13    28    21    1
    14    21    22    2
    15    21     1    1
    16     1     2   ar
    17     2     3   ar
    18     3     4   ar
    19     4     5   ar
    20     5     6   ar
    21     6     7   ar
    22     7    11    1
    23    11    12   ar
    24    12    13   ar
    25    13    14   ar
    26    14    15   ar
    27    15    17    1
    28    17    18    1
    29    17    19    2
    30    17    20    2
    31    15    16   ar
    32     7     8   ar
    33     8     9   ar
    34    28    29   ar
    35    29    30    1
    36    29    23   ar
    37     9     1   ar
    38     9     4    1
    39    16    11   ar
    40    31    32    1
    41     5    10    1
@<TRIPOS>MOLECULE
*****
 38 41 0 0 0
SMALL
GASTEIGER

@<TRIPOS>ATOM
      1 C          -3.0546    4.3458   25.5699 C.ar    1  UNL1        0.0611
      2 C          -3.8140    4.3688   26.8632 C.ar    1  UNL1        0.1037
      3 N          -5.2755    4.2565   26.5447 N.ar    1  UNL1       -0.2269
      4 C          -5.4194    4.1641   25.0545 C.ar    1  UNL1        0.1407
      5 N          -6.6229    4.0369   24.1683 N.ar    1  UNL1       -0.3374
      6 C          -6.4538    3.9649   22.6796 C.ar    1  UNL1        0.0735
      7 C          -5.0812    4.0201   22.0771 C.ar    1  UNL1        0.0187
      8 C          -3.8777    4.1474   22.9633 C.ar    1  UNL1        0.0047
      9 C          -4.0468    4.2194   24.4520 C.ar    1  UNL1        0.0386
     10 H          -7.5237    4.0006   24.5638 H       1  UNL1        0.1674
     11 C          -4.9122    3.9481   20.5884 C.ar    1  UNL1        0.0219
     12 C          -6.1173    3.8501   19.7006 C.ar    1  UNL1        0.0990
     13 N          -5.9483    3.7781   18.2119 N.ar    1  UNL1       -0.2410
     14 C          -4.5741    3.8041   17.6110 C.ar    1  UNL1        0.1171
     15 C          -3.3690    3.9021   18.4988 C.ar    1  UNL1        0.1248
     16 C          -3.5381    3.9742   19.9875 C.ar    1  UNL1        0.0215
     17 S          -1.9949    3.9282   17.8979 S.O2    1  UNL1        0.0119
     18 C          -0.6208    3.9542   17.2970 C.3     1  UNL1        0.1816
     19 O          -1.4058    3.5669   19.2292 O.2     1  UNL1       -0.1685
     20 O          -2.5839    4.2894   16.5665 O.2     1  UNL1       -0.1685
     21 C          -1.5647    4.4339   25.4205 C.2     1  UNL1        0.2015
     22 O          -0.8365    5.6630   25.8774 O.2     1  UNL1       -0.2864
     23 C           0.3386    2.1901   22.7573 C.ar    1  UNL1        0.0920
     24 C           0.7206    1.0105   23.6016 C.ar    1  UNL1        0.0204
     25 C           0.3408    0.9722   25.0522 C.ar    1  UNL1        0.0312
     26 C          -0.4210    2.1132   25.6586 C.ar    1  UNL1        0.1454
     27 F          -0.8008    2.0749   27.1092 F       1  UNL1       -0.2040
     28 C          -0.8029    3.2927   24.8142 C.ar    1  UNL1        0.0951
     29 C          -0.4231    3.3311   23.3636 C.ar    1  UNL1        0.1598
     30 F          -0.8051    4.5107   22.5193 F       1  UNL1       -0.2026
     31 N           0.7184    2.2284   21.3067 N.pl3   1  UNL1       -0.2166
     32 H           0.6888    3.0794   20.8124 H       1  UNL1        0.1734
     33 S           1.1434    0.9703   20.6091 S.O2    1  UNL1        0.0540
     34 O           2.5778    1.3960   20.7153 O.2     1  UNL1       -0.1545
     35 O          -0.2910    0.5447   20.5030 O.2     1  UNL1       -0.1545
     36 C           1.5682   -0.2878   19.9116 C.3     1  UNL1        0.1724
     37 C           3.2008   -2.3012   19.7349 C.3     1  UNL1        0.0019
     38 C           2.6159   -1.1685   20.5254 C.3     1  UNL1        0.0273
@<TRIPOS>BOND
     1    37    38    1
     2    38    36    1
     3    36    33    1
     4    33    34    2
     5    33    35    2
     6    33    31    1
     7    31    23    1
     8    23    24   ar
     9    24    25   ar
    10    25    26   ar
    11    26    27    1
    12    26    28   ar
    13    28    21    1
    14    21    22    2
    15    21     1    1
    16     1     2   ar
    17     2     3   ar
    18     3     4   ar
    19     4     5   ar
    20     5     6   ar
    21     6     7   ar
    22     7    11    1
    23    11    12   ar
    24    12    13   ar
    25    13    14   ar
    26    14    15   ar
    27    15    17    1
    28    17    18    1
    29    17    19    2
    30    17    20    2
    31    15    16   ar
    32     7     8   ar
    33     8     9   ar
    34    28    29   ar
    35    29    30    1
    36    29    23   ar
    37     9     1   ar
    38     9     4    1
    39    16    11   ar
    40    31    32    1
    41     5    10    1
@<TRIPOS>MOLECULE
*****
 38 41 0 0 0
SMALL
GASTEIGER

@<TRIPOS>ATOM
      1 C           5.5494   -2.5142   19.3750 C.ar    1  UNL1        0.0611
      2 C           6.0882   -1.7089   18.2299 C.ar    1  UNL1        0.1037
      3 N           7.5822   -1.8425   18.2318 N.ar    1  UNL1       -0.2269
      4 C           7.9668   -2.7303   19.3780 C.ar    1  UNL1        0.1407
      5 N           9.2987   -3.2144   19.8696 N.ar    1  UNL1       -0.3374
      6 C           9.3742   -4.1136   21.0678 C.ar    1  UNL1        0.0735
      7 C           8.1179   -4.5287   21.7743 C.ar    1  UNL1        0.0187
      8 C           6.7860   -4.0447   21.2827 C.ar    1  UNL1        0.0047
      9 C           6.7105   -3.1455   20.0845 C.ar    1  UNL1        0.0386
     10 H          10.1233   -2.9419   19.4058 H       1  UNL1        0.1674
     11 C           8.1935   -5.4280   22.9726 C.ar    1  UNL1        0.0219
     12 C           8.9135   -6.7407   22.8809 C.ar    1  UNL1        0.0990
     13 N           8.9891   -7.6399   24.0792 N.ar    1  UNL1       -0.2410
     14 C           8.3446   -7.2264   25.3690 C.ar    1  UNL1        0.1171
     15 C           7.6246   -5.9137   25.4606 C.ar    1  UNL1        0.1248
     16 C           7.5490   -5.0145   24.2624 C.ar    1  UNL1        0.0215
     17 S           6.9801   -5.5002   26.7504 S.O2    1  UNL1        0.0119
     18 C           6.3356   -5.0867   28.0403 C.3     1  UNL1        0.1816
     19 O           7.4150   -6.7898   27.3811 O.2     1  UNL1       -0.1685
     20 O           6.5452   -4.2106   26.1197 O.2     1  UNL1       -0.1685
     21 C           4.1035   -2.6623   19.7455 C.2     1  UNL1        0.2015
     22 O           3.3455   -3.8893   19.3336 O.2     1  UNL1       -0.2864
     23 C           2.7574   -0.5298   22.8100 C.ar    1  UNL1        0.0920
     24 C           2.0395    0.5749   22.0930 C.ar    1  UNL1        0.0204
     25 C           2.0095    0.6006   20.5936 C.ar    1  UNL1        0.0312
     26 C           2.6975   -0.4784   19.8110 C.ar    1  UNL1        0.1454
     27 F           2.6675   -0.4527   18.3116 F       1  UNL1       -0.2040
     28 C           3.4154   -1.5831   20.5280 C.ar    1  UNL1        0.0951
     29 C           3.4454   -1.6088   22.0275 C.ar    1  UNL1        0.1598
     30 F           4.1634   -2.7137   22.7444 F       1  UNL1       -0.2026
     31 N           2.7874   -0.5555   24.3095 N.pl3   1  UNL1       -0.2166
     32 H           1.9535   -0.6856   24.8164 H       1  UNL1        0.1734
     33 S           4.0879   -0.3831   25.0367 S.O2    1  UNL1        0.0540
     34 O           4.2781    0.9520   24.3801 O.2     1  UNL1       -0.1545
     35 O           3.8978   -1.7183   25.6933 O.2     1  UNL1       -0.1545
     36 C           5.3884   -0.2108   25.7640 C.3     1  UNL1        0.1724
     37 C           6.8693   -1.3107   23.9343 C.3     1  UNL1        0.0019
     38 C           6.6840   -0.2832   25.0113 C.3     1  UNL1        0.0273
@<TRIPOS>BOND
     1    37    38    1
     2    38    36    1
     3    36    33    1
     4    33    34    2
     5    33    35    2
     6    33    31    1
     7    31    23    1
     8    23    24   ar
     9    24    25   ar
    10    25    26   ar
    11    26    27    1
    12    26    28   ar
    13    28    21    1
    14    21    22    2
    15    21     1    1
    16     1     2   ar
    17     2     3   ar
    18     3     4   ar
    19     4     5   ar
    20     5     6   ar
    21     6     7   ar
    22     7    11    1
    23    11    12   ar
    24    12    13   ar
    25    13    14   ar
    26    14    15   ar
    27    15    17    1
    28    17    18    1
    29    17    19    2
    30    17    20    2
    31    15    16   ar
    32     7     8   ar
    33     8     9   ar
    34    28    29   ar
    35    29    30    1
    36    29    23   ar
    37     9     1   ar
    38     9     4    1
    39    16    11   ar
    40    31    32    1
    41     5    10    1
@<TRIPOS>MOLECULE
*****
 38 41 0 0 0
SMALL
GASTEIGER

@<TRIPOS>ATOM
      1 C           5.0533   -3.4527   22.3664 C.ar    1  UNL1        0.0611
      2 C           6.1184   -4.1348   23.1728 C.ar    1  UNL1        0.1037
      3 N           6.1785   -3.4712   24.5167 N.ar    1  UNL1       -0.2269
      4 C           5.1507   -2.3790   24.5408 C.ar    1  UNL1        0.1407
      5 N           4.7581   -1.3935   25.6012 N.ar    1  UNL1       -0.3374
      6 C           3.6701   -0.3964   25.3326 C.ar    1  UNL1        0.0735
      7 C           2.9747   -0.3850   24.0036 C.ar    1  UNL1        0.0187
      8 C           3.3673   -1.3705   22.9432 C.ar    1  UNL1        0.0047
      9 C           4.4552   -2.3676   23.2118 C.ar    1  UNL1        0.0386
     10 H           5.2145   -1.4010   26.4735 H       1  UNL1        0.1674
     11 C           1.8867    0.6121   23.7350 C.ar    1  UNL1        0.0219
     12 C           1.6813    1.1425   22.3471 C.ar    1  UNL1        0.0990
     13 N           0.5933    2.1396   22.0785 N.ar    1  UNL1       -0.2410
     14 C          -0.2893    2.6063   23.1980 C.ar    1  UNL1        0.1171
     15 C          -0.0839    2.0759   24.5860 C.ar    1  UNL1        0.1248
     16 C           1.0041    1.0788   24.8545 C.ar    1  UNL1        0.0215
     17 S          -0.9665    2.5426   25.7054 S.O2    1  UNL1        0.0119
     18 C          -1.8491    3.0093   26.8249 C.3     1  UNL1        0.1816
     19 O          -1.5199    3.6196   24.8201 O.2     1  UNL1       -0.1685
     20 O          -0.4131    1.4656   26.5908 O.2     1  UNL1       -0.1685
     21 C           4.6561   -3.7955   20.9611 C.2     1  UNL1        0.2015
     22 O           3.9294   -5.0768   20.6785 O.2     1  UNL1       -0.2864
     23 C           4.2457   -1.0439   18.1308 C.ar    1  UNL1        0.0920
     24 C           5.6446   -0.9796   17.5930 C.ar    1  UNL1        0.0204
     25 C           6.7139   -1.8540   18.1779 C.ar    1  UNL1        0.0312
     26 C           6.3844   -2.7926   19.3006 C.ar    1  UNL1        0.1454
     27 F           7.4537   -3.6669   19.8855 F       1  UNL1       -0.2040
     28 C           4.9856   -2.8568   19.8384 C.ar    1  UNL1        0.0951
     29 C           3.9163   -1.9825   19.2535 C.ar    1  UNL1        0.1598
     30 F           2.5175   -2.0468   19.7914 F       1  UNL1       -0.2026
     31 N           3.1765   -0.1695   17.5459 N.pl3   1  UNL1       -0.2166
     32 H           2.7749   -0.3977   16.6765 H       1  UNL1        0.1734
     33 S           2.7190    1.0525   18.2857 S.O2    1  UNL1        0.0540
     34 O           4.1068    1.6168   18.2119 O.2     1  UNL1       -0.1545
     35 O           1.3311    0.4882   18.3596 O.2     1  UNL1       -0.1545
     36 C           2.2614    2.2745   19.0255 C.3     1  UNL1        0.1724
     37 C           1.9241    4.6871   18.1223 C.3     1  UNL1        0.0019
     38 C           1.4074    3.2947   18.3328 C.3     1  UNL1        0.0273
@<TRIPOS>BOND
     1    37    38    1
     2    38    36    1
     3    36    33    1
     4    33    34    2
     5    33    35    2
     6    33    31    1
     7    31    23    1
     8    23    24   ar
     9    24    25   ar
    10    25    26   ar
    11    26    27    1
    12    26    28   ar
    13    28    21    1
    14    21    22    2
    15    21     1    1
    16     1     2   ar
    17     2     3   ar
    18     3     4   ar
    19     4     5   ar
    20     5     6   ar
    21     6     7   ar
    22     7    11    1
    23    11    12   ar
    24    12    13   ar
    25    13    14   ar
    26    14    15   ar
    27    15    17    1
    28    17    18    1
    29    17    19    2
    30    17    20    2
    31    15    16   ar
    32     7     8   ar
    33     8     9   ar
    34    28    29   ar
    35    29    30    1
    36    29    23   ar
    37     9     1   ar
    38     9     4    1
    39    16    11   ar
    40    31    32    1
    41     5    10    1
@<TRIPOS>MOLECULE
*****
 38 41 0 0 0
SMALL
GASTEIGER

@<TRIPOS>ATOM
      1 C           5.2317   -3.5320   22.5731 C.ar    1  UNL1        0.0611
      2 C           6.3050   -4.2397   23.3458 C.ar    1  UNL1        0.1037
      3 N           6.3706   -3.6285   24.7141 N.ar    1  UNL1       -0.2269
      4 C           5.3379   -2.5431   24.7870 C.ar    1  UNL1        0.1407
      5 N           4.9475   -1.6014   25.8873 N.ar    1  UNL1       -0.3374
      6 C           3.8533   -0.6000   25.6644 C.ar    1  UNL1        0.0735
      7 C           3.1494   -0.5403   24.3412 C.ar    1  UNL1        0.0187
      8 C           3.5397   -1.4820   23.2409 C.ar    1  UNL1        0.0047
      9 C           4.6340   -2.4834   23.4638 C.ar    1  UNL1        0.0386
     10 H           5.4096   -1.6405   26.7558 H       1  UNL1        0.1674
     11 C           2.0551    0.4612   24.1183 C.ar    1  UNL1        0.0219
     12 C           1.4019    1.1317   25.2904 C.ar    1  UNL1        0.0990
     13 N           0.3076    2.1332   25.0675 N.ar    1  UNL1       -0.2410
     14 C          -0.1335    2.4641   23.6725 C.ar    1  UNL1        0.1171
     15 C           0.5198    1.7936   22.5004 C.ar    1  UNL1        0.1248
     16 C           1.6140    0.7922   22.7234 C.ar    1  UNL1        0.0215
     17 S           0.0787    2.1245   21.1055 S.O2    1  UNL1        0.0119
     18 C          -0.3624    2.4555   19.7105 C.3     1  UNL1        0.1816
     19 O           0.3715    3.5740   21.3568 O.2     1  UNL1       -0.1685
     20 O          -0.2141    0.6750   20.8542 O.2     1  UNL1       -0.1685
     21 C           4.8270   -3.8219   21.1581 C.2     1  UNL1        0.2015
     22 O           3.9113   -4.9719   20.8605 O.2     1  UNL1       -0.2864
     23 C           4.9204   -1.1587   18.2171 C.ar    1  UNL1        0.0920
     24 C           6.3605   -1.2411   17.8057 C.ar    1  UNL1        0.0204
     25 C           7.2895   -2.1837   18.5118 C.ar    1  UNL1        0.0312
     26 C           6.7784   -3.0439   19.6292 C.ar    1  UNL1        0.1454
     27 F           7.7073   -3.9865   20.3353 F       1  UNL1       -0.2040
     28 C           5.3382   -2.9616   20.0406 C.ar    1  UNL1        0.0951
     29 C           4.4093   -2.0190   19.3345 C.ar    1  UNL1        0.1598
     30 F           2.9691   -1.9367   19.7460 F       1  UNL1       -0.2026
     31 N           3.9914   -0.2162   17.5110 N.pl3   1  UNL1       -0.2166
     32 H           3.6321   -0.4507   16.6250 H       1  UNL1        0.1734
     33 S           3.6100    1.0838   18.1550 S.O2    1  UNL1        0.0540
     34 O           4.9761    1.6296   17.8624 O.2     1  UNL1       -0.1545
     35 O           2.2438    0.5379   18.4475 O.2     1  UNL1       -0.1545
     36 C           3.2284    2.3836   18.7990 C.3     1  UNL1        0.1724
     37 C           4.4611    1.6778   20.9744 C.3     1  UNL1        0.0019
     38 C           3.7217    2.7111   20.1772 C.3     1  UNL1        0.0273
@<TRIPOS>BOND
     1    37    38    1
     2    38    36    1
     3    36    33    1
     4    33    34    2
     5    33    35    2
     6    33    31    1
     7    31    23    1
     8    23    24   ar
     9    24    25   ar
    10    25    26   ar
    11    26    27    1
    12    26    28   ar
    13    28    21    1
    14    21    22    2
    15    21     1    1
    16     1     2   ar
    17     2     3   ar
    18     3     4   ar
    19     4     5   ar
    20     5     6   ar
    21     6     7   ar
    22     7    11    1
    23    11    12   ar
    24    12    13   ar
    25    13    14   ar
    26    14    15   ar
    27    15    17    1
    28    17    18    1
    29    17    19    2
    30    17    20    2
    31    15    16   ar
    32     7     8   ar
    33     8     9   ar
    34    28    29   ar
    35    29    30    1
    36    29    23   ar
    37     9     1   ar
    38     9     4    1
    39    16    11   ar
    40    31    32    1
    41     5    10    1
@<TRIPOS>MOLECULE
*****
 38 41 0 0 0
SMALL
GASTEIGER

@<TRIPOS>ATOM
      1 C         -13.4125   -1.5132   18.2629 C.ar    1  UNL1        0.0611
      2 C         -12.1308   -0.7484   18.4127 C.ar    1  UNL1        0.1037
      3 N         -11.0525   -1.7204   18.7902 N.ar    1  UNL1       -0.2269
      4 C         -11.6677   -3.0859   18.8737 C.ar    1  UNL1        0.1407
      5 N         -11.0883   -4.4293   19.2044 N.ar    1  UNL1       -0.3374
      6 C         -11.9673   -5.6446   19.2092 C.ar    1  UNL1        0.0735
      7 C         -13.4259   -5.5166   18.8833 C.ar    1  UNL1        0.0187
      8 C         -14.0054   -4.1732   18.5526 C.ar    1  UNL1        0.0047
      9 C         -13.1263   -2.9578   18.5479 C.ar    1  UNL1        0.0386
     10 H         -10.1310   -4.5133   19.4183 H       1  UNL1        0.1674
     11 C         -14.3050   -6.7320   18.8881 C.ar    1  UNL1        0.0219
     12 C         -13.7571   -8.0557   18.4435 C.ar    1  UNL1        0.0990
     13 N         -14.6362   -9.2711   18.4483 N.ar    1  UNL1       -0.2410
     14 C         -16.0632   -9.1628   18.8977 C.ar    1  UNL1        0.1171
     15 C         -16.6111   -7.8391   19.3423 C.ar    1  UNL1        0.1248
     16 C         -15.7320   -6.6237   19.3375 C.ar    1  UNL1        0.0215
     17 S         -18.0381   -7.7308   19.7917 S.O2    1  UNL1        0.0119
     18 C         -19.4651   -7.6225   20.2411 C.3     1  UNL1        0.1816
     19 O         -17.9766   -6.2410   19.6279 O.2     1  UNL1       -0.1685
     20 O         -18.0996   -9.2206   19.9554 O.2     1  UNL1       -0.1685
     21 C         -14.7462   -0.9349   17.8931 C.2     1  UNL1        0.2015
     22 O         -15.3792   -1.2888   16.5802 O.2     1  UNL1       -0.2864
     23 C         -15.8801    2.4043   19.7138 C.ar    1  UNL1        0.0920
     24 C         -16.8485    1.8622   20.7229 C.ar    1  UNL1        0.0204
     25 C         -17.1161    0.3877   20.7887 C.ar    1  UNL1        0.0312
     26 C         -16.4154   -0.5447   19.8455 C.ar    1  UNL1        0.1454
     27 F         -16.6830   -2.0191   19.9114 F       1  UNL1       -0.2040
     28 C         -15.4470   -0.0025   18.8364 C.ar    1  UNL1        0.0951
     29 C         -15.1794    1.4719   18.7706 C.ar    1  UNL1        0.1598
     30 F         -14.2109    2.0140   17.7614 F       1  UNL1       -0.2026
     31 N         -15.6124    3.8788   19.6479 N.pl3   1  UNL1       -0.2166
     32 H         -15.3543    4.2945   18.7936 H       1  UNL1        0.1734
     33 S         -15.7381    4.7197   20.8836 S.O2    1  UNL1        0.0540
     34 O         -17.1064    5.1540   20.4489 O.2     1  UNL1       -0.1545
     35 O         -14.3697    4.2854   21.3183 O.2     1  UNL1       -0.1545
     36 C         -15.8636    5.5607   22.1193 C.3     1  UNL1        0.1724
     37 C         -16.6976    3.8382   23.8765 C.3     1  UNL1        0.0019
     38 C         -15.7468    4.9260   23.4734 C.3     1  UNL1        0.0273
@<TRIPOS>BOND
     1    37    38    1
     2    38    36    1
     3    36    33    1
     4    33    34    2
     5    33    35    2
     6    33    31    1
     7    31    23    1
     8    23    24   ar
     9    24    25   ar
    10    25    26   ar
    11    26    27    1
    12    26    28   ar
    13    28    21    1
    14    21    22    2
    15    21     1    1
    16     1     2   ar
    17     2     3   ar
    18     3     4   ar
    19     4     5   ar
    20     5     6   ar
    21     6     7   ar
    22     7    11    1
    23    11    12   ar
    24    12    13   ar
    25    13    14   ar
    26    14    15   ar
    27    15    17    1
    28    17    18    1
    29    17    19    2
    30    17    20    2
    31    15    16   ar
    32     7     8   ar
    33     8     9   ar
    34    28    29   ar
    35    29    30    1
    36    29    23   ar
    37     9     1   ar
    38     9     4    1
    39    16    11   ar
    40    31    32    1
    41     5    10    1
@<TRIPOS>MOLECULE
*****
 38 41 0 0 0
SMALL
GASTEIGER

@<TRIPOS>ATOM
      1 C           3.7347   -1.8030   19.1062 C.ar    1  UNL1        0.0611
      2 C           3.5749   -1.2585   17.7177 C.ar    1  UNL1        0.1037
      3 N           2.9763    0.1127   17.8237 N.ar    1  UNL1       -0.2269
      4 C           2.7662    0.4158   19.2777 C.ar    1  UNL1        0.1407
      5 N           2.2086    1.6168   19.9823 N.ar    1  UNL1       -0.3374
      6 C           2.1198    1.6339   21.4795 C.ar    1  UNL1        0.0735
      7 C           2.5885    0.4498   22.2722 C.ar    1  UNL1        0.0187
      8 C           3.1461   -0.7513   21.5676 C.ar    1  UNL1        0.0047
      9 C           3.2350   -0.7683   20.0703 C.ar    1  UNL1        0.0386
     10 H           1.9009    2.3939   19.4620 H       1  UNL1        0.1674
     11 C           2.4997    0.4669   23.7695 C.ar    1  UNL1        0.0219
     12 C           1.4492    1.2942   24.4491 C.ar    1  UNL1        0.0990
     13 N           1.3604    1.3113   25.9464 N.ar    1  UNL1       -0.2410
     14 C           2.3221    0.5010   26.7640 C.ar    1  UNL1        0.1171
     15 C           3.3726   -0.3263   26.0844 C.ar    1  UNL1        0.1248
     16 C           3.4614   -0.3434   24.5871 C.ar    1  UNL1        0.0215
     17 S           4.3343   -1.1366   26.9020 S.O2    1  UNL1        0.0119
     18 C           5.2960   -1.9469   27.7197 C.3     1  UNL1        0.1816
     19 O           3.1883   -1.7100   27.6817 O.2     1  UNL1       -0.1685
     20 O           5.4803   -0.5632   26.1223 O.2     1  UNL1       -0.1685
     21 C           4.2959   -3.1465   19.4673 C.2     1  UNL1        0.2015
     22 O           3.5531   -4.3947   19.0933 O.2     1  UNL1       -0.2864
     23 C           6.9291   -3.8018   22.3633 C.ar    1  UNL1        0.0920
     24 C           8.2082   -3.4319   21.6725 C.ar    1  UNL1        0.0204
     25 C           8.1831   -2.9668   20.2466 C.ar    1  UNL1        0.0312
     26 C           6.8791   -2.8716   19.5115 C.ar    1  UNL1        0.1454
     27 F           6.8540   -2.4066   18.0857 F       1  UNL1       -0.2040
     28 C           5.6001   -3.2416   20.2024 C.ar    1  UNL1        0.0951
     29 C           5.6251   -3.7067   21.6282 C.ar    1  UNL1        0.1598
     30 F           4.3460   -4.0766   22.3190 F       1  UNL1       -0.2026
     31 N           6.9542   -4.2669   23.7892 N.pl3   1  UNL1       -0.2166
     32 H           6.2693   -3.9512   24.4220 H       1  UNL1        0.1734
     33 S           8.0227   -5.2130   24.2508 S.O2    1  UNL1        0.0540
     34 O           7.6498   -6.1683   23.1561 O.2     1  UNL1       -0.1545
     35 O           8.3957   -4.2577   25.3454 O.2     1  UNL1       -0.1545
     36 C           9.0913   -6.1590   24.7124 C.3     1  UNL1        0.1724
     37 C           7.8973   -7.9501   26.1675 C.3     1  UNL1        0.0019
     38 C           8.7540   -7.5943   24.9887 C.3     1  UNL1        0.0273
@<TRIPOS>BOND
     1    37    38    1
     2    38    36    1
     3    36    33    1
     4    33    34    2
     5    33    35    2
     6    33    31    1
     7    31    23    1
     8    23    24   ar
     9    24    25   ar
    10    25    26   ar
    11    26    27    1
    12    26    28   ar
    13    28    21    1
    14    21    22    2
    15    21     1    1
    16     1     2   ar
    17     2     3   ar
    18     3     4   ar
    19     4     5   ar
    20     5     6   ar
    21     6     7   ar
    22     7    11    1
    23    11    12   ar
    24    12    13   ar
    25    13    14   ar
    26    14    15   ar
    27    15    17    1
    28    17    18    1
    29    17    19    2
    30    17    20    2
    31    15    16   ar
    32     7     8   ar
    33     8     9   ar
    34    28    29   ar
    35    29    30    1
    36    29    23   ar
    37     9     1   ar
    38     9     4    1
    39    16    11   ar
    40    31    32    1
    41     5    10    1
@<TRIPOS>MOLECULE
*****
 38 41 0 0 0
SMALL
GASTEIGER

@<TRIPOS>ATOM
      1 C          -0.7181    3.8742   18.3243 C.ar    1  UNL1        0.0611
      2 C          -0.6096    3.9860   16.8324 C.ar    1  UNL1        0.1037
      3 N          -1.9808    4.2544   16.2868 N.ar    1  UNL1       -0.2269
      4 C          -2.9368    4.3084   17.4415 C.ar    1  UNL1        0.1407
      5 N          -4.4171    4.5411   17.5089 N.ar    1  UNL1       -0.3374
      6 C          -5.1169    4.5389   18.8356 C.ar    1  UNL1        0.0735
      7 C          -4.3365    4.3039   20.0949 C.ar    1  UNL1        0.0187
      8 C          -2.8562    4.0712   20.0274 C.ar    1  UNL1        0.0047
      9 C          -2.1564    4.0734   18.7007 C.ar    1  UNL1        0.0386
     10 H          -4.9293    4.6953   16.6824 H       1  UNL1        0.1674
     11 C          -5.0364    4.3017   21.4216 C.ar    1  UNL1        0.0219
     12 C          -6.5255    4.4706   21.4843 C.ar    1  UNL1        0.0990
     13 N          -7.2255    4.4684   22.8110 N.ar    1  UNL1       -0.2410
     14 C          -6.4362    4.2973   24.0751 C.ar    1  UNL1        0.1171
     15 C          -4.9470    4.1284   24.0123 C.ar    1  UNL1        0.1248
     16 C          -4.2472    4.1306   22.6857 C.ar    1  UNL1        0.0215
     17 S          -4.1577    3.9573   25.2764 S.O2    1  UNL1        0.0119
     18 C          -3.3685    3.7862   26.5404 C.3     1  UNL1        0.1816
     19 O          -5.2953    4.5354   26.0649 O.2     1  UNL1       -0.1685
     20 O          -3.0202    3.3791   24.4878 O.2     1  UNL1       -0.1685
     21 C           0.4131    3.6096   19.2732 C.2     1  UNL1        0.2015
     22 O           0.9302    4.7115   20.1497 O.2     1  UNL1       -0.2864
     23 C           2.9538    0.6072   18.7435 C.ar    1  UNL1        0.0920
     24 C           2.2554   -0.4903   19.4905 C.ar    1  UNL1        0.0204
     25 C           0.9430   -0.2211   20.1650 C.ar    1  UNL1        0.0312
     26 C           0.3288    1.1455   20.0926 C.ar    1  UNL1        0.1454
     27 F          -0.9837    1.4146   20.7671 F       1  UNL1       -0.2040
     28 C           1.0272    2.2429   19.3457 C.ar    1  UNL1        0.0951
     29 C           2.3397    1.9737   18.6712 C.ar    1  UNL1        0.1598
     30 F           3.0380    3.0712   17.9242 F       1  UNL1       -0.2026
     31 N           4.2663    0.3380   18.0690 N.pl3   1  UNL1       -0.2166
     32 H           4.7634    1.0757   17.6473 H       1  UNL1        0.1734
     33 S           4.8212   -1.0552   18.0370 S.O2    1  UNL1        0.0540
     34 O           5.5321   -0.8018   19.3334 O.2     1  UNL1       -0.1545
     35 O           4.1104   -1.3086   16.7407 O.2     1  UNL1       -0.1545
     36 C           5.3761   -2.4484   18.0050 C.3     1  UNL1        0.1724
     37 C           3.6757   -4.1052   19.0603 C.3     1  UNL1        0.0019
     38 C           5.0126   -3.4255   19.0835 C.3     1  UNL1        0.0273
@<TRIPOS>BOND
     1    37    38    1
     2    38    36    1
     3    36    33    1
     4    33    34    2
     5    33    35    2
     6    33    31    1
     7    31    23    1
     8    23    24   ar
     9    24    25   ar
    10    25    26   ar
    11    26    27    1
    12    26    28   ar
    13    28    21    1
    14    21    22    2
    15    21     1    1
    16     1     2   ar
    17     2     3   ar
    18     3     4   ar
    19     4     5   ar
    20     5     6   ar
    21     6     7   ar
    22     7    11    1
    23    11    12   ar
    24    12    13   ar
    25    13    14   ar
    26    14    15   ar
    27    15    17    1
    28    17    18    1
    29    17    19    2
    30    17    20    2
    31    15    16   ar
    32     7     8   ar
    33     8     9   ar
    34    28    29   ar
    35    29    30    1
    36    29    23   ar
    37     9     1   ar
    38     9     4    1
    39    16    11   ar
    40    31    32    1
    41     5    10    1
