@<TRIPOS>MOLECULE
*****
 34 37 0 0 0
SMALL
GASTEIGER

@<TRIPOS>ATOM
      1 N           6.2604   -2.1100   22.8062 N.am    1  UNL1       -0.2438
      2 C           5.5432   -0.8496   22.4228 C.3     1  UNL1        0.1009
      3 C           4.5011   -0.8780   21.3442 C.3     1  UNL1        0.0662
      4 C           4.1763   -2.1668   20.6489 C.3     1  UNL1        0.1600
      5 O           4.8935   -3.4273   21.0323 O.3     1  UNL1       -0.4374
      6 C           5.9355   -3.3989   22.1109 C.2     1  UNL1        0.4051
      7 O           6.6527   -4.6593   22.4942 O.2     1  UNL1       -0.2262
      8 C           3.2325   -1.2426   19.9385 C.ar    1  UNL1        0.0138
      9 C           1.8656   -0.9883   20.5014 C.ar    1  UNL1       -0.0010
     10 C           0.9218   -0.0641   19.7909 C.ar    1  UNL1       -0.0002
     11 C           1.3448    0.6061   18.5174 C.ar    1  UNL1       -0.0000
     12 C           2.7117    0.3520   17.9543 C.ar    1  UNL1       -0.0002
     13 C           3.6556   -0.5724   18.6648 C.ar    1  UNL1       -0.0010
     14 C           7.3024   -2.0816   23.8847 C.3     1  UNL1        0.1011
     15 C           8.7577   -2.0989   23.5221 C.3     1  UNL1        0.0265
     16 C           6.0622   -1.9443   28.2083 C.ar    1  UNL1        0.0030
     17 C           6.2720   -3.2655   27.5298 C.ar    1  UNL1       -0.0002
     18 C           6.6854   -3.3113   26.0886 C.ar    1  UNL1       -0.0027
     19 C           6.8890   -2.0358   25.3259 C.ar    1  UNL1       -0.0042
     20 C           6.6792   -0.7146   26.0044 C.ar    1  UNL1       -0.0027
     21 C           6.2658   -0.6689   27.4456 C.ar    1  UNL1       -0.0002
     22 C           4.4087   -1.7613   33.9731 C.3     1  UNL1        0.0737
     23 C           4.8221   -1.8071   32.5319 C.ar    1  UNL1        0.1396
     24 N           5.8526   -2.7981   32.0783 N.ar    1  UNL1       -0.2291
     25 C           6.2660   -2.8439   30.6371 C.ar    1  UNL1        0.1017
     26 C           5.6489   -1.8986   29.6495 C.ar    1  UNL1        0.0383
     27 C           4.6183   -0.9075   30.1031 C.ar    1  UNL1        0.1017
     28 N           4.2049   -0.8618   31.5442 N.ar    1  UNL1       -0.2291
     29 C           3.5237   -3.1347   19.7069 C.3     1  UNL1        0.0714
     30 C           4.2739   -4.3458   19.2373 C.3     1  UNL1        0.0922
     31 C           3.3254   -5.2271   19.9949 C.3     1  UNL1        0.0294
     32 C           5.2224   -3.4646   18.4798 C.3     1  UNL1        0.0294
     33 O           5.0241   -5.5569   18.7677 O.3     1  UNL1       -0.3866
     34 H           4.6075   -6.3553   19.1284 H       1  UNL1        0.2102
@<TRIPOS>BOND
     1    22    23    1
     2    23    24   ar
     3    24    25   ar
     4    25    26   ar
     5    26    16    1
     6    16    17   ar
     7    17    18   ar
     8    18    19   ar
     9    19    14    1
    10    14    15    1
    11    14     1    1
    12     1     2    1
    13     2     3    1
    14     3     4    1
    15     4    29    1
    16    29    30    1
    17    30    31    1
    18    30    32    1
    19    30    33    1
    20     4     8    1
    21     8     9   ar
    22     9    10   ar
    23    10    11   ar
    24    11    12   ar
    25    12    13   ar
    26     4     5    1
    27     5     6    1
    28     6     7    2
    29    19    20   ar
    30    20    21   ar
    31    26    27   ar
    32    27    28   ar
    33    28    23   ar
    34    21    16   ar
    35     6     1   am
    36    13     8   ar
    37    33    34    1
@<TRIPOS>MOLECULE
*****
 34 37 0 0 0
SMALL
GASTEIGER

@<TRIPOS>ATOM
      1 N           1.1946    1.5892   19.5844 N.am    1  UNL1       -0.2438
      2 C           0.9122    0.1217   19.7131 C.3     1  UNL1        0.1009
      3 C           2.0363   -0.8392   19.9643 C.3     1  UNL1        0.0662
      4 C           3.4428   -0.3326   20.0868 C.3     1  UNL1        0.1600
      5 O           3.7252    1.1350   19.9581 O.3     1  UNL1       -0.4374
      6 C           2.6012    2.0958   19.7069 C.2     1  UNL1        0.4051
      7 O           2.8836    3.5634   19.5781 O.2     1  UNL1       -0.2262
      8 C           3.6771   -1.8013   20.2815 C.ar    1  UNL1        0.0138
      9 C           4.1689   -2.3137   21.6027 C.ar    1  UNL1       -0.0010
     10 C           4.4032   -3.7823   21.7974 C.ar    1  UNL1       -0.0002
     11 C           4.1457   -4.7388   20.6710 C.ar    1  UNL1       -0.0000
     12 C           3.6539   -4.2265   19.3498 C.ar    1  UNL1       -0.0002
     13 C           3.4196   -2.7577   19.1550 C.ar    1  UNL1       -0.0010
     14 C           0.0705    2.5501   19.3332 C.3     1  UNL1        0.1011
     15 C          -0.1812    3.0639   17.9466 C.3     1  UNL1        0.0265
     16 C          -2.5466    3.8914   22.7393 C.ar    1  UNL1        0.0030
     17 C          -3.1443    3.6468   21.3854 C.ar    1  UNL1       -0.0002
     18 C          -2.2719    3.1997   20.2501 C.ar    1  UNL1       -0.0027
     19 C          -0.8018    2.9972   20.4685 C.ar    1  UNL1       -0.0042
     20 C          -0.2041    3.2417   21.8224 C.ar    1  UNL1       -0.0027
     21 C          -1.0765    3.6888   22.9577 C.ar    1  UNL1       -0.0002
     22 C          -6.0361    5.6798   27.2808 C.3     1  UNL1        0.0737
     23 C          -5.1637    5.2327   26.1454 C.ar    1  UNL1        0.1396
     24 N          -4.0727    6.1292   25.6398 N.ar    1  UNL1       -0.2291
     25 C          -3.2003    5.6821   24.5044 C.ar    1  UNL1        0.1017
     26 C          -3.4190    4.3385   23.8746 C.ar    1  UNL1        0.0383
     27 C          -4.5100    3.4419   24.3803 C.ar    1  UNL1        0.1017
     28 N          -5.3824    3.8890   25.5156 N.ar    1  UNL1       -0.2291
     29 C           4.9307   -0.3360   20.2769 C.3     1  UNL1        0.0714
     30 C           5.7779    0.6887   19.5823 C.3     1  UNL1        0.0922
     31 C           6.1443    1.2851   20.9090 C.3     1  UNL1        0.0294
     32 C           5.4115    0.0923   18.2556 C.3     1  UNL1        0.0294
     33 O           6.6251    1.7134   18.8877 O.3     1  UNL1       -0.3866
     34 H           7.0311    2.2978   19.5469 H       1  UNL1        0.2102
@<TRIPOS>BOND
     1    22    23    1
     2    23    24   ar
     3    24    25   ar
     4    25    26   ar
     5    26    16    1
     6    16    17   ar
     7    17    18   ar
     8    18    19   ar
     9    19    14    1
    10    14    15    1
    11    14     1    1
    12     1     2    1
    13     2     3    1
    14     3     4    1
    15     4    29    1
    16    29    30    1
    17    30    31    1
    18    30    32    1
    19    30    33    1
    20     4     8    1
    21     8     9   ar
    22     9    10   ar
    23    10    11   ar
    24    11    12   ar
    25    12    13   ar
    26     4     5    1
    27     5     6    1
    28     6     7    2
    29    19    20   ar
    30    20    21   ar
    31    26    27   ar
    32    27    28   ar
    33    28    23   ar
    34    21    16   ar
    35     6     1   am
    36    13     8   ar
    37    33    34    1
@<TRIPOS>MOLECULE
*****
 34 37 0 0 0
SMALL
GASTEIGER

@<TRIPOS>ATOM
      1 N           2.9860    1.0966   23.0590 N.am    1  UNL1       -0.2438
      2 C           2.9006   -0.3935   22.9094 C.3     1  UNL1        0.1009
      3 C           3.4862   -1.0607   21.7002 C.3     1  UNL1        0.0662
      4 C           4.1571   -0.2378   20.6407 C.3     1  UNL1        0.1600
      5 O           4.2425    1.2523   20.7903 O.3     1  UNL1       -0.4374
      6 C           3.6569    1.9195   21.9994 C.2     1  UNL1        0.4051
      7 O           3.7423    3.4096   22.1489 O.2     1  UNL1       -0.2262
      8 C           4.3249   -1.6072   20.0522 C.ar    1  UNL1        0.0138
      9 C           3.1213   -2.4615   19.7852 C.ar    1  UNL1       -0.0010
     10 C           3.2892   -3.8310   19.1967 C.ar    1  UNL1       -0.0002
     11 C           4.6607   -4.3462   18.8751 C.ar    1  UNL1       -0.0000
     12 C           5.8644   -3.4919   19.1421 C.ar    1  UNL1       -0.0002
     13 C           5.6966   -2.1224   19.7307 C.ar    1  UNL1       -0.0010
     14 C           2.4004    1.7638   24.2681 C.3     1  UNL1        0.1011
     15 C           3.2470    1.9848   25.4865 C.3     1  UNL1        0.0265
     16 C          -1.8958    3.1024   24.2403 C.ar    1  UNL1        0.0030
     17 C          -1.0554    3.2527   23.0070 C.ar    1  UNL1       -0.0002
     18 C           0.3767    2.8065   23.0163 C.ar    1  UNL1       -0.0027
     19 C           0.9684    2.2100   24.2588 C.ar    1  UNL1       -0.0042
     20 C           0.1280    2.0596   25.4921 C.ar    1  UNL1       -0.0027
     21 C          -1.3041    2.5058   25.4829 C.ar    1  UNL1       -0.0002
     22 C          -7.6240    4.8871   24.2032 C.3     1  UNL1        0.0737
     23 C          -6.1920    4.4409   24.2125 C.ar    1  UNL1        0.1396
     24 N          -5.5223    4.0425   22.9309 N.ar    1  UNL1       -0.2291
     25 C          -4.0902    3.5963   22.9401 C.ar    1  UNL1        0.1017
     26 C          -3.3278    3.5486   24.2310 C.ar    1  UNL1        0.0383
     27 C          -3.9975    3.9470   25.5127 C.ar    1  UNL1        0.1017
     28 N          -5.4296    4.3932   25.5034 N.ar    1  UNL1       -0.2291
     29 C           4.8863    0.1096   19.3767 C.3     1  UNL1        0.0714
     30 C           4.6002    1.4056   18.6778 C.3     1  UNL1        0.0922
     31 C           3.2049    0.9393   18.3844 C.3     1  UNL1        0.0294
     32 C           5.9954    1.8718   18.9711 C.3     1  UNL1        0.0294
     33 O           4.3141    2.7016   17.9788 O.3     1  UNL1       -0.3866
     34 H           3.4018    2.6967   17.6493 H       1  UNL1        0.2102
@<TRIPOS>BOND
     1    22    23    1
     2    23    24   ar
     3    24    25   ar
     4    25    26   ar
     5    26    16    1
     6    16    17   ar
     7    17    18   ar
     8    18    19   ar
     9    19    14    1
    10    14    15    1
    11    14     1    1
    12     1     2    1
    13     2     3    1
    14     3     4    1
    15     4    29    1
    16    29    30    1
    17    30    31    1
    18    30    32    1
    19    30    33    1
    20     4     8    1
    21     8     9   ar
    22     9    10   ar
    23    10    11   ar
    24    11    12   ar
    25    12    13   ar
    26     4     5    1
    27     5     6    1
    28     6     7    2
    29    19    20   ar
    30    20    21   ar
    31    26    27   ar
    32    27    28   ar
    33    28    23   ar
    34    21    16   ar
    35     6     1   am
    36    13     8   ar
    37    33    34    1
@<TRIPOS>MOLECULE
*****
 34 37 0 0 0
SMALL
GASTEIGER

@<TRIPOS>ATOM
      1 N           2.3264    1.8539   19.5165 N.am    1  UNL1       -0.2438
      2 C           2.1886    0.5914   18.7183 C.3     1  UNL1        0.1009
      3 C           3.0163   -0.6102   19.0665 C.3     1  UNL1        0.0662
      4 C           3.9818   -0.5493   20.2128 C.3     1  UNL1        0.1600
      5 O           4.1197    0.7132   21.0109 O.3     1  UNL1       -0.4374
      6 C           3.2920    1.9148   20.6628 C.2     1  UNL1        0.4051
      7 O           3.4298    3.1773   21.4610 O.2     1  UNL1       -0.2262
      8 C           4.2064   -1.9608   19.7578 C.ar    1  UNL1        0.0138
      9 C           5.5988   -2.4502   19.4904 C.ar    1  UNL1       -0.0010
     10 C           5.8234   -3.8617   19.0355 C.ar    1  UNL1       -0.0002
     11 C           4.6554   -4.7840   18.8479 C.ar    1  UNL1       -0.0000
     12 C           3.2629   -4.2948   19.1153 C.ar    1  UNL1       -0.0002
     13 C           3.0383   -2.8832   19.5703 C.ar    1  UNL1       -0.0010
     14 C           1.4988    3.0554   19.1684 C.3     1  UNL1        0.1011
     15 C           2.0229    4.0713   18.1972 C.3     1  UNL1        0.0265
     16 C          -2.5566    3.6123   21.0375 C.ar    1  UNL1        0.0030
     17 C          -2.3751    3.8215   19.5633 C.ar    1  UNL1       -0.0002
     18 C          -1.0233    3.6359   18.9403 C.ar    1  UNL1       -0.0027
     19 C           0.1470    3.2411   19.7914 C.ar    1  UNL1       -0.0042
     20 C          -0.0345    3.0319   21.2656 C.ar    1  UNL1       -0.0027
     21 C          -1.3863    3.2175   21.8886 C.ar    1  UNL1       -0.0002
     22 C          -7.9638    4.3549   23.5297 C.3     1  UNL1        0.0737
     23 C          -6.6120    4.1693   22.9066 C.ar    1  UNL1        0.1396
     24 N          -5.4349    3.8071   23.7629 N.ar    1  UNL1       -0.2291
     25 C          -4.0831    3.6215   23.1398 C.ar    1  UNL1        0.1017
     26 C          -3.9084    3.7980   21.6606 C.ar    1  UNL1        0.0383
     27 C          -5.0856    4.1601   20.8043 C.ar    1  UNL1        0.1017
     28 N          -6.4373    4.3458   21.4274 N.ar    1  UNL1       -0.2291
     29 C           5.0253   -0.9785   21.2011 C.3     1  UNL1        0.0714
     30 C           4.9287   -0.5394   22.6322 C.3     1  UNL1        0.0922
     31 C           6.2434    0.1712   22.5029 C.3     1  UNL1        0.0294
     32 C           3.6140   -1.2500   22.7614 C.3     1  UNL1        0.0294
     33 O           4.8320   -0.1002   24.0632 O.3     1  UNL1       -0.3866
     34 H           5.6127    0.4276   24.2929 H       1  UNL1        0.2102
@<TRIPOS>BOND
     1    22    23    1
     2    23    24   ar
     3    24    25   ar
     4    25    26   ar
     5    26    16    1
     6    16    17   ar
     7    17    18   ar
     8    18    19   ar
     9    19    14    1
    10    14    15    1
    11    14     1    1
    12     1     2    1
    13     2     3    1
    14     3     4    1
    15     4    29    1
    16    29    30    1
    17    30    31    1
    18    30    32    1
    19    30    33    1
    20     4     8    1
    21     8     9   ar
    22     9    10   ar
    23    10    11   ar
    24    11    12   ar
    25    12    13   ar
    26     4     5    1
    27     5     6    1
    28     6     7    2
    29    19    20   ar
    30    20    21   ar
    31    26    27   ar
    32    27    28   ar
    33    28    23   ar
    34    21    16   ar
    35     6     1   am
    36    13     8   ar
    37    33    34    1
@<TRIPOS>MOLECULE
*****
 34 37 0 0 0
SMALL
GASTEIGER

@<TRIPOS>ATOM
      1 N           2.8634    1.3795   20.3921 N.am    1  UNL1       -0.2438
      2 C           3.7138    1.2954   21.6249 C.3     1  UNL1        0.1009
      3 C           4.4119    0.0130   21.9685 C.3     1  UNL1        0.0662
      4 C           4.2596   -1.1854   21.0793 C.3     1  UNL1        0.1600
      5 O           3.4093   -1.1013   19.8465 O.3     1  UNL1       -0.4374
      6 C           2.7112    0.1811   19.5029 C.2     1  UNL1        0.4051
      7 O           1.8608    0.2651   18.2701 O.2     1  UNL1       -0.2262
      8 C           5.1665   -1.7542   22.1299 C.ar    1  UNL1        0.0138
      9 C           4.8266   -3.0585   22.7880 C.ar    1  UNL1       -0.0010
     10 C           5.7334   -3.6274   23.8387 C.ar    1  UNL1       -0.0002
     11 C           6.9803   -2.8918   24.2314 C.ar    1  UNL1       -0.0000
     12 C           7.3204   -1.5875   23.5734 C.ar    1  UNL1       -0.0002
     13 C           6.4135   -1.0186   22.5226 C.ar    1  UNL1       -0.0010
     14 C           2.1653    2.6619   20.0486 C.3     1  UNL1        0.1011
     15 C           2.8719    3.7060   19.2360 C.3     1  UNL1        0.0265
     16 C          -2.0489    3.3765   21.4556 C.ar    1  UNL1        0.0030
     17 C          -0.9400    3.2264   22.4544 C.ar    1  UNL1       -0.0002
     18 C           0.4647    2.9882   21.9854 C.ar    1  UNL1       -0.0027
     19 C           0.7606    2.9001   20.5176 C.ar    1  UNL1       -0.0042
     20 C          -0.3483    3.0502   19.5187 C.ar    1  UNL1       -0.0027
     21 C          -1.7531    3.2884   19.9877 C.ar    1  UNL1       -0.0002
     22 C          -7.6679    4.3294   23.3316 C.3     1  UNL1        0.0737
     23 C          -6.2631    4.0911   22.8626 C.ar    1  UNL1        0.1396
     24 N          -5.1652    3.8759   23.8617 N.ar    1  UNL1       -0.2291
     25 C          -3.7605    3.6377   23.3927 C.ar    1  UNL1        0.1017
     26 C          -3.4536    3.6147   21.9246 C.ar    1  UNL1        0.0383
     27 C          -4.5516    3.8300   20.9255 C.ar    1  UNL1        0.1017
     28 N          -5.9563    4.0682   21.3945 N.ar    1  UNL1       -0.2291
     29 C           4.4223   -2.5813   20.5549 C.3     1  UNL1        0.0714
     30 C           4.6090   -2.8132   19.0847 C.3     1  UNL1        0.0922
     31 C           3.4363   -3.7486   19.0834 C.3     1  UNL1        0.0294
     32 C           5.7816   -1.8778   19.0861 C.3     1  UNL1        0.0294
     33 O           4.7957   -3.0451   17.6145 O.3     1  UNL1       -0.3866
     34 H           4.1210   -3.6654   17.2968 H       1  UNL1        0.2102
@<TRIPOS>BOND
     1    22    23    1
     2    23    24   ar
     3    24    25   ar
     4    25    26   ar
     5    26    16    1
     6    16    17   ar
     7    17    18   ar
     8    18    19   ar
     9    19    14    1
    10    14    15    1
    11    14     1    1
    12     1     2    1
    13     2     3    1
    14     3     4    1
    15     4    29    1
    16    29    30    1
    17    30    31    1
    18    30    32    1
    19    30    33    1
    20     4     8    1
    21     8     9   ar
    22     9    10   ar
    23    10    11   ar
    24    11    12   ar
    25    12    13   ar
    26     4     5    1
    27     5     6    1
    28     6     7    2
    29    19    20   ar
    30    20    21   ar
    31    26    27   ar
    32    27    28   ar
    33    28    23   ar
    34    21    16   ar
    35     6     1   am
    36    13     8   ar
    37    33    34    1
@<TRIPOS>MOLECULE
*****
 34 37 0 0 0
SMALL
GASTEIGER

@<TRIPOS>ATOM
      1 N           1.9474    1.0562   21.8712 N.am    1  UNL1       -0.2438
      2 C           1.8514   -0.4394   21.8080 C.3     1  UNL1        0.1009
      3 C           2.8585   -1.2230   21.0195 C.3     1  UNL1        0.0662
      4 C           3.9616   -0.5110   20.2941 C.3     1  UNL1        0.1600
      5 O           4.0576    0.9846   20.3572 O.3     1  UNL1       -0.4374
      6 C           3.0505    1.7682   21.1457 C.2     1  UNL1        0.4051
      7 O           3.1466    3.2638   21.2088 O.2     1  UNL1       -0.2262
      8 C           4.2880   -1.9305   19.9358 C.ar    1  UNL1        0.0138
      9 C           3.2269   -2.8225   19.3629 C.ar    1  UNL1       -0.0010
     10 C           3.5534   -4.2420   19.0047 C.ar    1  UNL1       -0.0002
     11 C           4.9410   -4.7696   19.2193 C.ar    1  UNL1       -0.0000
     12 C           6.0022   -3.8777   19.7922 C.ar    1  UNL1       -0.0002
     13 C           5.6758   -2.4581   20.1505 C.ar    1  UNL1       -0.0010
     14 C           0.9404    1.8397   22.6597 C.3     1  UNL1        0.1011
     15 C          -0.1707    2.5584   21.9532 C.3     1  UNL1        0.0265
     16 C           1.2522    2.0345   27.1446 C.ar    1  UNL1        0.0030
     17 C           2.3647    2.5680   26.2916 C.ar    1  UNL1       -0.0002
     18 C           2.2608    2.5030   24.7966 C.ar    1  UNL1       -0.0027
     19 C           1.0443    1.9047   24.1547 C.ar    1  UNL1       -0.0042
     20 C          -0.0682    1.3712   25.0077 C.ar    1  UNL1       -0.0027
     21 C           0.0358    1.4361   26.5027 C.ar    1  UNL1       -0.0002
     22 C           1.6680    2.2942   33.1246 C.3     1  UNL1        0.0737
     23 C           1.5641    2.2293   31.6296 C.ar    1  UNL1        0.1396
     24 N           0.4060    1.5241   30.9882 N.ar    1  UNL1       -0.2291
     25 C           0.3020    1.4591   29.4932 C.ar    1  UNL1        0.1017
     26 C           1.3562    2.0994   28.6396 C.ar    1  UNL1        0.0383
     27 C           2.5143    2.8047   29.2810 C.ar    1  UNL1        0.1017
     28 N           2.6182    2.8696   30.7760 N.ar    1  UNL1       -0.2291
     29 C           5.1781   -0.2920   19.4442 C.3     1  UNL1        0.0714
     30 C           5.2578    0.9045   18.5430 C.3     1  UNL1        0.0922
     31 C           6.4184    1.4257   19.3375 C.3     1  UNL1        0.0294
     32 C           4.0971    0.3833   17.7484 C.3     1  UNL1        0.0294
     33 O           5.3375    2.1009   17.6417 O.3     1  UNL1       -0.3866
     34 H           6.0623    2.6766   17.9318 H       1  UNL1        0.2102
@<TRIPOS>BOND
     1    22    23    1
     2    23    24   ar
     3    24    25   ar
     4    25    26   ar
     5    26    16    1
     6    16    17   ar
     7    17    18   ar
     8    18    19   ar
     9    19    14    1
    10    14    15    1
    11    14     1    1
    12     1     2    1
    13     2     3    1
    14     3     4    1
    15     4    29    1
    16    29    30    1
    17    30    31    1
    18    30    32    1
    19    30    33    1
    20     4     8    1
    21     8     9   ar
    22     9    10   ar
    23    10    11   ar
    24    11    12   ar
    25    12    13   ar
    26     4     5    1
    27     5     6    1
    28     6     7    2
    29    19    20   ar
    30    20    21   ar
    31    26    27   ar
    32    27    28   ar
    33    28    23   ar
    34    21    16   ar
    35     6     1   am
    36    13     8   ar
    37    33    34    1
@<TRIPOS>MOLECULE
*****
 34 37 0 0 0
SMALL
GASTEIGER

@<TRIPOS>ATOM
      1 N           7.5723   -3.4195   20.8633 N.am    1  UNL1       -0.2438
      2 C           8.5761   -2.5057   20.2250 C.3     1  UNL1        0.1009
      3 C           8.1148   -1.3883   19.3368 C.3     1  UNL1        0.0662
      4 C           6.6498   -1.1849   19.0870 C.3     1  UNL1        0.1600
      5 O           5.6461   -2.0987   19.7253 O.3     1  UNL1       -0.4374
      6 C           6.1073   -3.2160   20.6134 C.2     1  UNL1        0.4051
      7 O           5.1036   -4.1298   21.2517 O.2     1  UNL1       -0.2262
      8 C           7.2127   -0.0654   18.2625 C.ar    1  UNL1        0.0138
      9 C           8.3455    0.7616   18.7941 C.ar    1  UNL1       -0.0010
     10 C           8.9083    1.8811   17.9697 C.ar    1  UNL1       -0.0002
     11 C           8.3383    2.1737   16.6134 C.ar    1  UNL1       -0.0000
     12 C           7.2055    1.3468   16.0816 C.ar    1  UNL1       -0.0002
     13 C           6.6426    0.2272   16.9061 C.ar    1  UNL1       -0.0010
     14 C           8.0336   -4.5368   21.7514 C.3     1  UNL1        0.1011
     15 C           8.7120   -5.7356   21.1576 C.3     1  UNL1        0.0265
     16 C           7.3818   -4.2925   26.1973 C.ar    1  UNL1        0.0030
     17 C           7.4601   -5.6302   25.5231 C.ar    1  UNL1       -0.0002
     18 C           7.6773   -5.7116   24.0412 C.ar    1  UNL1       -0.0027
     19 C           7.8163   -4.4554   23.2334 C.ar    1  UNL1       -0.0042
     20 C           7.7380   -3.1178   23.9076 C.ar    1  UNL1       -0.0027
     21 C           7.5208   -3.0363   25.3895 C.ar    1  UNL1       -0.0002
     22 C           6.5128   -3.9668   32.1251 C.3     1  UNL1        0.0737
     23 C           6.7301   -4.0483   30.6431 C.ar    1  UNL1        0.1396
     24 N           6.8555   -2.7919   29.8334 N.ar    1  UNL1       -0.2291
     25 C           7.0728   -2.8733   28.3514 C.ar    1  UNL1        0.1017
     26 C           7.1646   -4.2111   27.6792 C.ar    1  UNL1        0.0383
     27 C           7.0391   -5.4675   28.4890 C.ar    1  UNL1        0.1017
     28 N           6.8219   -5.3860   29.9710 N.ar    1  UNL1       -0.2291
     29 C           5.3803   -0.5926   18.5508 C.3     1  UNL1        0.0714
     30 C           4.2004   -0.4018   19.4571 C.3     1  UNL1        0.0922
     31 C           5.0428    0.4290   20.3791 C.3     1  UNL1        0.0294
     32 C           3.3579   -1.2327   18.5351 C.3     1  UNL1        0.0294
     33 O           3.0204   -0.2111   20.3634 O.3     1  UNL1       -0.3866
     34 H           3.2797    0.3366   21.1209 H       1  UNL1        0.2102
@<TRIPOS>BOND
     1    22    23    1
     2    23    24   ar
     3    24    25   ar
     4    25    26   ar
     5    26    16    1
     6    16    17   ar
     7    17    18   ar
     8    18    19   ar
     9    19    14    1
    10    14    15    1
    11    14     1    1
    12     1     2    1
    13     2     3    1
    14     3     4    1
    15     4    29    1
    16    29    30    1
    17    30    31    1
    18    30    32    1
    19    30    33    1
    20     4     8    1
    21     8     9   ar
    22     9    10   ar
    23    10    11   ar
    24    11    12   ar
    25    12    13   ar
    26     4     5    1
    27     5     6    1
    28     6     7    2
    29    19    20   ar
    30    20    21   ar
    31    26    27   ar
    32    27    28   ar
    33    28    23   ar
    34    21    16   ar
    35     6     1   am
    36    13     8   ar
    37    33    34    1
@<TRIPOS>MOLECULE
*****
 34 37 0 0 0
SMALL
GASTEIGER

@<TRIPOS>ATOM
      1 N           3.0305    1.9747   19.0432 N.am    1  UNL1       -0.2438
      2 C           2.9543    0.7007   18.2552 C.3     1  UNL1        0.1009
      3 C           3.5109   -0.5695   18.8272 C.3     1  UNL1        0.0662
      4 C           4.1436   -0.5655   20.1872 C.3     1  UNL1        0.1600
      5 O           4.2198    0.7086   20.9752 O.3     1  UNL1       -0.4374
      6 C           3.6633    1.9786   20.4033 C.2     1  UNL1        0.4051
      7 O           3.7394    3.2527   21.1913 O.2     1  UNL1       -0.2262
      8 C           4.3068   -2.0126   19.8282 C.ar    1  UNL1        0.0138
      9 C           5.6689   -2.6407   19.8454 C.ar    1  UNL1       -0.0010
     10 C           5.8321   -4.0879   19.4863 C.ar    1  UNL1       -0.0002
     11 C           4.6333   -4.9071   19.1101 C.ar    1  UNL1       -0.0000
     12 C           3.2712   -4.2792   19.0929 C.ar    1  UNL1       -0.0002
     13 C           3.1079   -2.8319   19.4519 C.ar    1  UNL1       -0.0010
     14 C           2.4740    3.2448   18.4712 C.3     1  UNL1        0.1011
     15 C           3.3920    4.2466   17.8359 C.3     1  UNL1        0.0265
     16 C          -1.9494    4.0495   18.6613 C.ar    1  UNL1        0.0030
     17 C          -1.2731    3.3094   19.7770 C.ar    1  UNL1       -0.0002
     18 C           0.2014    3.0412   19.7136 C.ar    1  UNL1       -0.0027
     19 C           0.9995    3.5130   18.5346 C.ar    1  UNL1       -0.0042
     20 C           0.3233    4.2531   17.4189 C.ar    1  UNL1       -0.0027
     21 C          -1.1512    4.5213   17.4822 C.ar    1  UNL1       -0.0002
     22 C          -7.8472    5.1224   18.9146 C.3     1  UNL1        0.0737
     23 C          -6.3728    4.8542   18.8513 C.ar    1  UNL1        0.1396
     24 N          -5.6938    4.7060   17.5220 N.ar    1  UNL1       -0.2291
     25 C          -4.2194    4.4378   17.4587 C.ar    1  UNL1        0.1017
     26 C          -3.4238    4.3177   18.7246 C.ar    1  UNL1        0.0383
     27 C          -4.1028    4.4658   20.0539 C.ar    1  UNL1        0.1017
     28 N          -5.5772    4.7341   20.1172 N.ar    1  UNL1       -0.2291
     29 C           4.8330   -1.0641   21.4225 C.3     1  UNL1        0.0714
     30 C           4.5290   -0.4428   22.7536 C.3     1  UNL1        0.0922
     31 C           5.9206    0.1142   22.8114 C.3     1  UNL1        0.0294
     32 C           3.1374   -0.9998   22.6958 C.3     1  UNL1        0.0294
     33 O           4.2250    0.1785   24.0846 O.3     1  UNL1       -0.3866
     34 H           5.0079    0.6519   24.4068 H       1  UNL1        0.2102
@<TRIPOS>BOND
     1    22    23    1
     2    23    24   ar
     3    24    25   ar
     4    25    26   ar
     5    26    16    1
     6    16    17   ar
     7    17    18   ar
     8    18    19   ar
     9    19    14    1
    10    14    15    1
    11    14     1    1
    12     1     2    1
    13     2     3    1
    14     3     4    1
    15     4    29    1
    16    29    30    1
    17    30    31    1
    18    30    32    1
    19    30    33    1
    20     4     8    1
    21     8     9   ar
    22     9    10   ar
    23    10    11   ar
    24    11    12   ar
    25    12    13   ar
    26     4     5    1
    27     5     6    1
    28     6     7    2
    29    19    20   ar
    30    20    21   ar
    31    26    27   ar
    32    27    28   ar
    33    28    23   ar
    34    21    16   ar
    35     6     1   am
    36    13     8   ar
    37    33    34    1
@<TRIPOS>MOLECULE
*****
 34 37 0 0 0
SMALL
GASTEIGER

@<TRIPOS>ATOM
      1 N          -1.2518    4.5995   21.7172 N.am    1  UNL1       -0.2438
      2 C          -2.0021    4.5629   20.4188 C.3     1  UNL1        0.1009
      3 C          -3.4993    4.6542   20.4149 C.3     1  UNL1        0.0662
      4 C          -4.2463    4.7822   21.7094 C.3     1  UNL1        0.1600
      5 O          -3.4960    4.8188   23.0078 O.3     1  UNL1       -0.4374
      6 C          -1.9988    4.7275   23.0117 C.2     1  UNL1        0.4051
      7 O          -1.2486    4.7641   24.3100 O.2     1  UNL1       -0.2262
      8 C          -5.3944    4.7911   20.7442 C.ar    1  UNL1        0.0138
      9 C          -6.3965    5.9065   20.7808 C.ar    1  UNL1       -0.0010
     10 C          -7.5446    5.9154   19.8156 C.ar    1  UNL1       -0.0002
     11 C          -7.6907    4.8088   18.8137 C.ar    1  UNL1       -0.0000
     12 C          -6.6886    3.6932   18.7769 C.ar    1  UNL1       -0.0002
     13 C          -5.5404    3.6843   19.7422 C.ar    1  UNL1       -0.0010
     14 C           0.2454    4.5082   21.7211 C.3     1  UNL1        0.1011
     15 C           1.0677    5.6895   22.1435 C.3     1  UNL1        0.0265
     16 C           2.2701    0.6906   20.4655 C.ar    1  UNL1        0.0030
     17 C           2.8288    2.0135   20.0323 C.ar    1  UNL1       -0.0002
     18 C           2.1539    3.2860   20.4508 C.ar    1  UNL1       -0.0027
     19 C           0.9203    3.2357   21.3026 C.ar    1  UNL1       -0.0042
     20 C           0.3615    1.9128   21.7358 C.ar    1  UNL1       -0.0027
     21 C           1.0364    0.6403   21.3173 C.ar    1  UNL1       -0.0002
     22 C           4.9696   -4.3996   18.7915 C.3     1  UNL1        0.0737
     23 C           4.2947   -3.1270   19.2100 C.ar    1  UNL1        0.1396
     24 N           3.9838   -2.0724   18.1898 N.ar    1  UNL1       -0.2291
     25 C           3.3089   -0.7998   18.6083 C.ar    1  UNL1        0.1017
     26 C           2.9450   -0.5819   20.0470 C.ar    1  UNL1        0.0383
     27 C           3.2559   -1.6366   21.0673 C.ar    1  UNL1        0.1017
     28 N           3.9308   -2.9091   20.6488 N.ar    1  UNL1       -0.2291
     29 C          -5.3919    4.9132   22.6687 C.3     1  UNL1        0.0714
     30 C          -5.4093    4.1035   23.9313 C.3     1  UNL1        0.0922
     31 C          -5.7160    5.3415   24.7209 C.3     1  UNL1        0.0294
     32 C          -5.1025    2.8656   23.1416 C.3     1  UNL1        0.0294
     33 O          -5.4266    3.2938   25.1939 O.3     1  UNL1       -0.3866
     34 H          -5.6173    3.8740   25.9475 H       1  UNL1        0.2102
@<TRIPOS>BOND
     1    22    23    1
     2    23    24   ar
     3    24    25   ar
     4    25    26   ar
     5    26    16    1
     6    16    17   ar
     7    17    18   ar
     8    18    19   ar
     9    19    14    1
    10    14    15    1
    11    14     1    1
    12     1     2    1
    13     2     3    1
    14     3     4    1
    15     4    29    1
    16    29    30    1
    17    30    31    1
    18    30    32    1
    19    30    33    1
    20     4     8    1
    21     8     9   ar
    22     9    10   ar
    23    10    11   ar
    24    11    12   ar
    25    12    13   ar
    26     4     5    1
    27     5     6    1
    28     6     7    2
    29    19    20   ar
    30    20    21   ar
    31    26    27   ar
    32    27    28   ar
    33    28    23   ar
    34    21    16   ar
    35     6     1   am
    36    13     8   ar
    37    33    34    1
