@<TRIPOS>MOLECULE
*****
 23 26 0 0 0
SMALL
GASTEIGER

@<TRIPOS>ATOM
      1 O          -8.8390   -3.9971   17.0010 O.2     1  UNL1       -0.2699
      2 C         -10.3067   -3.8350   17.2650 C.2     1  UNL1        0.2494
      3 N         -11.1645   -5.0430   17.4992 N.am    1  UNL1       -0.2684
      4 C         -10.5547   -6.4131   17.4693 C.3     1  UNL1        0.1204
      5 C         -11.4125   -7.6211   17.7034 C.3     1  UNL1        0.1486
      6 N         -12.8802   -7.4590   17.9674 N.ar    1  UNL1       -0.2515
      7 N         -13.9687   -8.4568   18.2316 N.ar    1  UNL1       -0.1680
      8 C         -15.2512   -7.7033   18.4249 C.ar    1  UNL1        0.1197
      9 C         -14.9554   -6.2398   18.2800 C.ar    1  UNL1        0.0384
     10 C         -13.4900   -6.0889   17.9973 C.ar    1  UNL1        0.0773
     11 C         -12.6322   -4.8809   17.7632 C.3     1  UNL1        0.1393
     12 C         -10.9165   -2.4649   17.2949 C.ar    1  UNL1        0.0536
     13 C         -11.4709   -1.9185   18.5772 C.ar    1  UNL1        0.0045
     14 C         -12.0807   -0.5483   18.6070 C.ar    1  UNL1        0.0001
     15 C         -12.1362    0.2754   17.3547 C.ar    1  UNL1        0.0000
     16 C         -11.5818   -0.2710   16.0725 C.ar    1  UNL1        0.0001
     17 C         -10.9719   -1.6411   16.0426 C.ar    1  UNL1        0.0045
     18 C         -16.5939   -8.3071   18.7125 C.ar    1  UNL1        0.1006
     19 C         -17.4552   -7.7369   19.8001 C.ar    1  UNL1        0.0207
     20 C         -18.7978   -8.3407   20.0877 C.ar    1  UNL1        0.0032
     21 C         -19.2791   -9.5147   19.2877 C.ar    1  UNL1        0.0207
     22 C         -18.4178  -10.0848   18.2000 C.ar    1  UNL1        0.0989
     23 N         -17.0752   -9.4811   17.9124 N.ar    1  UNL1       -0.2423
@<TRIPOS>BOND
     1     1     2    2
     2     2    12    1
     3    12    13   ar
     4    13    14   ar
     5    14    15   ar
     6    15    16   ar
     7    16    17   ar
     8     2     3   am
     9     3     4    1
    10     4     5    1
    11     5     6    1
    12     6     7   ar
    13     7     8   ar
    14     8    18    1
    15    18    19   ar
    16    19    20   ar
    17    20    21   ar
    18    21    22   ar
    19    22    23   ar
    20     8     9   ar
    21     9    10   ar
    22    10    11    1
    23    17    12   ar
    24    11     3    1
    25    10     6   ar
    26    23    18   ar
@<TRIPOS>MOLECULE
*****
 23 26 0 0 0
SMALL
GASTEIGER

@<TRIPOS>ATOM
      1 O           3.7729   -1.2164   16.2694 O.2     1  UNL1       -0.2699
      2 C           3.7323   -0.7958   17.7086 C.2     1  UNL1        0.2494
      3 N           4.3493   -1.6671   18.7623 N.am    1  UNL1       -0.2684
      4 C           5.0068   -2.9589   18.3768 C.3     1  UNL1        0.1204
      5 C           5.6237   -3.8302   19.4305 C.3     1  UNL1        0.1486
      6 N           5.5832   -3.4095   20.8697 N.ar    1  UNL1       -0.2515
      7 N           6.1029   -4.0562   22.1195 N.ar    1  UNL1       -0.1680
      8 C           5.7665   -3.1640   23.2773 C.ar    1  UNL1        0.1197
      9 C           5.0390   -1.9659   22.7432 C.ar    1  UNL1        0.0384
     10 C           4.9257   -2.1176   21.2553 C.ar    1  UNL1        0.0773
     11 C           4.3087   -1.2464   20.2016 C.3     1  UNL1        0.1393
     12 C           3.0748    0.4961   18.0942 C.ar    1  UNL1        0.0536
     13 C           3.8956    1.7443   18.2294 C.ar    1  UNL1        0.0045
     14 C           3.2380    3.0362   18.6150 C.ar    1  UNL1        0.0001
     15 C           1.7597    3.0799   18.8653 C.ar    1  UNL1        0.0000
     16 C           0.9389    1.8317   18.7300 C.ar    1  UNL1        0.0001
     17 C           1.5964    0.5398   18.3445 C.ar    1  UNL1        0.0045
     18 C           6.0993   -3.4241   24.7167 C.ar    1  UNL1        0.1006
     19 C           6.7813   -4.7009   25.1099 C.ar    1  UNL1        0.0207
     20 C           7.1141   -4.9611   26.5491 C.ar    1  UNL1        0.0032
     21 C           6.7648   -3.9444   27.5952 C.ar    1  UNL1        0.0207
     22 C           6.0828   -2.6676   27.2021 C.ar    1  UNL1        0.0989
     23 N           5.7500   -2.4075   25.7628 N.ar    1  UNL1       -0.2423
@<TRIPOS>BOND
     1     1     2    2
     2     2    12    1
     3    12    13   ar
     4    13    14   ar
     5    14    15   ar
     6    15    16   ar
     7    16    17   ar
     8     2     3   am
     9     3     4    1
    10     4     5    1
    11     5     6    1
    12     6     7   ar
    13     7     8   ar
    14     8    18    1
    15    18    19   ar
    16    19    20   ar
    17    20    21   ar
    18    21    22   ar
    19    22    23   ar
    20     8     9   ar
    21     9    10   ar
    22    10    11    1
    23    17    12   ar
    24    11     3    1
    25    10     6   ar
    26    23    18   ar
@<TRIPOS>MOLECULE
*****
 23 26 0 0 0
SMALL
GASTEIGER

@<TRIPOS>ATOM
      1 O           3.8912   -1.0431   16.4076 O.2     1  UNL1       -0.2699
      2 C           3.8582   -1.1289   17.9048 C.2     1  UNL1        0.2494
      3 N           2.8824   -0.2963   18.6824 N.am    1  UNL1       -0.2684
      4 C           1.9396    0.6220   17.9629 C.3     1  UNL1        0.1204
      5 C           0.9638    1.4545   18.7405 C.3     1  UNL1        0.1486
      6 N           0.9309    1.3687   20.2377 N.ar    1  UNL1       -0.2515
      7 N           0.0856    2.0625   21.2645 N.ar    1  UNL1       -0.1680
      8 C           0.5060    1.5730   22.6186 C.ar    1  UNL1        0.1197
      9 C           1.6111    0.5766   22.4287 C.ar    1  UNL1        0.0384
     10 C           1.8737    0.4504   20.9573 C.ar    1  UNL1        0.0773
     11 C           2.8494   -0.3821   20.1796 C.3     1  UNL1        0.1393
     12 C           4.8010   -2.0472   18.6243 C.ar    1  UNL1        0.0536
     13 C           4.3749   -3.4452   18.9621 C.ar    1  UNL1        0.0045
     14 C           5.3178   -4.3635   19.6817 C.ar    1  UNL1        0.0001
     15 C           6.6867   -3.8838   20.0634 C.ar    1  UNL1        0.0000
     16 C           7.1129   -2.4859   19.7256 C.ar    1  UNL1        0.0001
     17 C           6.1701   -1.5676   19.0061 C.ar    1  UNL1        0.0045
     18 C          -0.0764    2.0041   23.9320 C.ar    1  UNL1        0.1006
     19 C           0.2013    1.2084   25.1728 C.ar    1  UNL1        0.0207
     20 C          -0.3811    1.6394   26.4862 C.ar    1  UNL1        0.0032
     21 C          -1.2411    2.8662   26.5588 C.ar    1  UNL1        0.0207
     22 C          -1.5187    3.6620   25.3179 C.ar    1  UNL1        0.0989
     23 N          -0.9364    3.2309   24.0045 N.ar    1  UNL1       -0.2423
@<TRIPOS>BOND
     1     1     2    2
     2     2    12    1
     3    12    13   ar
     4    13    14   ar
     5    14    15   ar
     6    15    16   ar
     7    16    17   ar
     8     2     3   am
     9     3     4    1
    10     4     5    1
    11     5     6    1
    12     6     7   ar
    13     7     8   ar
    14     8    18    1
    15    18    19   ar
    16    19    20   ar
    17    20    21   ar
    18    21    22   ar
    19    22    23   ar
    20     8     9   ar
    21     9    10   ar
    22    10    11    1
    23    17    12   ar
    24    11     3    1
    25    10     6   ar
    26    23    18   ar
@<TRIPOS>MOLECULE
*****
 23 26 0 0 0
SMALL
GASTEIGER

@<TRIPOS>ATOM
      1 O           5.0997    3.4647   37.6811 O.2     1  UNL1       -0.2699
      2 C           3.8539    2.9355   37.0347 C.2     1  UNL1        0.2494
      3 N           3.7039    2.9845   35.5430 N.am    1  UNL1       -0.2684
      4 C           4.7998    3.5628   34.6977 C.3     1  UNL1        0.1204
      5 C           4.6499    3.6118   33.2060 C.3     1  UNL1        0.1486
      6 N           3.4041    3.0826   32.5597 N.ar    1  UNL1       -0.2515
      7 N           2.9763    2.9976   31.1244 N.ar    1  UNL1       -0.1680
      8 C           1.6161    2.3668   31.0827 C.ar    1  UNL1        0.1197
      9 C           1.2031    2.0619   32.4922 C.ar    1  UNL1        0.0384
     10 C           2.3082    2.5043   33.4050 C.ar    1  UNL1        0.0773
     11 C           2.4581    2.4553   34.8966 C.3     1  UNL1        0.1393
     12 C           2.7580    2.3572   37.8800 C.ar    1  UNL1        0.0536
     13 C           1.5762    3.2010   38.2560 C.ar    1  UNL1        0.0045
     14 C           0.4802    2.6226   39.1013 C.ar    1  UNL1        0.0001
     15 C           0.5661    1.2005   39.5706 C.ar    1  UNL1        0.0000
     16 C           1.7479    0.3568   39.1946 C.ar    1  UNL1        0.0001
     17 C           2.8438    0.9350   38.3493 C.ar    1  UNL1        0.0045
     18 C           0.8102    2.0895   29.8483 C.ar    1  UNL1        0.1006
     19 C           0.8462    3.0509   28.6975 C.ar    1  UNL1        0.0207
     20 C           0.0404    2.7737   27.4631 C.ar    1  UNL1        0.0032
     21 C          -0.8015    1.5350   27.3795 C.ar    1  UNL1        0.0207
     22 C          -0.8375    0.5736   28.5304 C.ar    1  UNL1        0.0989
     23 N          -0.0317    0.8509   29.7647 N.ar    1  UNL1       -0.2423
@<TRIPOS>BOND
     1     1     2    2
     2     2    12    1
     3    12    13   ar
     4    13    14   ar
     5    14    15   ar
     6    15    16   ar
     7    16    17   ar
     8     2     3   am
     9     3     4    1
    10     4     5    1
    11     5     6    1
    12     6     7   ar
    13     7     8   ar
    14     8    18    1
    15    18    19   ar
    16    19    20   ar
    17    20    21   ar
    18    21    22   ar
    19    22    23   ar
    20     8     9   ar
    21     9    10   ar
    22    10    11    1
    23    17    12   ar
    24    11     3    1
    25    10     6   ar
    26    23    18   ar
@<TRIPOS>MOLECULE
*****
 23 26 0 0 0
SMALL
GASTEIGER

@<TRIPOS>ATOM
      1 O           3.1458   -1.3928   27.9727 O.2     1  UNL1       -0.2699
      2 C           2.4840   -0.4463   28.9298 C.2     1  UNL1        0.2494
      3 N           3.0622   -0.2371   30.2981 N.am    1  UNL1       -0.2684
      4 C           4.3020   -0.9745   30.7092 C.3     1  UNL1        0.1204
      5 C           4.8801   -0.7653   32.0774 C.3     1  UNL1        0.1486
      6 N           4.2183    0.1813   33.0345 N.ar    1  UNL1       -0.2515
      7 N           4.5556    0.5880   34.4384 N.ar    1  UNL1       -0.1680
      8 C           3.5241    1.5767   34.8950 C.ar    1  UNL1        0.1197
      9 C           2.5494    1.7811   33.7732 C.ar    1  UNL1        0.0384
     10 C           2.9785    0.9186   32.6234 C.ar    1  UNL1        0.0773
     11 C           2.4004    0.7094   31.2552 C.3     1  UNL1        0.1393
     12 C           1.2442    0.2911   28.5188 C.ar    1  UNL1        0.0536
     13 C           1.3546    1.5678   27.7391 C.ar    1  UNL1        0.0045
     14 C           0.1146    2.3051   27.3280 C.ar    1  UNL1        0.0001
     15 C          -1.2356    1.7658   27.6966 C.ar    1  UNL1        0.0000
     16 C          -1.3460    0.4891   28.4763 C.ar    1  UNL1        0.0001
     17 C          -0.1061   -0.2483   28.8874 C.ar    1  UNL1        0.0045
     18 C           3.4758    2.2440   36.2376 C.ar    1  UNL1        0.1006
     19 C           4.7498    2.5768   36.9560 C.ar    1  UNL1        0.0207
     20 C           4.7015    3.2441   38.2985 C.ar    1  UNL1        0.0032
     21 C           3.3792    3.5785   38.9226 C.ar    1  UNL1        0.0207
     22 C           2.1052    3.2457   38.2042 C.ar    1  UNL1        0.0989
     23 N           2.1535    2.5785   36.8617 N.ar    1  UNL1       -0.2423
@<TRIPOS>BOND
     1     1     2    2
     2     2    12    1
     3    12    13   ar
     4    13    14   ar
     5    14    15   ar
     6    15    16   ar
     7    16    17   ar
     8     2     3   am
     9     3     4    1
    10     4     5    1
    11     5     6    1
    12     6     7   ar
    13     7     8   ar
    14     8    18    1
    15    18    19   ar
    16    19    20   ar
    17    20    21   ar
    18    21    22   ar
    19    22    23   ar
    20     8     9   ar
    21     9    10   ar
    22    10    11    1
    23    17    12   ar
    24    11     3    1
    25    10     6   ar
    26    23    18   ar
@<TRIPOS>MOLECULE
*****
 23 26 0 0 0
SMALL
GASTEIGER

@<TRIPOS>ATOM
      1 O          -2.9087    5.3553   19.3950 O.2     1  UNL1       -0.2699
      2 C          -2.4661    4.2429   20.2987 C.2     1  UNL1        0.2494
      3 N          -1.3395    3.3432   19.8845 N.am    1  UNL1       -0.2684
      4 C          -0.6556    3.5560   18.5666 C.3     1  UNL1        0.1204
      5 C           0.4710    2.6564   18.1524 C.3     1  UNL1        0.1486
      6 N           0.9135    1.5440   19.0561 N.ar    1  UNL1       -0.2515
      7 N           1.9866    0.5050   18.9176 N.ar    1  UNL1       -0.1680
      8 C           1.9657   -0.3499   20.1499 C.ar    1  UNL1        0.1197
      9 C           0.8799    0.1607   21.0500 C.ar    1  UNL1        0.0384
     10 C           0.2296    1.3312   20.3740 C.ar    1  UNL1        0.0773
     11 C          -0.8969    2.2308   20.7882 C.3     1  UNL1        0.1393
     12 C          -3.1500    4.0301   21.6166 C.ar    1  UNL1        0.0536
     13 C          -2.5785    4.6350   22.8646 C.ar    1  UNL1        0.0045
     14 C          -3.2625    4.4222   24.1825 C.ar    1  UNL1        0.0001
     15 C          -4.5180    3.6045   24.2525 C.ar    1  UNL1        0.0000
     16 C          -5.0896    2.9995   23.0045 C.ar    1  UNL1        0.0001
     17 C          -4.4056    3.2123   21.6867 C.ar    1  UNL1        0.0045
     18 C           2.8717   -1.5116   20.4325 C.ar    1  UNL1        0.1006
     19 C           3.4865   -1.6699   21.7916 C.ar    1  UNL1        0.0207
     20 C           4.3924   -2.8315   22.0742 C.ar    1  UNL1        0.0032
     21 C           4.6835   -3.8348   20.9979 C.ar    1  UNL1        0.0207
     22 C           4.0687   -3.6765   19.6389 C.ar    1  UNL1        0.0989
     23 N           3.1628   -2.5149   19.3562 N.ar    1  UNL1       -0.2423
@<TRIPOS>BOND
     1     1     2    2
     2     2    12    1
     3    12    13   ar
     4    13    14   ar
     5    14    15   ar
     6    15    16   ar
     7    16    17   ar
     8     2     3   am
     9     3     4    1
    10     4     5    1
    11     5     6    1
    12     6     7   ar
    13     7     8   ar
    14     8    18    1
    15    18    19   ar
    16    19    20   ar
    17    20    21   ar
    18    21    22   ar
    19    22    23   ar
    20     8     9   ar
    21     9    10   ar
    22    10    11    1
    23    17    12   ar
    24    11     3    1
    25    10     6   ar
    26    23    18   ar
@<TRIPOS>MOLECULE
*****
 23 26 0 0 0
SMALL
GASTEIGER

@<TRIPOS>ATOM
      1 O           3.8230   -1.2691   17.6088 O.2     1  UNL1       -0.2699
      2 C           3.6803   -1.2042   19.1006 C.2     1  UNL1        0.2494
      3 N           4.5307   -2.0783   19.9741 N.am    1  UNL1       -0.2684
      4 C           5.5237   -3.0172   19.3558 C.3     1  UNL1        0.1204
      5 C           6.3740   -3.8912   20.2293 C.3     1  UNL1        0.1486
      6 N           6.2314   -3.8263   21.7211 N.ar    1  UNL1       -0.2515
      7 N           6.9269   -4.5608   22.8288 N.ar    1  UNL1       -0.1680
      8 C           6.3636   -4.0758   24.1316 C.ar    1  UNL1        0.1197
      9 C           5.3201   -3.0416   23.8292 C.ar    1  UNL1        0.0384
     10 C           5.2383   -2.8874   22.3394 C.ar    1  UNL1        0.0773
     11 C           4.3880   -2.0134   21.4659 C.3     1  UNL1        0.1393
     12 C           2.6873   -0.2653   19.7189 C.ar    1  UNL1        0.0536
     13 C           1.2840   -0.7250   19.9827 C.ar    1  UNL1        0.0045
     14 C           0.2910    0.2140   20.6011 C.ar    1  UNL1        0.0001
     15 C           0.7012    1.6125   20.9556 C.ar    1  UNL1        0.0000
     16 C           2.1045    2.0722   20.6919 C.ar    1  UNL1        0.0001
     17 C           3.0975    1.1333   20.0735 C.ar    1  UNL1        0.0045
     18 C           6.7722   -4.5430   25.4973 C.ar    1  UNL1        0.1006
     19 C           6.6966   -3.6043   26.6648 C.ar    1  UNL1        0.0207
     20 C           7.1051   -4.0713   28.0304 C.ar    1  UNL1        0.0032
     21 C           7.5893   -5.4772   28.2285 C.ar    1  UNL1        0.0207
     22 C           7.6649   -6.4159   27.0609 C.ar    1  UNL1        0.0989
     23 N           7.2563   -5.9488   25.6954 N.ar    1  UNL1       -0.2423
@<TRIPOS>BOND
     1     1     2    2
     2     2    12    1
     3    12    13   ar
     4    13    14   ar
     5    14    15   ar
     6    15    16   ar
     7    16    17   ar
     8     2     3   am
     9     3     4    1
    10     4     5    1
    11     5     6    1
    12     6     7   ar
    13     7     8   ar
    14     8    18    1
    15    18    19   ar
    16    19    20   ar
    17    20    21   ar
    18    21    22   ar
    19    22    23   ar
    20     8     9   ar
    21     9    10   ar
    22    10    11    1
    23    17    12   ar
    24    11     3    1
    25    10     6   ar
    26    23    18   ar
@<TRIPOS>MOLECULE
*****
 23 26 0 0 0
SMALL
GASTEIGER

@<TRIPOS>ATOM
      1 O          -1.8992    3.7406   26.5580 O.2     1  UNL1       -0.2699
      2 C          -0.8665    2.7132   26.2001 C.2     1  UNL1        0.2494
      3 N          -0.4953    2.4916   24.7636 N.am    1  UNL1       -0.2684
      4 C          -1.1568    3.2975   23.6852 C.3     1  UNL1        0.1204
      5 C          -0.7856    3.0759   22.2489 C.3     1  UNL1        0.1486
      6 N           0.2470    2.0485   21.8910 N.ar    1  UNL1       -0.2515
      7 N           0.8134    1.6117   20.5724 N.ar    1  UNL1       -0.1680
      8 C           1.8250    0.5359   20.8360 C.ar    1  UNL1        0.1197
      9 C           1.8837    0.3079   22.3175 C.ar    1  UNL1        0.0384
     10 C           0.9085    1.2427   22.9694 C.ar    1  UNL1        0.0773
     11 C           0.5373    1.4642   24.4058 C.3     1  UNL1        0.1393
     12 C          -0.2050    1.9074   27.2785 C.ar    1  UNL1        0.0536
     13 C           1.1211    2.3391   27.8308 C.ar    1  UNL1        0.0045
     14 C           1.7826    1.5332   28.9093 C.ar    1  UNL1        0.0001
     15 C           1.1179    0.2957   29.4354 C.ar    1  UNL1        0.0000
     16 C          -0.2082   -0.1360   28.8831 C.ar    1  UNL1        0.0001
     17 C          -0.8697    0.6698   27.8047 C.ar    1  UNL1        0.0045
     18 C           2.6355   -0.1852   19.8001 C.ar    1  UNL1        0.1006
     19 C           2.7096    0.3488   18.4004 C.ar    1  UNL1        0.0207
     20 C           3.5201   -0.3723   17.3645 C.ar    1  UNL1        0.0032
     21 C           4.2564   -1.6273   17.7283 C.ar    1  UNL1        0.0207
     22 C           4.1824   -2.1614   19.1281 C.ar    1  UNL1        0.0989
     23 N           3.3719   -1.4403   20.1640 N.ar    1  UNL1       -0.2423
@<TRIPOS>BOND
     1     1     2    2
     2     2    12    1
     3    12    13   ar
     4    13    14   ar
     5    14    15   ar
     6    15    16   ar
     7    16    17   ar
     8     2     3   am
     9     3     4    1
    10     4     5    1
    11     5     6    1
    12     6     7   ar
    13     7     8   ar
    14     8    18    1
    15    18    19   ar
    16    19    20   ar
    17    20    21   ar
    18    21    22   ar
    19    22    23   ar
    20     8     9   ar
    21     9    10   ar
    22    10    11    1
    23    17    12   ar
    24    11     3    1
    25    10     6   ar
    26    23    18   ar
@<TRIPOS>MOLECULE
*****
 23 26 0 0 0
SMALL
GASTEIGER

@<TRIPOS>ATOM
      1 O           6.2677   -0.5367   36.9822 O.2     1  UNL1       -0.2699
      2 C           5.2131    0.3390   36.3729 C.2     1  UNL1        0.2494
      3 N           4.7118    0.0563   34.9877 N.am    1  UNL1       -0.2684
      4 C           5.2649   -1.1021   34.2118 C.3     1  UNL1        0.1204
      5 C           4.7636   -1.3848   32.8266 C.3     1  UNL1        0.1486
      6 N           3.7091   -0.5091   32.2174 N.ar    1  UNL1       -0.2515
      7 N           3.0257   -0.5415   30.8824 N.ar    1  UNL1       -0.1680
      8 C           2.0502    0.5969   30.8334 C.ar    1  UNL1        0.1197
      9 C           2.1307    1.3329   32.1380 C.ar    1  UNL1        0.0384
     10 C           3.1559    0.6493   32.9933 C.ar    1  UNL1        0.0773
     11 C           3.6573    0.9320   34.3785 C.3     1  UNL1        0.1393
     12 C           4.6600    1.4974   37.1489 C.ar    1  UNL1        0.0536
     13 C           5.2942    2.8515   37.0293 C.ar    1  UNL1        0.0045
     14 C           4.7409    4.0099   37.8053 C.ar    1  UNL1        0.0001
     15 C           3.5536    3.8142   38.7008 C.ar    1  UNL1        0.0000
     16 C           2.9195    2.4601   38.8203 C.ar    1  UNL1        0.0001
     17 C           3.4726    1.3017   38.0444 C.ar    1  UNL1        0.0045
     18 C           1.1519    0.9393   29.6819 C.ar    1  UNL1        0.1006
     19 C           1.5358    2.0340   28.7309 C.ar    1  UNL1        0.0207
     20 C           0.6376    2.3764   27.5795 C.ar    1  UNL1        0.0032
     21 C          -0.6446    1.6242   27.3790 C.ar    1  UNL1        0.0207
     22 C          -1.0285    0.5296   28.3300 C.ar    1  UNL1        0.0989
     23 N          -0.1303    0.1871   29.4815 N.ar    1  UNL1       -0.2423
@<TRIPOS>BOND
     1     1     2    2
     2     2    12    1
     3    12    13   ar
     4    13    14   ar
     5    14    15   ar
     6    15    16   ar
     7    16    17   ar
     8     2     3   am
     9     3     4    1
    10     4     5    1
    11     5     6    1
    12     6     7   ar
    13     7     8   ar
    14     8    18    1
    15    18    19   ar
    16    19    20   ar
    17    20    21   ar
    18    21    22   ar
    19    22    23   ar
    20     8     9   ar
    21     9    10   ar
    22    10    11    1
    23    17    12   ar
    24    11     3    1
    25    10     6   ar
    26    23    18   ar
