@<TRIPOS>MOLECULE
*****
 28 30 0 0 0
SMALL
GASTEIGER

@<TRIPOS>ATOM
      1 C          -7.0719  -15.6152   25.0025 C.ar    1  UNL1        0.1889
      2 C          -8.5641  -15.7449   25.0816 C.ar    1  UNL1        0.1403
      3 N          -9.3208  -16.3960   23.9620 N.ar    1  UNL1       -0.2204
      4 C          -8.5852  -16.9175   22.7633 C.ar    1  UNL1        0.1816
      5 N          -7.0929  -16.7878   22.6843 N.ar    1  UNL1       -0.2074
      6 C          -6.3363  -16.1367   23.8039 C.ar    1  UNL1        0.1663
      7 C          -9.3418  -17.5687   21.6437 C.ar    1  UNL1        0.1170
      8 C          -8.9818  -18.9564   21.2027 C.ar    1  UNL1        0.0223
      9 C          -9.7384  -19.6076   20.0831 C.ar    1  UNL1        0.0032
     10 C         -10.8551  -18.8710   19.4045 C.ar    1  UNL1        0.0207
     11 C         -11.2150  -17.4832   19.8455 C.ar    1  UNL1        0.0989
     12 N         -10.4584  -16.8321   20.9651 N.ar    1  UNL1       -0.2407
     13 C          -6.7185  -15.2143   27.5450 C.3     1  UNL1        0.2527
     14 O          -6.3153  -14.9641   26.1221 O.3     1  UNL1       -0.4670
     15 N          -4.8439  -16.0070   23.7247 N.pl3   1  UNL1       -0.3119
     16 H          -4.4223  -15.1203   23.7975 H       1  UNL1        0.1486
     17 C          -3.9940  -17.2283   23.5348 C.3     1  UNL1        0.1154
     18 C          -3.2497  -17.4314   22.2485 C.ar    1  UNL1        0.0014
     19 C          -2.1155  -16.5192   21.8861 C.ar    1  UNL1       -0.0004
     20 C          -1.3712  -16.7224   20.5997 C.ar    1  UNL1        0.0294
     21 C          -1.7612  -17.8378   19.6757 C.ar    1  UNL1        0.1401
     22 F          -1.0169  -18.0409   18.3893 F       1  UNL1       -0.2042
     23 C          -2.8954  -18.7500   20.0380 C.ar    1  UNL1        0.0332
     24 C          -3.6397  -18.5469   21.3244 C.ar    1  UNL1        0.0713
     25 C          -4.7740  -19.4591   21.6867 C.3     1  UNL1        0.4184
     26 F          -5.9082  -20.3713   22.0490 F       1  UNL1       -0.1659
     27 F          -3.9309  -20.0810   22.7602 F       1  UNL1       -0.1659
     28 F          -5.6171  -18.8372   20.6132 F       1  UNL1       -0.1659
@<TRIPOS>BOND
     1    13    14    1
     2    14     1    1
     3     1     2   ar
     4     2     3   ar
     5     3     4   ar
     6     4     7    1
     7     7     8   ar
     8     8     9   ar
     9     9    10   ar
    10    10    11   ar
    11    11    12   ar
    12     4     5   ar
    13     5     6   ar
    14     6    15    1
    15    15    17    1
    16    17    18    1
    17    18    19   ar
    18    19    20   ar
    19    20    21   ar
    20    21    22    1
    21    21    23   ar
    22    23    24   ar
    23    24    25    1
    24    25    26    1
    25    25    27    1
    26    25    28    1
    27     6     1   ar
    28    24    18   ar
    29    12     7   ar
    30    15    16    1
@<TRIPOS>MOLECULE
*****
 28 30 0 0 0
SMALL
GASTEIGER

@<TRIPOS>ATOM
      1 C          -9.9527  -19.3529   21.1377 C.ar    1  UNL1        0.1889
      2 C          -9.1886  -19.1954   19.8566 C.ar    1  UNL1        0.1403
      3 N          -7.6887  -19.1931   19.8734 N.ar    1  UNL1       -0.2204
      4 C          -6.9529  -19.3484   21.1712 C.ar    1  UNL1        0.1816
      5 N          -7.7170  -19.5060   22.4523 N.ar    1  UNL1       -0.2074
      6 C          -9.2169  -19.5082   22.4356 C.ar    1  UNL1        0.1663
      7 C          -5.4530  -19.3462   21.1879 C.ar    1  UNL1        0.1170
      8 C          -4.6917  -20.2850   20.2998 C.ar    1  UNL1        0.0223
      9 C          -3.1918  -20.2828   20.3165 C.ar    1  UNL1        0.0032
     10 C          -2.4532  -19.3417   21.2214 C.ar    1  UNL1        0.0207
     11 C          -3.2146  -18.4029   22.1095 C.ar    1  UNL1        0.0989
     12 N          -4.7145  -18.4051   22.0928 N.ar    1  UNL1       -0.2407
     13 C         -12.2050  -18.0579   21.1521 C.3     1  UNL1        0.2527
     14 O         -11.4526  -19.3552   21.1210 O.3     1  UNL1       -0.4670
     15 N          -9.9810  -19.6658   23.7168 N.pl3   1  UNL1       -0.3119
     16 H         -10.1182  -20.5617   24.1011 H       1  UNL1        0.1486
     17 C         -10.5361  -18.4582   24.4123 C.3     1  UNL1        0.1154
     18 C          -9.6139  -17.5104   25.1202 C.ar    1  UNL1        0.0014
     19 C          -9.2780  -17.7298   26.5656 C.ar    1  UNL1       -0.0004
     20 C          -8.3557  -16.7820   27.2735 C.ar    1  UNL1        0.0294
     21 C          -7.7694  -15.6148   26.5361 C.ar    1  UNL1        0.1401
     22 F          -6.8472  -14.6670   27.2440 F       1  UNL1       -0.2042
     23 C          -8.1053  -15.3954   25.0907 C.ar    1  UNL1        0.0332
     24 C          -9.0275  -16.3432   24.3828 C.ar    1  UNL1        0.0713
     25 C          -9.3634  -16.1238   22.9374 C.3     1  UNL1        0.4184
     26 F          -9.6993  -15.9043   21.4921 F       1  UNL1       -0.1659
     27 F         -10.7848  -15.8262   23.3130 F       1  UNL1       -0.1659
     28 F          -7.9420  -16.4213   22.5619 F       1  UNL1       -0.1659
@<TRIPOS>BOND
     1    13    14    1
     2    14     1    1
     3     1     2   ar
     4     2     3   ar
     5     3     4   ar
     6     4     7    1
     7     7     8   ar
     8     8     9   ar
     9     9    10   ar
    10    10    11   ar
    11    11    12   ar
    12     4     5   ar
    13     5     6   ar
    14     6    15    1
    15    15    17    1
    16    17    18    1
    17    18    19   ar
    18    19    20   ar
    19    20    21   ar
    20    21    22    1
    21    21    23   ar
    22    23    24   ar
    23    24    25    1
    24    25    26    1
    25    25    27    1
    26    25    28    1
    27     6     1   ar
    28    24    18   ar
    29    12     7   ar
    30    15    16    1
@<TRIPOS>MOLECULE
*****
 28 30 0 0 0
SMALL
GASTEIGER

@<TRIPOS>ATOM
      1 C          -6.9614  -15.6323   25.0653 C.ar    1  UNL1        0.1889
      2 C          -8.4427  -15.6345   25.3015 C.ar    1  UNL1        0.1403
      3 N          -9.3789  -16.0063   24.1901 N.ar    1  UNL1       -0.2204
      4 C          -8.8339  -16.3760   22.8425 C.ar    1  UNL1        0.1816
      5 N          -7.3526  -16.3738   22.6062 N.ar    1  UNL1       -0.2074
      6 C          -6.4164  -16.0019   23.7176 C.ar    1  UNL1        0.1663
      7 C          -9.7701  -16.7479   21.7311 C.ar    1  UNL1        0.1170
      8 C         -10.0973  -18.1894   21.4768 C.ar    1  UNL1        0.0223
      9 C         -11.0335  -18.5613   20.3654 C.ar    1  UNL1        0.0032
     10 C         -11.6425  -17.4916   19.5082 C.ar    1  UNL1        0.0207
     11 C         -11.3152  -16.0500   19.7625 C.ar    1  UNL1        0.0989
     12 N         -10.3790  -15.6781   20.8739 N.ar    1  UNL1       -0.2407
     13 C          -6.5385  -15.1397   27.5809 C.3     1  UNL1        0.2527
     14 O          -6.0252  -15.2604   26.1767 O.3     1  UNL1       -0.4670
     15 N          -4.9351  -15.9998   23.4813 N.pl3   1  UNL1       -0.3119
     16 H          -4.4716  -15.1574   23.2695 H       1  UNL1        0.1486
     17 C          -4.1599  -17.2810   23.5677 C.3     1  UNL1        0.1154
     18 C          -4.2304  -18.2772   22.4485 C.ar    1  UNL1        0.0014
     19 C          -5.3662  -19.2548   22.3849 C.ar    1  UNL1       -0.0004
     20 C          -5.4366  -20.2510   21.2656 C.ar    1  UNL1        0.0294
     21 C          -4.3712  -20.2694   20.2099 C.ar    1  UNL1        0.1401
     22 F          -4.4417  -21.2655   19.0907 F       1  UNL1       -0.2042
     23 C          -3.2354  -19.2918   20.2735 C.ar    1  UNL1        0.0332
     24 C          -3.1649  -18.2957   21.3927 C.ar    1  UNL1        0.0713
     25 C          -2.0291  -17.3180   21.4563 C.3     1  UNL1        0.4184
     26 F          -0.8932  -16.3404   21.5199 F       1  UNL1       -0.1659
     27 F          -2.7590  -16.4086   20.5128 F       1  UNL1       -0.1659
     28 F          -1.2991  -18.2274   22.3998 F       1  UNL1       -0.1659
@<TRIPOS>BOND
     1    13    14    1
     2    14     1    1
     3     1     2   ar
     4     2     3   ar
     5     3     4   ar
     6     4     7    1
     7     7     8   ar
     8     8     9   ar
     9     9    10   ar
    10    10    11   ar
    11    11    12   ar
    12     4     5   ar
    13     5     6   ar
    14     6    15    1
    15    15    17    1
    16    17    18    1
    17    18    19   ar
    18    19    20   ar
    19    20    21   ar
    20    21    22    1
    21    21    23   ar
    22    23    24   ar
    23    24    25    1
    24    25    26    1
    25    25    27    1
    26    25    28    1
    27     6     1   ar
    28    24    18   ar
    29    12     7   ar
    30    15    16    1
@<TRIPOS>MOLECULE
*****
 28 30 0 0 0
SMALL
GASTEIGER

@<TRIPOS>ATOM
      1 C          -7.4306  -19.7841   22.2431 C.ar    1  UNL1        0.1889
      2 C          -6.4300  -20.6987   21.6012 C.ar    1  UNL1        0.1403
      3 N          -5.0736  -20.1805   21.2247 N.ar    1  UNL1       -0.2204
      4 C          -4.7179  -18.7477   21.4902 C.ar    1  UNL1        0.1816
      5 N          -5.7186  -17.8331   22.1321 N.ar    1  UNL1       -0.2074
      6 C          -7.0749  -18.3513   22.5086 C.ar    1  UNL1        0.1663
      7 C          -3.3615  -18.2295   21.1137 C.ar    1  UNL1        0.1170
      8 C          -2.5218  -18.9776   20.1212 C.ar    1  UNL1        0.0223
      9 C          -1.1654  -18.4594   19.7447 C.ar    1  UNL1        0.0032
     10 C          -0.6488  -17.1931   20.3608 C.ar    1  UNL1        0.0207
     11 C          -1.4885  -16.4450   21.3533 C.ar    1  UNL1        0.0989
     12 N          -2.8449  -16.9632   21.7298 N.ar    1  UNL1       -0.2407
     13 C          -9.0634  -20.7234   24.0324 C.3     1  UNL1        0.2527
     14 O          -8.7870  -20.3023   22.6196 O.3     1  UNL1       -0.4670
     15 N          -8.0756  -17.4366   23.1505 N.pl3   1  UNL1       -0.3119
     16 H          -7.9677  -17.1725   24.0928 H       1  UNL1        0.1486
     17 C          -9.2408  -16.9243   22.3568 C.3     1  UNL1        0.1154
     18 C         -10.6374  -17.3208   22.7337 C.ar    1  UNL1        0.0014
     19 C         -10.9091  -17.9196   24.0819 C.ar    1  UNL1       -0.0004
     20 C         -12.3058  -18.3161   24.4588 C.ar    1  UNL1        0.0294
     21 C         -13.4309  -18.1136   23.4876 C.ar    1  UNL1        0.1401
     22 F         -14.8275  -18.5100   23.8646 F       1  UNL1       -0.2042
     23 C         -13.1592  -17.5148   22.1395 C.ar    1  UNL1        0.0332
     24 C         -11.7626  -17.1183   21.7625 C.ar    1  UNL1        0.0713
     25 C         -11.4909  -16.5195   20.4143 C.3     1  UNL1        0.4184
     26 F         -11.2193  -15.9206   19.0661 F       1  UNL1       -0.1659
     27 F         -11.6534  -17.8698   19.7817 F       1  UNL1       -0.1659
     28 F         -11.3284  -15.1691   21.0469 F       1  UNL1       -0.1659
@<TRIPOS>BOND
     1    13    14    1
     2    14     1    1
     3     1     2   ar
     4     2     3   ar
     5     3     4   ar
     6     4     7    1
     7     7     8   ar
     8     8     9   ar
     9     9    10   ar
    10    10    11   ar
    11    11    12   ar
    12     4     5   ar
    13     5     6   ar
    14     6    15    1
    15    15    17    1
    16    17    18    1
    17    18    19   ar
    18    19    20   ar
    19    20    21   ar
    20    21    22    1
    21    21    23   ar
    22    23    24   ar
    23    24    25    1
    24    25    26    1
    25    25    27    1
    26    25    28    1
    27     6     1   ar
    28    24    18   ar
    29    12     7   ar
    30    15    16    1
@<TRIPOS>MOLECULE
*****
 28 30 0 0 0
SMALL
GASTEIGER

@<TRIPOS>ATOM
      1 C          -5.3807  -18.9782   20.8102 C.ar    1  UNL1        0.1889
      2 C          -4.3369  -18.5932   21.8162 C.ar    1  UNL1        0.1403
      3 N          -4.7140  -17.7653   23.0089 N.ar    1  UNL1       -0.2204
      4 C          -6.1349  -17.3225   23.1955 C.ar    1  UNL1        0.1816
      5 N          -7.1787  -17.7075   22.1894 N.ar    1  UNL1       -0.2074
      6 C          -6.8016  -18.5354   20.9968 C.ar    1  UNL1        0.1663
      7 C          -6.5120  -16.4946   24.3881 C.ar    1  UNL1        0.1170
      8 C          -5.4436  -15.8692   25.2351 C.ar    1  UNL1        0.0223
      9 C          -5.8207  -15.0413   26.4278 C.ar    1  UNL1        0.0032
     10 C          -7.2662  -14.8389   26.7734 C.ar    1  UNL1        0.0207
     11 C          -8.3346  -15.4642   25.9265 C.ar    1  UNL1        0.0989
     12 N          -7.9575  -16.2921   24.7338 N.ar    1  UNL1       -0.2407
     13 C          -3.8378  -20.7467   19.6958 C.3     1  UNL1        0.2527
     14 O          -5.0036  -19.8061   19.6175 O.3     1  UNL1       -0.4670
     15 N          -7.8455  -18.9204   19.9907 N.pl3   1  UNL1       -0.3119
     16 H          -7.6526  -18.8460   19.0282 H       1  UNL1        0.1486
     17 C          -9.1832  -19.4188   20.4513 C.3     1  UNL1        0.1154
     18 C         -10.1788  -18.4622   21.0375 C.ar    1  UNL1        0.0014
     19 C         -10.6584  -17.2915   20.2316 C.ar    1  UNL1       -0.0004
     20 C         -11.6540  -16.3349   20.8179 C.ar    1  UNL1        0.0294
     21 C         -12.1700  -16.5490   22.2100 C.ar    1  UNL1        0.1401
     22 F         -13.1656  -15.5924   22.7962 F       1  UNL1       -0.2042
     23 C         -11.6904  -17.7197   23.0158 C.ar    1  UNL1        0.0332
     24 C         -10.6948  -18.6763   22.4296 C.ar    1  UNL1        0.0713
     25 C         -10.2153  -19.8471   23.2355 C.3     1  UNL1        0.4184
     26 F          -9.7357  -21.0178   24.0413 F       1  UNL1       -0.1659
     27 F         -11.1459  -20.7485   22.4796 F       1  UNL1       -0.1659
     28 F          -9.2846  -18.9456   23.9913 F       1  UNL1       -0.1659
@<TRIPOS>BOND
     1    13    14    1
     2    14     1    1
     3     1     2   ar
     4     2     3   ar
     5     3     4   ar
     6     4     7    1
     7     7     8   ar
     8     8     9   ar
     9     9    10   ar
    10    10    11   ar
    11    11    12   ar
    12     4     5   ar
    13     5     6   ar
    14     6    15    1
    15    15    17    1
    16    17    18    1
    17    18    19   ar
    18    19    20   ar
    19    20    21   ar
    20    21    22    1
    21    21    23   ar
    22    23    24   ar
    23    24    25    1
    24    25    26    1
    25    25    27    1
    26    25    28    1
    27     6     1   ar
    28    24    18   ar
    29    12     7   ar
    30    15    16    1
@<TRIPOS>MOLECULE
*****
 28 30 0 0 0
SMALL
GASTEIGER

@<TRIPOS>ATOM
      1 C          -5.4044  -19.1692   20.9532 C.ar    1  UNL1        0.1889
      2 C          -4.3214  -18.5302   21.7710 C.ar    1  UNL1        0.1403
      3 N          -4.6785  -17.6552   22.9358 N.ar    1  UNL1       -0.2204
      4 C          -6.1185  -17.4191   23.2829 C.ar    1  UNL1        0.1816
      5 N          -7.2015  -18.0580   22.4651 N.ar    1  UNL1       -0.2074
      6 C          -6.8445  -18.9331   21.3003 C.ar    1  UNL1        0.1663
      7 C          -6.4755  -16.5440   24.4477 C.ar    1  UNL1        0.1170
      8 C          -5.3942  -15.8655   25.2352 C.ar    1  UNL1        0.0223
      9 C          -5.7512  -14.9904   26.4000 C.ar    1  UNL1        0.0032
     10 C          -7.1896  -14.7939   26.7773 C.ar    1  UNL1        0.0207
     11 C          -8.2709  -15.4724   25.9898 C.ar    1  UNL1        0.0989
     12 N          -7.9139  -16.3474   24.8249 N.ar    1  UNL1       -0.2407
     13 C          -3.6246  -20.4701   19.5787 C.3     1  UNL1        0.2527
     14 O          -5.0474  -20.0442   19.7884 O.3     1  UNL1       -0.4670
     15 N          -7.9276  -19.5720   20.4825 N.pl3   1  UNL1       -0.3119
     16 H          -7.7915  -20.4690   20.1002 H       1  UNL1        0.1486
     17 C          -9.2180  -18.8443   20.2473 C.3     1  UNL1        0.1154
     18 C         -10.2201  -18.7170   21.3560 C.ar    1  UNL1        0.0014
     19 C         -10.2878  -19.7625   22.4295 C.ar    1  UNL1       -0.0004
     20 C         -11.2901  -19.6351   23.5383 C.ar    1  UNL1        0.0294
     21 C         -12.2245  -18.4623   23.5736 C.ar    1  UNL1        0.1401
     22 F         -13.2266  -18.3350   24.6824 F       1  UNL1       -0.2042
     23 C         -12.1568  -17.4168   22.5001 C.ar    1  UNL1        0.0332
     24 C         -11.1546  -17.5441   21.3914 C.ar    1  UNL1        0.0713
     25 C         -11.0869  -16.4986   20.3179 C.3     1  UNL1        0.4184
     26 F         -11.0192  -15.4532   19.2444 F       1  UNL1       -0.1659
     27 F         -10.3115  -15.6036   21.2385 F       1  UNL1       -0.1659
     28 F         -11.8623  -17.3937   19.3972 F       1  UNL1       -0.1659
@<TRIPOS>BOND
     1    13    14    1
     2    14     1    1
     3     1     2   ar
     4     2     3   ar
     5     3     4   ar
     6     4     7    1
     7     7     8   ar
     8     8     9   ar
     9     9    10   ar
    10    10    11   ar
    11    11    12   ar
    12     4     5   ar
    13     5     6   ar
    14     6    15    1
    15    15    17    1
    16    17    18    1
    17    18    19   ar
    18    19    20   ar
    19    20    21   ar
    20    21    22    1
    21    21    23   ar
    22    23    24   ar
    23    24    25    1
    24    25    26    1
    25    25    27    1
    26    25    28    1
    27     6     1   ar
    28    24    18   ar
    29    12     7   ar
    30    15    16    1
@<TRIPOS>MOLECULE
*****
 28 30 0 0 0
SMALL
GASTEIGER

@<TRIPOS>ATOM
      1 C          -6.6252  -16.2073   24.0069 C.ar    1  UNL1        0.1889
      2 C          -7.6379  -15.5737   24.9140 C.ar    1  UNL1        0.1403
      3 N          -9.0823  -15.9658   24.8155 N.ar    1  UNL1       -0.2204
      4 C          -9.5141  -16.9915   23.8099 C.ar    1  UNL1        0.1816
      5 N          -8.5015  -17.6252   22.9028 N.ar    1  UNL1       -0.2074
      6 C          -7.0570  -17.2331   23.0013 C.ar    1  UNL1        0.1663
      7 C         -10.9586  -17.3837   23.7114 C.ar    1  UNL1        0.1170
      8 C         -11.8321  -16.7704   22.6574 C.ar    1  UNL1        0.0223
      9 C         -13.2765  -17.1625   22.5589 C.ar    1  UNL1        0.0032
     10 C         -13.8476  -18.1679   23.5144 C.ar    1  UNL1        0.0207
     11 C         -12.9742  -18.7811   24.5684 C.ar    1  UNL1        0.0989
     12 N         -11.5297  -18.3890   24.6669 N.ar    1  UNL1       -0.2407
     13 C          -4.6119  -15.3720   25.4207 C.3     1  UNL1        0.2527
     14 O          -5.1807  -15.8152   24.1054 O.3     1  UNL1       -0.4670
     15 N          -6.0443  -17.8668   22.0941 N.pl3   1  UNL1       -0.3119
     16 H          -6.2624  -18.0250   21.1472 H       1  UNL1        0.1486
     17 C          -4.6993  -18.2593   22.6297 C.3     1  UNL1        0.1154
     18 C          -3.4561  -17.9014   21.8705 C.ar    1  UNL1        0.0014
     19 C          -2.6081  -16.7488   22.3206 C.ar    1  UNL1       -0.0004
     20 C          -1.3649  -16.3909   21.5614 C.ar    1  UNL1        0.0294
     21 C          -0.9697  -17.1856   20.3521 C.ar    1  UNL1        0.1401
     22 F           0.2735  -16.8277   19.5930 F       1  UNL1       -0.2042
     23 C          -1.8176  -18.3382   19.9021 C.ar    1  UNL1        0.0332
     24 C          -3.0608  -18.6961   20.6612 C.ar    1  UNL1        0.0713
     25 C          -3.9087  -19.8487   20.2112 C.3     1  UNL1        0.4184
     26 F          -4.7567  -21.0013   19.7611 F       1  UNL1       -0.1659
     27 F          -3.0837  -20.7820   21.0468 F       1  UNL1       -0.1659
     28 F          -4.7337  -18.9154   19.3755 F       1  UNL1       -0.1659
@<TRIPOS>BOND
     1    13    14    1
     2    14     1    1
     3     1     2   ar
     4     2     3   ar
     5     3     4   ar
     6     4     7    1
     7     7     8   ar
     8     8     9   ar
     9     9    10   ar
    10    10    11   ar
    11    11    12   ar
    12     4     5   ar
    13     5     6   ar
    14     6    15    1
    15    15    17    1
    16    17    18    1
    17    18    19   ar
    18    19    20   ar
    19    20    21   ar
    20    21    22    1
    21    21    23   ar
    22    23    24   ar
    23    24    25    1
    24    25    26    1
    25    25    27    1
    26    25    28    1
    27     6     1   ar
    28    24    18   ar
    29    12     7   ar
    30    15    16    1
@<TRIPOS>MOLECULE
*****
 28 30 0 0 0
SMALL
GASTEIGER

@<TRIPOS>ATOM
      1 C         -10.8089   -5.8295   18.9829 C.ar    1  UNL1        0.1889
      2 C          -9.9521   -4.6243   18.7311 C.ar    1  UNL1        0.1403
      3 N         -10.5827   -3.2693   18.6028 N.ar    1  UNL1       -0.2204
      4 C         -12.0701   -3.1196   18.7261 C.ar    1  UNL1        0.1816
      5 N         -12.9269   -4.3247   18.9779 N.ar    1  UNL1       -0.2074
      6 C         -12.2963   -5.6797   19.1062 C.ar    1  UNL1        0.1663
      7 C         -12.7006   -1.7646   18.5977 C.ar    1  UNL1        0.1170
      8 C         -14.1006   -1.5395   19.0868 C.ar    1  UNL1        0.0223
      9 C         -14.7312   -0.1845   18.9585 C.ar    1  UNL1        0.0032
     10 C         -13.9617    0.9453   18.3410 C.ar    1  UNL1        0.0207
     11 C         -12.5617    0.7202   17.8519 C.ar    1  UNL1        0.0989
     12 N         -11.9312   -0.6347   17.9803 N.ar    1  UNL1       -0.2407
     13 C          -9.9979   -8.0458   17.8966 C.3     1  UNL1        0.2527
     14 O         -10.1784   -7.1844   19.1112 O.3     1  UNL1       -0.4670
     15 N         -13.1532   -6.8849   19.3580 N.pl3   1  UNL1       -0.3119
     16 H         -12.9861   -7.4519   20.1453 H       1  UNL1        0.1486
     17 C         -14.2646   -7.2261   18.4102 C.3     1  UNL1        0.1154
     18 C         -15.5973   -7.6620   18.9429 C.ar    1  UNL1        0.0014
     19 C         -15.8342   -9.1038   19.2823 C.ar    1  UNL1       -0.0004
     20 C         -17.1670   -9.5397   19.8150 C.ar    1  UNL1        0.0294
     21 C         -18.2628   -8.5338   20.0084 C.ar    1  UNL1        0.1401
     22 F         -19.5955   -8.9697   20.5411 F       1  UNL1       -0.2042
     23 C         -18.0259   -7.0920   19.6691 C.ar    1  UNL1        0.0332
     24 C         -16.6932   -6.6561   19.1363 C.ar    1  UNL1        0.0713
     25 C         -16.4562   -5.2143   18.7970 C.3     1  UNL1        0.4184
     26 F         -16.2193   -3.7726   18.4576 F       1  UNL1       -0.1659
     27 F         -16.9886   -5.4521   17.4150 F       1  UNL1       -0.1659
     28 F         -15.9238   -4.9765   20.1790 F       1  UNL1       -0.1659
@<TRIPOS>BOND
     1    13    14    1
     2    14     1    1
     3     1     2   ar
     4     2     3   ar
     5     3     4   ar
     6     4     7    1
     7     7     8   ar
     8     8     9   ar
     9     9    10   ar
    10    10    11   ar
    11    11    12   ar
    12     4     5   ar
    13     5     6   ar
    14     6    15    1
    15    15    17    1
    16    17    18    1
    17    18    19   ar
    18    19    20   ar
    19    20    21   ar
    20    21    22    1
    21    21    23   ar
    22    23    24   ar
    23    24    25    1
    24    25    26    1
    25    25    27    1
    26    25    28    1
    27     6     1   ar
    28    24    18   ar
    29    12     7   ar
    30    15    16    1
@<TRIPOS>MOLECULE
*****
 28 30 0 0 0
SMALL
GASTEIGER

@<TRIPOS>ATOM
      1 C         -11.3639   -6.0298   18.9012 C.ar    1  UNL1        0.1889
      2 C         -10.4838   -4.8438   18.6392 C.ar    1  UNL1        0.1403
      3 N         -11.0759   -3.4664   18.5914 N.ar    1  UNL1       -0.2204
      4 C         -12.5481   -3.2750   18.8057 C.ar    1  UNL1        0.1816
      5 N         -13.4282   -4.4610   19.0677 N.ar    1  UNL1       -0.2074
      6 C         -12.8361   -5.8384   19.1154 C.ar    1  UNL1        0.1663
      7 C         -13.1402   -1.8977   18.7579 C.ar    1  UNL1        0.1170
      8 C         -12.3049   -0.7376   18.3034 C.ar    1  UNL1        0.0223
      9 C         -12.8970    0.6398   18.2557 C.ar    1  UNL1        0.0032
     10 C         -14.3243    0.8571   18.6624 C.ar    1  UNL1        0.0207
     11 C         -15.1595   -0.3029   19.1169 C.ar    1  UNL1        0.0989
     12 N         -14.5675   -1.6803   19.1647 N.ar    1  UNL1       -0.2407
     13 C          -9.2851   -7.5877   18.8655 C.3     1  UNL1        0.2527
     14 O         -10.7719   -7.4072   18.9489 O.3     1  UNL1       -0.4670
     15 N         -13.7163   -7.0245   19.3774 N.pl3   1  UNL1       -0.3119
     16 H         -13.5444   -7.6029   20.1553 H       1  UNL1        0.1486
     17 C         -14.8586   -7.3293   18.4542 C.3     1  UNL1        0.1154
     18 C         -16.2598   -6.9698   18.8506 C.ar    1  UNL1        0.0014
     19 C         -16.6535   -5.5292   18.9906 C.ar    1  UNL1       -0.0004
     20 C         -18.0549   -5.1698   19.3871 C.ar    1  UNL1        0.0294
     21 C         -19.0625   -6.2509   19.6436 C.ar    1  UNL1        0.1401
     22 F         -20.4637   -5.8915   20.0400 F       1  UNL1       -0.2042
     23 C         -18.6688   -7.6916   19.5035 C.ar    1  UNL1        0.0332
     24 C         -17.2675   -8.0510   19.1071 C.ar    1  UNL1        0.0713
     25 C         -16.8738   -9.4916   18.9671 C.3     1  UNL1        0.4184
     26 F         -16.4801  -10.9323   18.8271 F       1  UNL1       -0.1659
     27 F         -16.4432   -9.5136   20.4038 F       1  UNL1       -0.1659
     28 F         -17.3044   -9.4697   17.5304 F       1  UNL1       -0.1659
@<TRIPOS>BOND
     1    13    14    1
     2    14     1    1
     3     1     2   ar
     4     2     3   ar
     5     3     4   ar
     6     4     7    1
     7     7     8   ar
     8     8     9   ar
     9     9    10   ar
    10    10    11   ar
    11    11    12   ar
    12     4     5   ar
    13     5     6   ar
    14     6    15    1
    15    15    17    1
    16    17    18    1
    17    18    19   ar
    18    19    20   ar
    19    20    21   ar
    20    21    22    1
    21    21    23   ar
    22    23    24   ar
    23    24    25    1
    24    25    26    1
    25    25    27    1
    26    25    28    1
    27     6     1   ar
    28    24    18   ar
    29    12     7   ar
    30    15    16    1
