@<TRIPOS>MOLECULE
*****
 21 23 0 0 0
SMALL
GASTEIGER

@<TRIPOS>ATOM
      1 N         -12.3348  -15.5500   18.9706 N.pl3   1  UNL1       -0.3289
      2 C         -11.8103  -16.1559   20.2386 C.ar    1  UNL1        0.1952
      3 N         -10.3582  -16.0213   20.5895 N.ar    1  UNL1       -0.1794
      4 C          -9.8337  -16.6271   21.8576 C.ar    1  UNL1        0.2506
      5 C         -10.7614  -17.3676   22.7747 C.ar    1  UNL1        0.1930
      6 N         -10.5340  -18.0652   24.0829 N.ar    1  UNL1       -0.1207
      7 N         -11.8457  -18.6310   24.5405 N.ar    1  UNL1       -0.0405
      8 N         -12.8837  -18.2830   23.5151 N.ar    1  UNL1       -0.1092
      9 C         -12.2135  -17.5022   22.4237 C.ar    1  UNL1        0.1899
     10 N         -12.7380  -16.8963   21.1557 N.ar    1  UNL1       -0.3094
     11 H         -11.7259  -15.0640   18.3686 H       1  UNL1        0.1451
     12 H         -13.2879  -15.6384   18.7403 H       1  UNL1        0.1451
     13 H         -13.6911  -16.9846   20.9254 H       1  UNL1        0.1701
     14 O          -8.3815  -16.4925   22.2084 O.3     1  UNL1       -0.4541
     15 C          -7.8929  -15.2674   22.9228 C.3     1  UNL1        0.2338
     16 C          -7.4930  -15.3503   24.3661 C.ar    1  UNL1        0.0212
     17 C          -6.0410  -15.3679   24.7422 C.ar    1  UNL1       -0.0007
     18 C          -5.6410  -15.4509   26.1855 C.ar    1  UNL1       -0.0002
     19 C          -6.6931  -15.5161   27.2528 C.ar    1  UNL1       -0.0000
     20 C          -8.1451  -15.4984   26.8767 C.ar    1  UNL1       -0.0002
     21 C          -8.5450  -15.4155   25.4333 C.ar    1  UNL1       -0.0007
@<TRIPOS>BOND
     1     1     2    1
     2     2     3   ar
     3     3     4   ar
     4     4    14    1
     5    14    15    1
     6    15    16    1
     7    16    17   ar
     8    17    18   ar
     9    18    19   ar
    10    19    20   ar
    11    20    21   ar
    12     4     5   ar
    13     5     6   ar
    14     6     7   ar
    15     7     8   ar
    16     8     9   ar
    17     9    10   ar
    18    10     2   ar
    19    21    16   ar
    20     9     5    1
    21     1    11    1
    22     1    12    1
    23    10    13    1
@<TRIPOS>MOLECULE
*****
 21 23 0 0 0
SMALL
GASTEIGER

@<TRIPOS>ATOM
      1 N         -10.6649  -20.0219   24.9930 N.pl3   1  UNL1       -0.3289
      2 C         -10.5934  -19.0420   23.8595 C.ar    1  UNL1        0.1952
      3 N          -9.3119  -18.3164   23.5750 N.ar    1  UNL1       -0.1794
      4 C          -9.2405  -17.3364   22.4415 C.ar    1  UNL1        0.2506
      5 C         -10.4507  -17.0822   21.5926 C.ar    1  UNL1        0.1930
      6 N         -10.6799  -16.1803   20.4161 N.ar    1  UNL1       -0.1207
      7 N         -12.1033  -16.3486   19.9736 N.ar    1  UNL1       -0.0405
      8 N         -12.7537  -17.3544   20.8765 N.ar    1  UNL1       -0.1092
      9 C         -11.7323  -17.8079   21.8771 C.ar    1  UNL1        0.1899
     10 N         -11.8037  -18.7877   23.0106 N.ar    1  UNL1       -0.3094
     11 H          -9.8706  -20.1888   25.5502 H       1  UNL1        0.1451
     12 H         -11.5060  -20.4981   25.1797 H       1  UNL1        0.1451
     13 H         -12.6448  -19.2640   23.1973 H       1  UNL1        0.1701
     14 O          -7.9588  -16.6108   22.1570 O.3     1  UNL1       -0.4541
     15 C          -7.6423  -15.3357   22.8808 C.3     1  UNL1        0.2338
     16 C          -7.3247  -15.3644   24.3465 C.ar    1  UNL1        0.0212
     17 C          -5.8963  -15.3836   24.8042 C.ar    1  UNL1       -0.0007
     18 C          -5.5787  -15.4122   26.2699 C.ar    1  UNL1       -0.0002
     19 C          -6.6896  -15.4217   27.2780 C.ar    1  UNL1       -0.0000
     20 C          -8.1179  -15.4025   26.8203 C.ar    1  UNL1       -0.0002
     21 C          -8.4354  -15.3739   25.3546 C.ar    1  UNL1       -0.0007
@<TRIPOS>BOND
     1     1     2    1
     2     2     3   ar
     3     3     4   ar
     4     4    14    1
     5    14    15    1
     6    15    16    1
     7    16    17   ar
     8    17    18   ar
     9    18    19   ar
    10    19    20   ar
    11    20    21   ar
    12     4     5   ar
    13     5     6   ar
    14     6     7   ar
    15     7     8   ar
    16     8     9   ar
    17     9    10   ar
    18    10     2   ar
    19    21    16   ar
    20     9     5    1
    21     1    11    1
    22     1    12    1
    23    10    13    1
@<TRIPOS>MOLECULE
*****
 21 23 0 0 0
SMALL
GASTEIGER

@<TRIPOS>ATOM
      1 N          -8.0766  -14.7933   21.7654 N.pl3   1  UNL1       -0.3289
      2 C          -8.2943  -16.2119   22.2018 C.ar    1  UNL1        0.1952
      3 N          -7.7451  -17.3414   21.3820 N.ar    1  UNL1       -0.1794
      4 C          -7.9628  -18.7600   21.8183 C.ar    1  UNL1        0.2506
      5 C          -8.7297  -19.0489   23.0746 C.ar    1  UNL1        0.1930
      6 N          -9.1007  -20.3354   23.7507 N.ar    1  UNL1       -0.1207
      7 N          -9.8792  -20.0009   24.9884 N.ar    1  UNL1       -0.0405
      8 N          -9.9894  -18.5076   25.0773 N.ar    1  UNL1       -0.1092
      9 C          -9.2790  -17.9192   23.8945 C.ar    1  UNL1        0.1899
     10 N          -9.0613  -16.5007   23.4581 N.ar    1  UNL1       -0.3094
     11 H          -7.5732  -14.6036   20.9409 H       1  UNL1        0.1451
     12 H          -8.4371  -14.0519   22.3036 H       1  UNL1        0.1451
     13 H          -9.4218  -15.7593   23.9962 H       1  UNL1        0.1701
     14 O          -7.4134  -19.8896   20.9984 O.3     1  UNL1       -0.4541
     15 C          -6.0995  -20.5131   21.3655 C.3     1  UNL1        0.2338
     16 C          -4.8275  -19.7362   21.1964 C.ar    1  UNL1        0.0212
     17 C          -4.3274  -19.4062   19.8213 C.ar    1  UNL1       -0.0007
     18 C          -3.0554  -18.6293   19.6523 C.ar    1  UNL1       -0.0002
     19 C          -2.2836  -18.1823   20.8584 C.ar    1  UNL1       -0.0000
     20 C          -2.7838  -18.5123   22.2335 C.ar    1  UNL1       -0.0002
     21 C          -4.0558  -19.2892   22.4025 C.ar    1  UNL1       -0.0007
@<TRIPOS>BOND
     1     1     2    1
     2     2     3   ar
     3     3     4   ar
     4     4    14    1
     5    14    15    1
     6    15    16    1
     7    16    17   ar
     8    17    18   ar
     9    18    19   ar
    10    19    20   ar
    11    20    21   ar
    12     4     5   ar
    13     5     6   ar
    14     6     7   ar
    15     7     8   ar
    16     8     9   ar
    17     9    10   ar
    18    10     2   ar
    19    21    16   ar
    20     9     5    1
    21     1    11    1
    22     1    12    1
    23    10    13    1
@<TRIPOS>MOLECULE
*****
 21 23 0 0 0
SMALL
GASTEIGER

@<TRIPOS>ATOM
      1 N          -7.5537  -14.3007   24.3804 N.pl3   1  UNL1       -0.3289
      2 C          -8.1740  -15.4721   23.6782 C.ar    1  UNL1        0.1952
      3 N          -7.3786  -16.2512   22.6731 N.ar    1  UNL1       -0.1794
      4 C          -7.9990  -17.4226   21.9708 C.ar    1  UNL1        0.2506
      5 C          -9.4147  -17.8148   22.2738 C.ar    1  UNL1        0.1930
      6 N         -10.2869  -18.9142   21.7440 N.ar    1  UNL1       -0.1207
      7 N         -11.6213  -18.8145   22.4217 N.ar    1  UNL1       -0.0405
      8 N         -11.5739  -17.6535   23.3704 N.ar    1  UNL1       -0.1092
      9 C         -10.2101  -17.0357   23.2790 C.ar    1  UNL1        0.1899
     10 N          -9.5897  -15.8644   23.9812 N.ar    1  UNL1       -0.3094
     11 H          -6.6245  -14.0432   24.1816 H       1  UNL1        0.1451
     12 H          -8.0757  -13.7894   25.0402 H       1  UNL1        0.1451
     13 H         -10.1118  -15.3530   24.6409 H       1  UNL1        0.1701
     14 O          -7.2035  -18.2016   20.9656 O.3     1  UNL1       -0.4541
     15 C          -6.3427  -19.3452   21.4140 C.3     1  UNL1        0.2338
     16 C          -4.8718  -19.1393   21.6241 C.ar    1  UNL1        0.0212
     17 C          -3.8824  -19.8487   20.7479 C.ar    1  UNL1       -0.0007
     18 C          -2.4115  -19.6428   20.9581 C.ar    1  UNL1       -0.0002
     19 C          -1.9300  -18.7273   22.0445 C.ar    1  UNL1       -0.0000
     20 C          -2.9194  -18.0178   22.9207 C.ar    1  UNL1       -0.0002
     21 C          -4.3903  -18.2238   22.7105 C.ar    1  UNL1       -0.0007
@<TRIPOS>BOND
     1     1     2    1
     2     2     3   ar
     3     3     4   ar
     4     4    14    1
     5    14    15    1
     6    15    16    1
     7    16    17   ar
     8    17    18   ar
     9    18    19   ar
    10    19    20   ar
    11    20    21   ar
    12     4     5   ar
    13     5     6   ar
    14     6     7   ar
    15     7     8   ar
    16     8     9   ar
    17     9    10   ar
    18    10     2   ar
    19    21    16   ar
    20     9     5    1
    21     1    11    1
    22     1    12    1
    23    10    13    1
@<TRIPOS>MOLECULE
*****
 21 23 0 0 0
SMALL
GASTEIGER

@<TRIPOS>ATOM
      1 N          -0.3831  -16.7451   20.3100 N.pl3   1  UNL1       -0.3289
      2 C          -1.6307  -17.4247   20.7914 C.ar    1  UNL1        0.1952
      3 N          -2.2820  -16.9806   22.0674 N.ar    1  UNL1       -0.1794
      4 C          -3.5297  -17.6601   22.5488 C.ar    1  UNL1        0.2506
      5 C          -4.1259  -18.7839   21.7539 C.ar    1  UNL1        0.1930
      6 N          -5.3397  -19.6368   21.9761 N.ar    1  UNL1       -0.1207
      7 N          -5.4384  -20.6080   20.8374 N.ar    1  UNL1       -0.0405
      8 N          -4.2857  -20.3554   19.9113 N.ar    1  UNL1       -0.1092
      9 C          -3.4746  -19.2280   20.4778 C.ar    1  UNL1        0.1899
     10 N          -2.2269  -18.5484   19.9965 N.ar    1  UNL1       -0.3094
     11 H           0.0083  -16.0076   20.8316 H       1  UNL1        0.1451
     12 H           0.0444  -17.0367   19.4724 H       1  UNL1        0.1451
     13 H          -1.7994  -18.8399   19.1590 H       1  UNL1        0.1701
     14 O          -4.1810  -17.2159   23.8249 O.3     1  UNL1       -0.4541
     15 C          -4.9435  -15.9249   23.8679 C.3     1  UNL1        0.2338
     16 C          -6.0471  -15.7387   24.8667 C.ar    1  UNL1        0.0212
     17 C          -7.4762  -15.7233   24.4112 C.ar    1  UNL1       -0.0007
     18 C          -8.5797  -15.5370   25.4100 C.ar    1  UNL1       -0.0002
     19 C          -8.2541  -15.3661   26.8643 C.ar    1  UNL1       -0.0000
     20 C          -6.8250  -15.3815   27.3198 C.ar    1  UNL1       -0.0002
     21 C          -5.7215  -15.5678   26.3209 C.ar    1  UNL1       -0.0007
@<TRIPOS>BOND
     1     1     2    1
     2     2     3   ar
     3     3     4   ar
     4     4    14    1
     5    14    15    1
     6    15    16    1
     7    16    17   ar
     8    17    18   ar
     9    18    19   ar
    10    19    20   ar
    11    20    21   ar
    12     4     5   ar
    13     5     6   ar
    14     6     7   ar
    15     7     8   ar
    16     8     9   ar
    17     9    10   ar
    18    10     2   ar
    19    21    16   ar
    20     9     5    1
    21     1    11    1
    22     1    12    1
    23    10    13    1
@<TRIPOS>MOLECULE
*****
 21 23 0 0 0
SMALL
GASTEIGER

@<TRIPOS>ATOM
      1 N          -8.3068  -15.0050   27.2233 N.pl3   1  UNL1       -0.3289
      2 C          -8.0884  -15.4578   25.8099 C.ar    1  UNL1        0.1952
      3 N          -6.6949  -15.5850   25.2700 N.ar    1  UNL1       -0.1794
      4 C          -6.4765  -16.0377   23.8566 C.ar    1  UNL1        0.2506
      5 C          -7.6519  -16.3633   22.9834 C.ar    1  UNL1        0.1930
      6 N          -7.7467  -16.8299   21.5610 N.ar    1  UNL1       -0.1207
      7 N          -9.1989  -16.9911   21.2219 N.ar    1  UNL1       -0.0405
      8 N         -10.0017  -16.6241   22.4348 N.ar    1  UNL1       -0.1092
      9 C          -9.0455  -16.2361   23.5234 C.ar    1  UNL1        0.1899
     10 N          -9.2638  -15.7833   24.9367 N.ar    1  UNL1       -0.3094
     11 H          -7.5354  -14.7913   27.7965 H       1  UNL1        0.1451
     12 H          -9.2215  -14.9215   27.5777 H       1  UNL1        0.1451
     13 H         -10.1784  -15.6998   25.2911 H       1  UNL1        0.1701
     14 O          -5.0828  -16.1649   23.3167 O.3     1  UNL1       -0.4541
     15 C          -4.2784  -17.3988   23.6001 C.3     1  UNL1        0.2338
     16 C          -4.0295  -18.3986   22.5100 C.ar    1  UNL1        0.0212
     17 C          -2.6262  -18.6976   22.0726 C.ar    1  UNL1       -0.0007
     18 C          -2.3772  -19.6974   20.9825 C.ar    1  UNL1       -0.0002
     19 C          -3.5317  -20.3984   20.3297 C.ar    1  UNL1       -0.0000
     20 C          -4.9350  -20.0994   20.7671 C.ar    1  UNL1       -0.0002
     21 C          -5.1839  -19.0996   21.8573 C.ar    1  UNL1       -0.0007
@<TRIPOS>BOND
     1     1     2    1
     2     2     3   ar
     3     3     4   ar
     4     4    14    1
     5    14    15    1
     6    15    16    1
     7    16    17   ar
     8    17    18   ar
     9    18    19   ar
    10    19    20   ar
    11    20    21   ar
    12     4     5   ar
    13     5     6   ar
    14     6     7   ar
    15     7     8   ar
    16     8     9   ar
    17     9    10   ar
    18    10     2   ar
    19    21    16   ar
    20     9     5    1
    21     1    11    1
    22     1    12    1
    23    10    13    1
@<TRIPOS>MOLECULE
*****
 21 23 0 0 0
SMALL
GASTEIGER

@<TRIPOS>ATOM
      1 N          -7.2802  -14.6267   23.2075 N.pl3   1  UNL1       -0.3289
      2 C          -7.8343  -16.0195   23.2654 C.ar    1  UNL1        0.1952
      3 N          -7.8254  -16.8819   22.0382 N.ar    1  UNL1       -0.1794
      4 C          -8.3795  -18.2747   22.0961 C.ar    1  UNL1        0.2506
      5 C          -8.9424  -18.8049   23.3814 C.ar    1  UNL1        0.1930
      6 N          -9.5530  -20.1274   23.7397 N.ar    1  UNL1       -0.1207
      7 N          -9.9392  -20.0822   25.1884 N.ar    1  UNL1       -0.0405
      8 N          -9.5673  -18.7319   25.7255 N.ar    1  UNL1       -0.1092
      9 C          -8.9512  -17.9425   24.6086 C.ar    1  UNL1        0.1899
     10 N          -8.3972  -16.5498   24.5506 N.ar    1  UNL1       -0.3094
     11 H          -6.9107  -14.2786   22.3639 H       1  UNL1        0.1451
     12 H          -7.2860  -14.0607   24.0130 H       1  UNL1        0.1451
     13 H          -8.4030  -15.9838   25.3561 H       1  UNL1        0.1701
     14 O          -8.3706  -19.1370   20.8688 O.3     1  UNL1       -0.4541
     15 C          -9.5704  -19.1739   19.9694 C.3     1  UNL1        0.2338
     16 C         -10.7248  -18.2496   20.2208 C.ar    1  UNL1        0.0212
     17 C         -11.7927  -18.6332   21.2018 C.ar    1  UNL1       -0.0007
     18 C         -12.9471  -17.7089   21.4532 C.ar    1  UNL1       -0.0002
     19 C         -13.0335  -16.4011   20.7236 C.ar    1  UNL1       -0.0000
     20 C         -11.9656  -16.0176   19.7425 C.ar    1  UNL1       -0.0002
     21 C         -10.8112  -16.9419   19.4912 C.ar    1  UNL1       -0.0007
@<TRIPOS>BOND
     1     1     2    1
     2     2     3   ar
     3     3     4   ar
     4     4    14    1
     5    14    15    1
     6    15    16    1
     7    16    17   ar
     8    17    18   ar
     9    18    19   ar
    10    19    20   ar
    11    20    21   ar
    12     4     5   ar
    13     5     6   ar
    14     6     7   ar
    15     7     8   ar
    16     8     9   ar
    17     9    10   ar
    18    10     2   ar
    19    21    16   ar
    20     9     5    1
    21     1    11    1
    22     1    12    1
    23    10    13    1
@<TRIPOS>MOLECULE
*****
 21 23 0 0 0
SMALL
GASTEIGER

@<TRIPOS>ATOM
      1 N         -16.6622   -5.0581   19.4398 N.pl3   1  UNL1       -0.3289
      2 C         -16.2794   -6.4550   19.0496 C.ar    1  UNL1        0.1952
      3 N         -15.1351   -6.6836   18.1073 N.ar    1  UNL1       -0.1794
      4 C         -14.7523   -8.0805   17.7171 C.ar    1  UNL1        0.2506
      5 C         -15.5140   -9.2488   18.2694 C.ar    1  UNL1        0.1930
      6 N         -15.3684  -10.7279   18.0672 N.ar    1  UNL1       -0.1207
      7 N         -16.4228  -11.4135   18.8846 N.ar    1  UNL1       -0.0405
      8 N         -17.2201  -10.3580   19.5920 N.ar    1  UNL1       -0.1092
      9 C         -16.6584   -9.0202   19.2117 C.ar    1  UNL1        0.1899
     10 N         -17.0411   -7.6233   19.6019 N.ar    1  UNL1       -0.3094
     11 H         -16.1623   -4.2913   19.0774 H       1  UNL1        0.1451
     12 H         -17.4134   -4.9081   20.0583 H       1  UNL1        0.1451
     13 H         -17.7923   -7.4732   20.2204 H       1  UNL1        0.1701
     14 O         -13.6078   -8.3091   16.7748 O.3     1  UNL1       -0.4541
     15 C         -12.6612   -7.1892   16.4590 C.3     1  UNL1        0.2338
     16 C         -11.5515   -6.8544   17.4111 C.ar    1  UNL1        0.0212
     17 C         -10.5392   -7.8980   17.7799 C.ar    1  UNL1       -0.0007
     18 C          -9.4295   -7.5631   18.7320 C.ar    1  UNL1       -0.0002
     19 C          -9.3321   -6.1845   19.3152 C.ar    1  UNL1       -0.0000
     20 C         -10.3444   -5.1409   18.9464 C.ar    1  UNL1       -0.0002
     21 C         -11.4541   -5.4758   17.9943 C.ar    1  UNL1       -0.0007
@<TRIPOS>BOND
     1     1     2    1
     2     2     3   ar
     3     3     4   ar
     4     4    14    1
     5    14    15    1
     6    15    16    1
     7    16    17   ar
     8    17    18   ar
     9    18    19   ar
    10    19    20   ar
    11    20    21   ar
    12     4     5   ar
    13     5     6   ar
    14     6     7   ar
    15     7     8   ar
    16     8     9   ar
    17     9    10   ar
    18    10     2   ar
    19    21    16   ar
    20     9     5    1
    21     1    11    1
    22     1    12    1
    23    10    13    1
@<TRIPOS>MOLECULE
*****
 21 23 0 0 0
SMALL
GASTEIGER

@<TRIPOS>ATOM
      1 N          -3.7491  -20.2882   19.6213 N.pl3   1  UNL1       -0.3289
      2 C          -4.8178  -19.6438   20.4537 C.ar    1  UNL1        0.1952
      3 N          -4.4445  -18.6621   21.5245 N.ar    1  UNL1       -0.1794
      4 C          -5.5132  -18.0178   22.3569 C.ar    1  UNL1        0.2506
      5 C          -6.9552  -18.3552   22.1183 C.ar    1  UNL1        0.1930
      6 N          -8.2184  -17.8833   22.7753 N.ar    1  UNL1       -0.1207
      7 N          -9.3723  -18.5735   22.1104 N.ar    1  UNL1       -0.0405
      8 N          -8.8223  -19.4719   21.0426 N.ar    1  UNL1       -0.1092
      9 C          -7.3284  -19.3370   21.0474 C.ar    1  UNL1        0.1899
     10 N          -6.2597  -19.9813   20.2151 N.ar    1  UNL1       -0.3094
     11 H          -2.8027  -20.0668   19.7779 H       1  UNL1        0.1451
     12 H          -3.9941  -20.9326   18.9185 H       1  UNL1        0.1451
     13 H          -6.5047  -20.6257   19.5123 H       1  UNL1        0.1701
     14 O          -5.1399  -17.0360   23.4278 O.3     1  UNL1       -0.4541
     15 C          -5.9614  -15.7972   23.6290 C.3     1  UNL1        0.2338
     16 C          -6.6904  -15.5826   24.9223 C.ar    1  UNL1        0.0212
     17 C          -8.1834  -15.4383   24.9266 C.ar    1  UNL1       -0.0007
     18 C          -8.9125  -15.2238   26.2198 C.ar    1  UNL1       -0.0002
     19 C          -8.1484  -15.1535   27.5088 C.ar    1  UNL1       -0.0000
     20 C          -6.6554  -15.2978   27.5045 C.ar    1  UNL1       -0.0002
     21 C          -5.9264  -15.5124   26.2112 C.ar    1  UNL1       -0.0007
@<TRIPOS>BOND
     1     1     2    1
     2     2     3   ar
     3     3     4   ar
     4     4    14    1
     5    14    15    1
     6    15    16    1
     7    16    17   ar
     8    17    18   ar
     9    18    19   ar
    10    19    20   ar
    11    20    21   ar
    12     4     5   ar
    13     5     6   ar
    14     6     7   ar
    15     7     8   ar
    16     8     9   ar
    17     9    10   ar
    18    10     2   ar
    19    21    16   ar
    20     9     5    1
    21     1    11    1
    22     1    12    1
    23    10    13    1
