@<TRIPOS>MOLECULE
*****
 38 42 0 0 0
SMALL
GASTEIGER

@<TRIPOS>ATOM
      1 C           2.8904    1.8218   33.8183 C.ar    1  UNL1        0.0104
      2 C           2.3325    1.4943   32.4650 C.ar    1  UNL1        0.0078
      3 C           1.2946    2.3833   31.8465 C.ar    1  UNL1        0.1095
      4 C           0.8146    3.5997   32.5813 C.ar    1  UNL1        0.2691
      5 O          -0.2233    4.4886   31.9628 O.2     1  UNL1       -0.2665
      6 N           1.3725    3.9271   33.9347 N.ar    1  UNL1       -0.2733
      7 C           0.8925    5.1435   34.6695 C.ar    1  UNL1        0.0829
      8 C           1.4504    5.4709   36.0228 C.ar    1  UNL1        0.0191
      9 C           2.4883    4.5820   36.6413 C.ar    1  UNL1        0.0030
     10 C           2.9683    3.3656   35.9065 C.ar    1  UNL1        0.0174
     11 C           2.4104    3.0382   34.5532 C.ar    1  UNL1        0.0642
     12 C           0.7367    2.0558   30.4931 C.2     1  UNL1        0.2505
     13 O          -0.1958    0.8926   30.3277 O.2     1  UNL1       -0.2700
     14 N           1.1114    2.8915   29.3051 N.am    1  UNL1       -0.3000
     15 H           1.7235    3.6549   29.4137 H       1  UNL1        0.1498
     16 C           0.5536    2.5640   27.9518 C.3     1  UNL1        0.0986
     17 C          -0.7281    3.1962   27.4959 C.3     1  UNL1        0.0220
     18 C          -1.2860    2.8687   26.1426 C.3     1  UNL1        0.0019
     19 C          -0.5623    1.9090   25.2452 C.3     1  UNL1        0.0026
     20 C           0.7193    1.2768   25.7011 C.3     1  UNL1        0.0309
     21 C           1.2772    1.6043   27.0545 C.3     1  UNL1        0.1283
     22 O           2.5588    0.9721   27.5104 O.3     1  UNL1       -0.3828
     23 H           2.8934    0.3828   26.8164 H       1  UNL1        0.2104
     24 C           3.9283    0.9328   34.4368 C.3     1  UNL1        0.1007
     25 N           5.7759   -2.3857   32.0236 N.pl3   1  UNL1       -0.3046
     26 C           6.1256   -0.9577   31.7261 C.3     1  UNL1        0.1081
     27 C           5.5098    0.1485   32.5305 C.3     1  UNL1        0.0941
     28 N           4.5442   -0.1733   33.6324 N.3     1  UNL1       -0.2659
     29 C           4.1945   -1.6014   33.9299 C.3     1  UNL1        0.0941
     30 C           4.8104   -2.7076   33.1254 C.3     1  UNL1        0.1081
     31 C           7.6235   -5.7043   29.6104 C.ar    1  UNL1        0.0685
     32 C           7.2268   -4.4217   28.9414 C.ar    1  UNL1        0.0115
     33 C           6.6109   -3.3155   29.7458 C.ar    1  UNL1        0.0152
     34 C           6.3918   -3.4919   31.2192 C.ar    1  UNL1        0.0480
     35 C           6.7886   -4.7745   31.8882 C.ar    1  UNL1        0.0152
     36 C           7.4044   -5.8807   31.0838 C.ar    1  UNL1        0.0115
     37 N           8.8553   -7.9166   28.0016 N.1     1  UNL1       -0.1908
     38 C           8.2394   -6.8104   28.8060 C.1     1  UNL1        0.1004
@<TRIPOS>BOND
     1    37    38    3
     2    38    31    1
     3    31    32   ar
     4    32    33   ar
     5    33    34   ar
     6    34    25    1
     7    25    26    1
     8    26    27    1
     9    27    28    1
    10    28    24    1
    11    24     1    1
    12     1     2   ar
    13     2     3   ar
    14     3    12    1
    15    12    13    2
    16    12    14   am
    17    16    14    1
    18    16    17    1
    19    17    18    1
    20    18    19    1
    21    19    20    1
    22    20    21    1
    23    21    22    1
    24     3     4   ar
    25     4     5    2
    26     4     6   ar
    27     6     7   ar
    28     7     8   ar
    29     8     9   ar
    30     9    10   ar
    31    10    11   ar
    32    28    29    1
    33    29    30    1
    34    34    35   ar
    35    35    36   ar
    36    36    31   ar
    37    30    25    1
    38    11     1   ar
    39    21    16    1
    40    11     6   ar
    41    14    15    1
    42    22    23    1
@<TRIPOS>MOLECULE
*****
 38 42 0 0 0
SMALL
GASTEIGER

@<TRIPOS>ATOM
      1 C          -2.3051    4.1005   24.7503 C.ar    1  UNL1        0.0104
      2 C          -1.1603    3.5788   23.9333 C.ar    1  UNL1        0.0078
      3 C          -1.3901    3.1305   22.5205 C.ar    1  UNL1        0.1095
      4 C          -2.7647    3.2038   21.9245 C.ar    1  UNL1        0.2691
      5 O          -2.9945    2.7555   20.5117 O.2     1  UNL1       -0.2665
      6 N          -3.9095    3.7255   22.7415 N.ar    1  UNL1       -0.2733
      7 C          -5.2841    3.7988   22.1455 C.ar    1  UNL1        0.0829
      8 C          -6.4288    4.3204   22.9624 C.ar    1  UNL1        0.0191
      9 C          -6.1990    4.7687   24.3753 C.ar    1  UNL1        0.0030
     10 C          -4.8245    4.6954   24.9712 C.ar    1  UNL1        0.0174
     11 C          -3.6797    4.1738   24.1543 C.ar    1  UNL1        0.0642
     12 C          -0.2453    2.6088   21.7036 C.2     1  UNL1        0.2505
     13 O           0.9724    3.4585   21.4903 O.2     1  UNL1       -0.2700
     14 N          -0.3181    1.2376   21.0999 N.am    1  UNL1       -0.3000
     15 H          -1.1173    0.6800   21.2399 H       1  UNL1        0.1498
     16 C           0.8267    0.7160   20.2830 C.3     1  UNL1        0.0986
     17 C           1.6541   -0.4259   20.7945 C.3     1  UNL1        0.0220
     18 C           2.7989   -0.9475   19.9776 C.3     1  UNL1        0.0019
     19 C           3.1163   -0.3272   18.6493 C.3     1  UNL1        0.0026
     20 C           2.2890    0.8147   18.1378 C.3     1  UNL1        0.0309
     21 C           1.1441    1.3363   18.9547 C.3     1  UNL1        0.1283
     22 O           0.3168    2.4782   18.4432 O.3     1  UNL1       -0.3828
     23 H           0.6532    2.7590   17.5779 H       1  UNL1        0.2104
     24 C          -2.0753    4.5488   26.1631 C.3     1  UNL1        0.1007
     25 N           0.5296    2.1078   28.9028 N.pl3   1  UNL1       -0.3046
     26 C          -0.5640    1.4442   28.1194 C.3     1  UNL1        0.1081
     27 C          -1.4323    2.2578   27.2062 C.3     1  UNL1        0.0941
     28 N          -1.2070    3.7352   27.0763 N.3     1  UNL1       -0.2659
     29 C          -0.1134    4.3988   27.8597 C.3     1  UNL1        0.0941
     30 C           0.7549    3.5850   28.7730 C.3     1  UNL1        0.1081
     31 C           3.1345   -0.3332   31.6425 C.ar    1  UNL1        0.0685
     32 C           2.7471   -0.8733   30.2979 C.ar    1  UNL1        0.0115
     33 C           1.8787   -0.0596   29.3846 C.ar    1  UNL1        0.0152
     34 C           1.3979    1.2941   29.8160 C.ar    1  UNL1        0.0480
     35 C           1.7854    1.8343   31.1607 C.ar    1  UNL1        0.0152
     36 C           2.6537    1.0206   32.0740 C.ar    1  UNL1        0.0115
     37 N           4.8711   -1.9605   33.4691 N.1     1  UNL1       -0.1908
     38 C           4.0028   -1.1468   32.5558 C.1     1  UNL1        0.1004
@<TRIPOS>BOND
     1    37    38    3
     2    38    31    1
     3    31    32   ar
     4    32    33   ar
     5    33    34   ar
     6    34    25    1
     7    25    26    1
     8    26    27    1
     9    27    28    1
    10    28    24    1
    11    24     1    1
    12     1     2   ar
    13     2     3   ar
    14     3    12    1
    15    12    13    2
    16    12    14   am
    17    16    14    1
    18    16    17    1
    19    17    18    1
    20    18    19    1
    21    19    20    1
    22    20    21    1
    23    21    22    1
    24     3     4   ar
    25     4     5    2
    26     4     6   ar
    27     6     7   ar
    28     7     8   ar
    29     8     9   ar
    30     9    10   ar
    31    10    11   ar
    32    28    29    1
    33    29    30    1
    34    34    35   ar
    35    35    36   ar
    36    36    31   ar
    37    30    25    1
    38    11     1   ar
    39    21    16    1
    40    11     6   ar
    41    14    15    1
    42    22    23    1
@<TRIPOS>MOLECULE
*****
 38 42 0 0 0
SMALL
GASTEIGER

@<TRIPOS>ATOM
      1 C           5.5066   -0.5089   33.1179 C.ar    1  UNL1        0.0104
      2 C           4.7355   -0.1222   31.8908 C.ar    1  UNL1        0.0078
      3 C           3.5703    0.8159   32.0018 C.ar    1  UNL1        0.1095
      4 C           3.1763    1.3674   33.3399 C.ar    1  UNL1        0.2691
      5 O           2.0112    2.3056   33.4510 O.2     1  UNL1       -0.2665
      6 N           3.9475    0.9808   34.5671 N.ar    1  UNL1       -0.2733
      7 C           3.5535    1.5322   35.9052 C.ar    1  UNL1        0.0829
      8 C           4.3246    1.1456   37.1323 C.ar    1  UNL1        0.0191
      9 C           5.4898    0.2074   37.0213 C.ar    1  UNL1        0.0030
     10 C           5.8838   -0.3441   35.6832 C.ar    1  UNL1        0.0174
     11 C           5.1126    0.0426   34.4561 C.ar    1  UNL1        0.0642
     12 C           2.7992    1.2026   30.7747 C.2     1  UNL1        0.2505
     13 O           3.5024    1.3286   29.4557 O.2     1  UNL1       -0.2700
     14 N           1.3249    1.4633   30.8665 N.am    1  UNL1       -0.3000
     15 H           0.8633    1.3806   31.7321 H       1  UNL1        0.1498
     16 C           0.5538    1.8499   29.6393 C.3     1  UNL1        0.0986
     17 C           0.6075    3.2611   29.1334 C.3     1  UNL1        0.0220
     18 C          -0.1636    3.6477   27.9063 C.3     1  UNL1        0.0019
     19 C          -0.9883    2.6233   27.1850 C.3     1  UNL1        0.0026
     20 C          -1.0420    1.2122   27.6908 C.3     1  UNL1        0.0309
     21 C          -0.2709    0.8255   28.9180 C.3     1  UNL1        0.1283
     22 O          -0.3246   -0.5856   29.4238 O.3     1  UNL1       -0.3828
     23 H          -0.8979   -1.1143   28.8470 H       1  UNL1        0.2104
     24 C           6.6717   -1.4470   33.0069 C.3     1  UNL1        0.1007
     25 N           7.4109   -3.6721   29.1659 N.pl3   1  UNL1       -0.3046
     26 C           6.7545   -4.3679   30.3214 C.3     1  UNL1        0.1081
     27 C           6.5081   -3.6262   31.6017 C.3     1  UNL1        0.0941
     28 N           6.9181   -2.1887   31.7266 N.3     1  UNL1       -0.2659
     29 C           7.5745   -1.4929   30.5711 C.3     1  UNL1        0.0941
     30 C           7.8209   -2.2347   29.2908 C.3     1  UNL1        0.1081
     31 C           8.1499   -5.8971   25.3250 C.ar    1  UNL1        0.0685
     32 C           8.9373   -6.2412   26.5545 C.ar    1  UNL1        0.0115
     33 C           8.6910   -5.4995   27.8348 C.ar    1  UNL1        0.0152
     34 C           7.6572   -4.4138   27.8857 C.ar    1  UNL1        0.0480
     35 C           6.8699   -4.0697   26.6561 C.ar    1  UNL1        0.0152
     36 C           7.1162   -4.8114   25.3758 C.ar    1  UNL1        0.0115
     37 N           8.6428   -7.3805   22.7643 N.1     1  UNL1       -0.1908
     38 C           8.3963   -6.6388   24.0447 C.1     1  UNL1        0.1004
@<TRIPOS>BOND
     1    37    38    3
     2    38    31    1
     3    31    32   ar
     4    32    33   ar
     5    33    34   ar
     6    34    25    1
     7    25    26    1
     8    26    27    1
     9    27    28    1
    10    28    24    1
    11    24     1    1
    12     1     2   ar
    13     2     3   ar
    14     3    12    1
    15    12    13    2
    16    12    14   am
    17    16    14    1
    18    16    17    1
    19    17    18    1
    20    18    19    1
    21    19    20    1
    22    20    21    1
    23    21    22    1
    24     3     4   ar
    25     4     5    2
    26     4     6   ar
    27     6     7   ar
    28     7     8   ar
    29     8     9   ar
    30     9    10   ar
    31    10    11   ar
    32    28    29    1
    33    29    30    1
    34    34    35   ar
    35    35    36   ar
    36    36    31   ar
    37    30    25    1
    38    11     1   ar
    39    21    16    1
    40    11     6   ar
    41    14    15    1
    42    22    23    1
@<TRIPOS>MOLECULE
*****
 38 42 0 0 0
SMALL
GASTEIGER

@<TRIPOS>ATOM
      1 C           2.1436    1.3017   22.1043 C.ar    1  UNL1        0.0104
      2 C           2.3526    1.3619   23.5885 C.ar    1  UNL1        0.0078
      3 C           3.0535    0.2385   24.2933 C.ar    1  UNL1        0.1095
      4 C           3.5455   -0.9449   23.5141 C.ar    1  UNL1        0.2691
      5 O           4.2465   -2.0682   24.2189 O.2     1  UNL1       -0.2665
      6 N           3.3366   -1.0051   22.0298 N.ar    1  UNL1       -0.2733
      7 C           3.8287   -2.1885   21.2506 C.ar    1  UNL1        0.0829
      8 C           3.6197   -2.2487   19.7665 C.ar    1  UNL1        0.0191
      9 C           2.9188   -1.1254   19.0616 C.ar    1  UNL1        0.0030
     10 C           2.4268    0.0581   19.8409 C.ar    1  UNL1        0.0174
     11 C           2.6357    0.1182   21.3250 C.ar    1  UNL1        0.0642
     12 C           3.2624    0.2987   25.7775 C.2     1  UNL1        0.2505
     13 O           3.5582    1.6113   26.4407 O.2     1  UNL1       -0.2700
     14 N           3.1755   -0.9536   26.5986 N.am    1  UNL1       -0.3000
     15 H           2.9813   -1.8151   26.1633 H       1  UNL1        0.1498
     16 C           3.3844   -0.8934   28.0827 C.3     1  UNL1        0.0986
     17 C           4.7533   -1.1094   28.6568 C.3     1  UNL1        0.0220
     18 C           4.9622   -1.0491   30.1409 C.3     1  UNL1        0.0019
     19 C           3.8023   -0.7729   31.0510 C.3     1  UNL1        0.0026
     20 C           2.4334   -0.5569   30.4770 C.3     1  UNL1        0.0309
     21 C           2.2245   -0.6172   28.9928 C.3     1  UNL1        0.1283
     22 O           0.8556   -0.4012   28.4187 O.3     1  UNL1       -0.3828
     23 H           0.2258   -0.2362   29.1378 H       1  UNL1        0.2104
     24 C           1.4427    2.4250   21.3995 C.3     1  UNL1        0.1007
     25 N          -2.7786    3.5025   22.5263 N.pl3   1  UNL1       -0.3046
     26 C          -1.7001    3.5054   23.5687 C.3     1  UNL1        0.1081
     27 C          -0.2930    3.1463   23.1932 C.3     1  UNL1        0.0941
     28 N           0.0356    2.7842   21.7750 N.3     1  UNL1       -0.2659
     29 C          -1.0429    2.7813   20.7326 C.3     1  UNL1        0.0941
     30 C          -2.4500    3.1405   21.1082 C.3     1  UNL1        0.1081
     31 C          -6.9999    4.5800   23.6529 C.ar    1  UNL1        0.0685
     32 C          -5.9547    4.4288   24.7181 C.ar    1  UNL1        0.0115
     33 C          -4.5475    4.0697   24.3426 C.ar    1  UNL1        0.0152
     34 C          -4.1857    3.8617   22.9018 C.ar    1  UNL1        0.0480
     35 C          -5.2310    4.0128   21.8366 C.ar    1  UNL1        0.0152
     36 C          -6.6380    4.3720   22.2122 C.ar    1  UNL1        0.0115
     37 N          -9.8142    5.2983   24.4041 N.1     1  UNL1       -0.1908
     38 C          -8.4070    4.9391   24.0285 C.1     1  UNL1        0.1004
@<TRIPOS>BOND
     1    37    38    3
     2    38    31    1
     3    31    32   ar
     4    32    33   ar
     5    33    34   ar
     6    34    25    1
     7    25    26    1
     8    26    27    1
     9    27    28    1
    10    28    24    1
    11    24     1    1
    12     1     2   ar
    13     2     3   ar
    14     3    12    1
    15    12    13    2
    16    12    14   am
    17    16    14    1
    18    16    17    1
    19    17    18    1
    20    18    19    1
    21    19    20    1
    22    20    21    1
    23    21    22    1
    24     3     4   ar
    25     4     5    2
    26     4     6   ar
    27     6     7   ar
    28     7     8   ar
    29     8     9   ar
    30     9    10   ar
    31    10    11   ar
    32    28    29    1
    33    29    30    1
    34    34    35   ar
    35    35    36   ar
    36    36    31   ar
    37    30    25    1
    38    11     1   ar
    39    21    16    1
    40    11     6   ar
    41    14    15    1
    42    22    23    1
@<TRIPOS>MOLECULE
*****
 38 42 0 0 0
SMALL
GASTEIGER

@<TRIPOS>ATOM
      1 C           7.3902   -4.2092   23.6092 C.ar    1  UNL1        0.0104
      2 C           6.8592   -3.1273   24.5022 C.ar    1  UNL1        0.0078
      3 C           7.0015   -3.2462   25.9907 C.ar    1  UNL1        0.1095
      4 C           7.6748   -4.4469   26.5862 C.ar    1  UNL1        0.2691
      5 O           7.8171   -4.5658   28.0747 O.2     1  UNL1       -0.2665
      6 N           8.2059   -5.5289   25.6932 N.ar    1  UNL1       -0.2733
      7 C           8.8793   -6.7297   26.2888 C.ar    1  UNL1        0.0829
      8 C           9.4103   -7.8116   25.3958 C.ar    1  UNL1        0.0191
      9 C           9.2680   -7.6928   23.9073 C.ar    1  UNL1        0.0030
     10 C           8.5946   -6.4920   23.3118 C.ar    1  UNL1        0.0174
     11 C           8.0636   -5.4101   24.2047 C.ar    1  UNL1        0.0642
     12 C           6.4704   -2.1642   26.8836 C.2     1  UNL1        0.2505
     13 O           6.7576   -0.7255   26.5710 O.2     1  UNL1       -0.2700
     14 N           5.6522   -2.5209   28.0891 N.am    1  UNL1       -0.3000
     15 H           5.4637   -3.4652   28.2943 H       1  UNL1        0.1498
     16 C           5.1212   -1.4389   28.9820 C.3     1  UNL1        0.0986
     17 C           5.9726   -0.8971   30.0918 C.3     1  UNL1        0.0220
     18 C           5.4415    0.1848   30.9847 C.3     1  UNL1        0.0019
     19 C           4.0591    0.7251   30.7678 C.3     1  UNL1        0.0026
     20 C           3.2077    0.1834   29.6581 C.3     1  UNL1        0.0309
     21 C           3.7387   -0.8987   28.7651 C.3     1  UNL1        0.1283
     22 O           2.8874   -1.4404   27.6554 O.3     1  UNL1       -0.3828
     23 H           2.0303   -0.9861   27.6541 H       1  UNL1        0.2104
     24 C           7.2479   -4.0904   22.1207 C.3     1  UNL1        0.1007
     25 N           4.2541   -1.2239   20.3684 N.pl3   1  UNL1       -0.3046
     26 C           3.8269   -2.6068   20.7623 C.3     1  UNL1        0.1081
     27 C           4.8248   -3.5623   21.3464 C.3     1  UNL1        0.0941
     28 N           6.2500   -3.1349   21.5366 N.3     1  UNL1       -0.2659
     29 C           6.6773   -1.7520   21.1427 C.3     1  UNL1        0.0941
     30 C           5.6793   -0.7965   20.5586 C.3     1  UNL1        0.1081
     31 C           1.2604    1.6426   18.6161 C.ar    1  UNL1        0.0685
     32 C           2.7291    1.8949   18.4455 C.ar    1  UNL1        0.0115
     33 C           3.7271    0.9394   19.0297 C.ar    1  UNL1        0.0152
     34 C           3.2562   -0.2684   19.7843 C.ar    1  UNL1        0.0480
     35 C           1.7874   -0.5207   19.9548 C.ar    1  UNL1        0.0152
     36 C           0.7895    0.4347   19.3707 C.ar    1  UNL1        0.0115
     37 N          -0.7355    3.5536   17.4479 N.1     1  UNL1       -0.1908
     38 C           0.2625    2.5980   18.0320 C.1     1  UNL1        0.1004
@<TRIPOS>BOND
     1    37    38    3
     2    38    31    1
     3    31    32   ar
     4    32    33   ar
     5    33    34   ar
     6    34    25    1
     7    25    26    1
     8    26    27    1
     9    27    28    1
    10    28    24    1
    11    24     1    1
    12     1     2   ar
    13     2     3   ar
    14     3    12    1
    15    12    13    2
    16    12    14   am
    17    16    14    1
    18    16    17    1
    19    17    18    1
    20    18    19    1
    21    19    20    1
    22    20    21    1
    23    21    22    1
    24     3     4   ar
    25     4     5    2
    26     4     6   ar
    27     6     7   ar
    28     7     8   ar
    29     8     9   ar
    30     9    10   ar
    31    10    11   ar
    32    28    29    1
    33    29    30    1
    34    34    35   ar
    35    35    36   ar
    36    36    31   ar
    37    30    25    1
    38    11     1   ar
    39    21    16    1
    40    11     6   ar
    41    14    15    1
    42    22    23    1
@<TRIPOS>MOLECULE
*****
 38 42 0 0 0
SMALL
GASTEIGER

@<TRIPOS>ATOM
      1 C           8.3368   -4.4560   26.5628 C.ar    1  UNL1        0.0104
      2 C           7.7169   -3.5631   27.5963 C.ar    1  UNL1        0.0078
      3 C           7.3114   -4.1247   28.9268 C.ar    1  UNL1        0.1095
      4 C           7.5258   -5.5792   29.2237 C.ar    1  UNL1        0.2691
      5 O           7.1203   -6.1408   30.5542 O.2     1  UNL1       -0.2665
      6 N           8.1457   -6.4723   28.1901 N.ar    1  UNL1       -0.2733
      7 C           8.3602   -7.9268   28.4871 C.ar    1  UNL1        0.0829
      8 C           8.9800   -8.8198   27.4535 C.ar    1  UNL1        0.0191
      9 C           9.3855   -8.2582   26.1230 C.ar    1  UNL1        0.0030
     10 C           9.1711   -6.8036   25.8261 C.ar    1  UNL1        0.0174
     11 C           8.5512   -5.9107   26.8597 C.ar    1  UNL1        0.0642
     12 C           6.6915   -3.2316   29.9604 C.2     1  UNL1        0.2505
     13 O           5.7920   -2.1078   29.5384 O.2     1  UNL1       -0.2700
     14 N           6.9710   -3.4623   31.4159 N.am    1  UNL1       -0.3000
     15 H           7.5614   -4.1999   31.6929 H       1  UNL1        0.1498
     16 C           6.3511   -2.5693   32.4494 C.3     1  UNL1        0.0986
     17 C           4.9483   -2.8233   32.9160 C.3     1  UNL1        0.0220
     18 C           4.3284   -1.9302   33.9495 C.3     1  UNL1        0.0019
     19 C           5.1112   -0.7832   34.5164 C.3     1  UNL1        0.0026
     20 C           6.5140   -0.5292   34.0499 C.3     1  UNL1        0.0309
     21 C           7.1340   -1.4223   33.0164 C.3     1  UNL1        0.1283
     22 O           8.5367   -1.1683   32.5499 O.3     1  UNL1       -0.3828
     23 H           8.8965   -0.3954   33.0127 H       1  UNL1        0.2104
     24 C           8.7422   -3.8944   25.2323 C.3     1  UNL1        0.1007
     25 N           5.6701   -1.9520   22.5792 N.pl3   1  UNL1       -0.3046
     26 C           5.3830   -3.2825   23.2097 C.3     1  UNL1        0.1081
     27 C           6.4070   -3.9299   24.0940 C.3     1  UNL1        0.0941
     28 N           7.7182   -3.2469   24.3479 N.3     1  UNL1       -0.2659
     29 C           8.0053   -1.9165   23.7175 C.3     1  UNL1        0.0941
     30 C           6.9812   -1.2690   22.8331 C.3     1  UNL1        0.1081
     31 C           2.5979   -0.0095   19.9262 C.ar    1  UNL1        0.0685
     32 C           2.6872   -1.5050   20.0000 C.ar    1  UNL1        0.0115
     33 C           3.7112   -2.1525   20.8843 C.ar    1  UNL1        0.0152
     34 C           4.6460   -1.3045   21.6949 C.ar    1  UNL1        0.0480
     35 C           4.5568    0.1911   21.6211 C.ar    1  UNL1        0.0152
     36 C           3.5327    0.8385   20.7368 C.ar    1  UNL1        0.0115
     37 N           0.5498    1.2855   18.1575 N.1     1  UNL1       -0.1908
     38 C           1.5739    0.6380   19.0419 C.1     1  UNL1        0.1004
@<TRIPOS>BOND
     1    37    38    3
     2    38    31    1
     3    31    32   ar
     4    32    33   ar
     5    33    34   ar
     6    34    25    1
     7    25    26    1
     8    26    27    1
     9    27    28    1
    10    28    24    1
    11    24     1    1
    12     1     2   ar
    13     2     3   ar
    14     3    12    1
    15    12    13    2
    16    12    14   am
    17    16    14    1
    18    16    17    1
    19    17    18    1
    20    18    19    1
    21    19    20    1
    22    20    21    1
    23    21    22    1
    24     3     4   ar
    25     4     5    2
    26     4     6   ar
    27     6     7   ar
    28     7     8   ar
    29     8     9   ar
    30     9    10   ar
    31    10    11   ar
    32    28    29    1
    33    29    30    1
    34    34    35   ar
    35    35    36   ar
    36    36    31   ar
    37    30    25    1
    38    11     1   ar
    39    21    16    1
    40    11     6   ar
    41    14    15    1
    42    22    23    1
@<TRIPOS>MOLECULE
*****
 38 42 0 0 0
SMALL
GASTEIGER

@<TRIPOS>ATOM
      1 C           5.2344   -0.8959   29.4063 C.ar    1  UNL1        0.0104
      2 C           6.0847   -1.9645   28.7859 C.ar    1  UNL1        0.0078
      3 C           6.5890   -3.1022   29.6234 C.ar    1  UNL1        0.1095
      4 C           6.2430   -3.1712   31.0813 C.ar    1  UNL1        0.2691
      5 O           6.7473   -4.3089   31.9187 O.2     1  UNL1       -0.2665
      6 N           5.3927   -2.1026   31.7017 N.ar    1  UNL1       -0.2733
      7 C           5.0467   -2.1716   33.1596 C.ar    1  UNL1        0.0829
      8 C           4.1963   -1.1030   33.7800 C.ar    1  UNL1        0.0191
      9 C           3.6920    0.0347   32.9426 C.ar    1  UNL1        0.0030
     10 C           4.0380    0.1037   31.4847 C.ar    1  UNL1        0.0174
     11 C           4.8883   -0.9649   30.8643 C.ar    1  UNL1        0.0642
     12 C           7.4394   -4.1708   29.0029 C.2     1  UNL1        0.2505
     13 O           8.9187   -3.9656   28.8638 O.2     1  UNL1       -0.2700
     14 N           6.8104   -5.4447   28.5216 N.am    1  UNL1       -0.3000
     15 H           5.8394   -5.5794   28.6129 H       1  UNL1        0.1498
     16 C           7.6607   -6.5132   27.9012 C.3     1  UNL1        0.0986
     17 C           7.4865   -6.8639   26.4531 C.3     1  UNL1        0.0220
     18 C           8.3369   -7.9325   25.8327 C.3     1  UNL1        0.0019
     19 C           9.3614   -8.6504   26.6602 C.3     1  UNL1        0.0026
     20 C           9.5357   -8.2998   28.1082 C.3     1  UNL1        0.0309
     21 C           8.6853   -7.2312   28.7287 C.3     1  UNL1        0.1283
     22 O           8.8595   -6.8805   30.1766 O.3     1  UNL1       -0.3828
     23 H           9.5571   -7.4338   30.5616 H       1  UNL1        0.2104
     24 C           4.7301    0.2418   28.5688 C.3     1  UNL1        0.1007
     25 N           4.4467   -0.2067   24.1002 N.pl3   1  UNL1       -0.3046
     26 C           3.3824   -0.7901   24.9815 C.3     1  UNL1        0.1081
     27 C           3.4768   -0.6407   26.4710 C.3     1  UNL1        0.0941
     28 N           4.6356    0.0923   27.0793 N.3     1  UNL1       -0.2659
     29 C           5.7000    0.6758   26.1980 C.3     1  UNL1        0.0941
     30 C           5.6055    0.5263   24.7084 C.3     1  UNL1        0.1081
     31 C           4.1635   -0.6551   19.6316 C.ar    1  UNL1        0.0685
     32 C           3.1576   -1.3276   20.5181 C.ar    1  UNL1        0.0115
     33 C           3.2520   -1.1781   22.0077 C.ar    1  UNL1        0.0152
     34 C           4.3523   -0.3562   22.6107 C.ar    1  UNL1        0.0480
     35 C           5.3583    0.3163   21.7241 C.ar    1  UNL1        0.0152
     36 C           5.2638    0.1669   20.2346 C.ar    1  UNL1        0.0115
     37 N           3.9746   -0.9541   16.6525 N.1     1  UNL1       -0.1908
     38 C           4.0691   -0.8046   18.1421 C.1     1  UNL1        0.1004
@<TRIPOS>BOND
     1    37    38    3
     2    38    31    1
     3    31    32   ar
     4    32    33   ar
     5    33    34   ar
     6    34    25    1
     7    25    26    1
     8    26    27    1
     9    27    28    1
    10    28    24    1
    11    24     1    1
    12     1     2   ar
    13     2     3   ar
    14     3    12    1
    15    12    13    2
    16    12    14   am
    17    16    14    1
    18    16    17    1
    19    17    18    1
    20    18    19    1
    21    19    20    1
    22    20    21    1
    23    21    22    1
    24     3     4   ar
    25     4     5    2
    26     4     6   ar
    27     6     7   ar
    28     7     8   ar
    29     8     9   ar
    30     9    10   ar
    31    10    11   ar
    32    28    29    1
    33    29    30    1
    34    34    35   ar
    35    35    36   ar
    36    36    31   ar
    37    30    25    1
    38    11     1   ar
    39    21    16    1
    40    11     6   ar
    41    14    15    1
    42    22    23    1
@<TRIPOS>MOLECULE
*****
 38 42 0 0 0
SMALL
GASTEIGER

@<TRIPOS>ATOM
      1 C          -1.5732    2.9830   25.4729 C.ar    1  UNL1        0.0104
      2 C          -0.4976    2.3570   24.6356 C.ar    1  UNL1        0.0078
      3 C          -0.5167    2.5212   23.1447 C.ar    1  UNL1        0.1095
      4 C          -1.6114    3.3114   22.4912 C.ar    1  UNL1        0.2691
      5 O          -1.6304    3.4756   21.0003 O.2     1  UNL1       -0.2665
      6 N          -2.6870    3.9375   23.3285 N.ar    1  UNL1       -0.2733
      7 C          -3.7817    4.7278   22.6749 C.ar    1  UNL1        0.0829
      8 C          -4.8573    5.3538   23.5122 C.ar    1  UNL1        0.0191
      9 C          -4.8382    5.1896   25.0031 C.ar    1  UNL1        0.0030
     10 C          -3.7435    4.3994   25.6567 C.ar    1  UNL1        0.0174
     11 C          -2.6680    3.7733   24.8194 C.ar    1  UNL1        0.0642
     12 C           0.5590    1.8951   22.3074 C.2     1  UNL1        0.2505
     13 O           1.9976    2.2417   22.5528 O.2     1  UNL1       -0.2700
     14 N           0.1960    0.9224   21.2248 N.am    1  UNL1       -0.3000
     15 H          -0.7482    0.6949   21.0638 H       1  UNL1        0.1498
     16 C           1.2716    0.2964   20.3876 C.3     1  UNL1        0.0986
     17 C           2.1171   -0.8056   20.9541 C.3     1  UNL1        0.0220
     18 C           3.1928   -1.4317   20.1168 C.3     1  UNL1        0.0019
     19 C           3.4230   -0.9558   18.7131 C.3     1  UNL1        0.0026
     20 C           2.5776    0.1461   18.1466 C.3     1  UNL1        0.0309
     21 C           1.5019    0.7722   18.9838 C.3     1  UNL1        0.1283
     22 O           0.6564    1.8742   18.4173 O.3     1  UNL1       -0.3828
     23 H           0.9339    2.0588   17.5064 H       1  UNL1        0.2104
     24 C          -1.5541    2.8188   26.9638 C.3     1  UNL1        0.1007
     25 N           1.8362    0.6183   28.9419 N.pl3   1  UNL1       -0.3046
     26 C           2.0221    2.0389   28.4975 C.3     1  UNL1        0.1081
     27 C           0.8920    2.7724   27.8382 C.3     1  UNL1        0.0941
     28 N          -0.4240    2.0853   27.6231 N.3     1  UNL1       -0.2659
     29 C          -0.6099    0.6647   28.0675 C.3     1  UNL1        0.0941
     30 C           0.5203   -0.0688   28.7268 C.3     1  UNL1        0.1081
     31 C           5.2266   -1.5823   30.9199 C.ar    1  UNL1        0.0685
     32 C           4.0149   -1.1992   31.7168 C.ar    1  UNL1        0.0115
     33 C           2.8847   -0.4657   31.0574 C.ar    1  UNL1        0.0152
     34 C           2.9663   -0.1152   29.6012 C.ar    1  UNL1        0.0480
     35 C           4.1781   -0.4984   28.8043 C.ar    1  UNL1        0.0152
     36 C           5.3082   -1.2319   29.4637 C.ar    1  UNL1        0.0115
     37 N           7.4869   -3.0494   32.2386 N.1     1  UNL1       -0.1908
     38 C           6.3567   -2.3158   31.5793 C.1     1  UNL1        0.1004
@<TRIPOS>BOND
     1    37    38    3
     2    38    31    1
     3    31    32   ar
     4    32    33   ar
     5    33    34   ar
     6    34    25    1
     7    25    26    1
     8    26    27    1
     9    27    28    1
    10    28    24    1
    11    24     1    1
    12     1     2   ar
    13     2     3   ar
    14     3    12    1
    15    12    13    2
    16    12    14   am
    17    16    14    1
    18    16    17    1
    19    17    18    1
    20    18    19    1
    21    19    20    1
    22    20    21    1
    23    21    22    1
    24     3     4   ar
    25     4     5    2
    26     4     6   ar
    27     6     7   ar
    28     7     8   ar
    29     8     9   ar
    30     9    10   ar
    31    10    11   ar
    32    28    29    1
    33    29    30    1
    34    34    35   ar
    35    35    36   ar
    36    36    31   ar
    37    30    25    1
    38    11     1   ar
    39    21    16    1
    40    11     6   ar
    41    14    15    1
    42    22    23    1
@<TRIPOS>MOLECULE
*****
 38 42 0 0 0
SMALL
GASTEIGER

@<TRIPOS>ATOM
      1 C          -1.5433    3.2614   21.2788 C.ar    1  UNL1        0.0104
      2 C          -1.0847    3.1769   22.7044 C.ar    1  UNL1        0.0078
      3 C          -2.0711    3.3506   23.8211 C.ar    1  UNL1        0.1095
      4 C          -3.5160    3.6088   23.5121 C.ar    1  UNL1        0.2691
      5 O          -4.5024    3.7825   24.6287 O.2     1  UNL1       -0.2665
      6 N          -3.9746    3.6933   22.0863 N.ar    1  UNL1       -0.2733
      7 C          -5.4195    3.9516   21.7773 C.ar    1  UNL1        0.0829
      8 C          -5.8781    4.0361   20.3517 C.ar    1  UNL1        0.0191
      9 C          -4.8917    3.8624   19.2350 C.ar    1  UNL1        0.0030
     10 C          -3.4468    3.6042   19.5440 C.ar    1  UNL1        0.0174
     11 C          -2.9883    3.5196   20.9697 C.ar    1  UNL1        0.0642
     12 C          -1.6125    3.2660   25.2468 C.2     1  UNL1        0.2505
     13 O          -1.8902    4.3970   26.1922 O.2     1  UNL1       -0.2700
     14 N          -0.8762    2.0506   25.7270 N.am    1  UNL1       -0.3000
     15 H          -0.6939    1.3084   25.1064 H       1  UNL1        0.1498
     16 C          -0.4176    1.9661   27.1526 C.3     1  UNL1        0.0986
     17 C          -0.9879    0.9193   28.0632 C.3     1  UNL1        0.0220
     18 C          -0.5294    0.8348   29.4888 C.3     1  UNL1        0.0019
     19 C           0.4995    1.7971   30.0040 C.3     1  UNL1        0.0026
     20 C           1.0698    2.8439   29.0936 C.3     1  UNL1        0.0309
     21 C           0.6112    2.9284   27.6678 C.3     1  UNL1        0.1283
     22 O           1.1815    3.9752   26.7574 O.3     1  UNL1       -0.3828
     23 H           1.8280    4.5098   27.2443 H       1  UNL1        0.2104
     24 C          -0.5569    3.0877   20.1621 C.3     1  UNL1        0.1007
     25 N           2.6896   -0.0111   20.4894 N.pl3   1  UNL1       -0.3046
     26 C           1.2572   -0.4365   20.3585 C.3     1  UNL1        0.1081
     27 C           0.1750    0.5964   20.2494 C.3     1  UNL1        0.0941
     28 N           0.5253    2.0548   20.2712 N.3     1  UNL1       -0.2659
     29 C           1.9577    2.4802   20.4021 C.3     1  UNL1        0.0941
     30 C           3.0399    1.4472   20.5112 C.3     1  UNL1        0.1081
     31 C           5.9362   -3.1099   20.8167 C.ar    1  UNL1        0.0685
     32 C           5.8818   -2.2039   19.6225 C.ar    1  UNL1        0.0115
     33 C           4.7996   -1.1709   19.5134 C.ar    1  UNL1        0.0152
     34 C           3.7718   -1.0440   20.5985 C.ar    1  UNL1        0.0480
     35 C           3.8262   -1.9501   21.7928 C.ar    1  UNL1        0.0152
     36 C           4.9084   -2.9830   21.9019 C.ar    1  UNL1        0.0115
     37 N           8.1006   -5.1758   21.0349 N.1     1  UNL1       -0.1908
     38 C           7.0184   -4.1428   20.9258 C.1     1  UNL1        0.1004
@<TRIPOS>BOND
     1    37    38    3
     2    38    31    1
     3    31    32   ar
     4    32    33   ar
     5    33    34   ar
     6    34    25    1
     7    25    26    1
     8    26    27    1
     9    27    28    1
    10    28    24    1
    11    24     1    1
    12     1     2   ar
    13     2     3   ar
    14     3    12    1
    15    12    13    2
    16    12    14   am
    17    16    14    1
    18    16    17    1
    19    17    18    1
    20    18    19    1
    21    19    20    1
    22    20    21    1
    23    21    22    1
    24     3     4   ar
    25     4     5    2
    26     4     6   ar
    27     6     7   ar
    28     7     8   ar
    29     8     9   ar
    30     9    10   ar
    31    10    11   ar
    32    28    29    1
    33    29    30    1
    34    34    35   ar
    35    35    36   ar
    36    36    31   ar
    37    30    25    1
    38    11     1   ar
    39    21    16    1
    40    11     6   ar
    41    14    15    1
    42    22    23    1
