@<TRIPOS>MOLECULE
*****
 31 32 0 0 0
SMALL
GASTEIGER

@<TRIPOS>ATOM
      1 C         -10.1645  -18.0615   22.4778 C.3     1  UNL1        0.0828
      2 C          -9.7955  -19.1313   23.4625 C.2     1  UNL1        0.2442
      3 O          -8.5964  -19.9976   23.2145 O.2     1  UNL1       -0.2730
      4 N         -10.6258  -19.3348   24.6951 N.am    1  UNL1       -0.1970
      5 O         -10.2569  -20.4045   25.6797 O.3     1  UNL1       -0.2952
      6 H         -11.4128  -18.7662   24.8578 H       1  UNL1        0.1822
      7 H          -9.4630  -20.8685   25.3707 H       1  UNL1        0.2414
      8 C          -9.8902  -16.6217   22.7969 C.3     1  UNL1        0.0355
      9 C          -4.8247  -15.8903   23.6948 C.3     1  UNL1        0.0334
     10 C          -6.2432  -15.8945   24.1827 C.ar    1  UNL1        0.0050
     11 C          -7.3575  -16.2560   23.2459 C.ar    1  UNL1       -0.0063
     12 C          -8.7759  -16.2602   23.7338 C.ar    1  UNL1       -0.0222
     13 C          -9.0800  -15.9030   25.1585 C.ar    1  UNL1       -0.0063
     14 C          -7.9658  -15.5415   26.0953 C.ar    1  UNL1        0.0050
     15 C          -8.2699  -15.1842   27.5201 C.3     1  UNL1        0.0334
     16 C          -6.5473  -15.5373   25.6074 C.ar    1  UNL1        0.1321
     17 F          -5.4330  -15.1758   26.5443 F       1  UNL1       -0.2048
     18 C         -10.8076  -18.4315   21.1742 C.3     1  UNL1        0.0095
     19 C         -10.2790  -19.5881   20.3787 C.3     1  UNL1        0.0019
     20 C          -9.1909  -19.3694   19.3696 C.3     1  UNL1        0.0171
     21 C          -7.7643  -19.6611   19.7298 C.3     1  UNL1        0.0688
     22 N          -6.9964  -18.7009   20.5890 N.3     1  UNL1       -0.2937
     23 H          -7.6756  -18.2384   21.1933 H       1  UNL1        0.1236
     24 C          -5.8976  -19.2034   21.4779 C.3     1  UNL1        0.0956
     25 C          -4.4642  -19.0172   21.0769 C.ar    1  UNL1       -0.0062
     26 C          -3.3963  -18.9344   22.1270 C.ar    1  UNL1       -0.0006
     27 C          -1.9629  -18.7482   21.7260 C.ar    1  UNL1        0.0294
     28 C          -1.5975  -18.6448   20.2749 C.ar    1  UNL1        0.1401
     29 F          -0.1642  -18.4585   19.8739 F       1  UNL1       -0.2042
     30 C          -2.6654  -18.7275   19.2248 C.ar    1  UNL1        0.0294
     31 C          -4.0987  -18.9138   19.6257 C.ar    1  UNL1       -0.0006
@<TRIPOS>BOND
     1     9    10    1
     2    10    11   ar
     3    11    12   ar
     4    12     8    1
     5     1     8    1
     6     1    18    1
     7    18    19    1
     8    19    20    1
     9    20    21    1
    10    21    22    1
    11    22    24    1
    12    24    25    1
    13    25    26   ar
    14    26    27   ar
    15    27    28   ar
    16    28    29    1
    17    28    30   ar
    18    30    31   ar
    19     1     2    1
    20     2     3    2
    21     2     4   am
    22     4     5    1
    23    12    13   ar
    24    13    14   ar
    25    14    15    1
    26    14    16   ar
    27    16    17    1
    28    16    10   ar
    29    31    25   ar
    30    22    23    1
    31     4     6    1
    32     5     7    1
@<TRIPOS>MOLECULE
*****
 31 32 0 0 0
SMALL
GASTEIGER

@<TRIPOS>ATOM
      1 C         -10.3695  -17.8199   22.4695 C.3     1  UNL1        0.0828
      2 C         -10.7379  -18.6170   23.6857 C.2     1  UNL1        0.2442
      3 O         -12.1004  -18.4685   24.2953 O.2     1  UNL1       -0.2730
      4 N          -9.7438  -19.5624   24.2922 N.am    1  UNL1       -0.1970
      5 O         -10.1122  -20.3594   25.5084 O.3     1  UNL1       -0.2952
      6 H          -8.8496  -19.6599   23.8921 H       1  UNL1        0.1822
      7 H         -11.0211  -20.1462   25.7716 H       1  UNL1        0.2414
      8 C          -9.8682  -16.4140   22.6177 C.3     1  UNL1        0.0355
      9 C          -8.3694  -15.3841   27.4853 C.3     1  UNL1        0.0334
     10 C          -8.0321  -15.5904   26.0383 C.ar    1  UNL1        0.0050
     11 C          -9.1188  -15.8990   25.0515 C.ar    1  UNL1       -0.0063
     12 C          -8.7815  -16.1053   23.6046 C.ar    1  UNL1       -0.0222
     13 C          -7.3575  -16.0030   23.1444 C.ar    1  UNL1       -0.0063
     14 C          -6.2708  -15.6943   24.1312 C.ar    1  UNL1        0.0050
     15 C          -4.8467  -15.5920   23.6711 C.3     1  UNL1        0.0334
     16 C          -6.6081  -15.4881   25.5782 C.ar    1  UNL1        0.1321
     17 F          -5.5213  -15.1794   26.5650 F       1  UNL1       -0.2048
     18 C         -10.5023  -18.4289   21.1052 C.3     1  UNL1        0.0095
     19 C          -9.4128  -19.3083   20.5670 C.3     1  UNL1        0.0019
     20 C          -8.0008  -19.1274   21.0398 C.3     1  UNL1        0.0171
     21 C          -6.8565  -19.4930   20.1415 C.3     1  UNL1        0.0688
     22 N          -6.0132  -20.6939   20.4521 N.3     1  UNL1       -0.2937
     23 H          -6.4198  -21.4789   19.9432 H       1  UNL1        0.1236
     24 C          -4.5475  -20.6839   20.1333 C.3     1  UNL1        0.0956
     25 C          -3.7160  -19.4803   20.4648 C.ar    1  UNL1       -0.0062
     26 C          -3.1735  -18.6173   19.3643 C.ar    1  UNL1       -0.0006
     27 C          -2.3420  -17.4136   19.6959 C.ar    1  UNL1        0.0294
     28 C          -2.0531  -17.0729   21.1278 C.ar    1  UNL1        0.1401
     29 F          -1.2217  -15.8693   21.4593 F       1  UNL1       -0.2042
     30 C          -2.5957  -17.9359   22.2282 C.ar    1  UNL1        0.0294
     31 C          -3.4271  -19.1395   21.8967 C.ar    1  UNL1       -0.0006
@<TRIPOS>BOND
     1     9    10    1
     2    10    11   ar
     3    11    12   ar
     4    12     8    1
     5     1     8    1
     6     1    18    1
     7    18    19    1
     8    19    20    1
     9    20    21    1
    10    21    22    1
    11    22    24    1
    12    24    25    1
    13    25    26   ar
    14    26    27   ar
    15    27    28   ar
    16    28    29    1
    17    28    30   ar
    18    30    31   ar
    19     1     2    1
    20     2     3    2
    21     2     4   am
    22     4     5    1
    23    12    13   ar
    24    13    14   ar
    25    14    15    1
    26    14    16   ar
    27    16    17    1
    28    16    10   ar
    29    31    25   ar
    30    22    23    1
    31     4     6    1
    32     5     7    1
@<TRIPOS>MOLECULE
*****
 31 32 0 0 0
SMALL
GASTEIGER

@<TRIPOS>ATOM
      1 C         -10.7446  -17.9460   23.1615 C.3     1  UNL1        0.0828
      2 C         -12.2422  -17.8856   23.0992 C.2     1  UNL1        0.2442
      3 O         -12.9248  -17.5042   21.8191 O.2     1  UNL1       -0.2730
      4 N         -13.0570  -18.2066   24.3170 N.am    1  UNL1       -0.1970
      5 O         -14.5545  -18.1461   24.2547 O.3     1  UNL1       -0.2952
      6 H         -12.6090  -18.4569   25.1571 H       1  UNL1        0.1822
      7 H         -14.8307  -17.8859   23.3620 H       1  UNL1        0.2414
      8 C          -9.9314  -16.7230   22.8570 C.3     1  UNL1        0.0355
      9 C          -4.8659  -15.8872   23.6586 C.3     1  UNL1        0.0334
     10 C          -6.2763  -15.9047   24.1689 C.ar    1  UNL1        0.0050
     11 C          -7.3986  -16.3051   23.2578 C.ar    1  UNL1       -0.0063
     12 C          -8.8090  -16.3226   23.7681 C.ar    1  UNL1       -0.0222
     13 C          -9.0972  -15.9397   25.1895 C.ar    1  UNL1       -0.0063
     14 C          -7.9749  -15.5393   26.1006 C.ar    1  UNL1        0.0050
     15 C          -8.2629  -15.1564   27.5220 C.3     1  UNL1        0.0334
     16 C          -6.5644  -15.5218   25.5903 C.ar    1  UNL1        0.1321
     17 F          -5.4421  -15.1214   26.5014 F       1  UNL1       -0.2048
     18 C         -10.0604  -19.2295   23.5283 C.3     1  UNL1        0.0095
     19 C          -9.0577  -19.8386   22.5937 C.3     1  UNL1        0.0019
     20 C          -9.0168  -19.4124   21.1561 C.3     1  UNL1        0.0171
     21 C          -7.7022  -19.3120   20.4407 C.3     1  UNL1        0.0688
     22 N          -6.5211  -20.0976   20.9284 N.3     1  UNL1       -0.2937
     23 H          -6.0354  -20.4433   20.1007 H       1  UNL1        0.1236
     24 C          -5.4877  -19.4389   21.7933 C.3     1  UNL1        0.0956
     25 C          -4.1505  -19.0749   21.2193 C.ar    1  UNL1       -0.0062
     26 C          -3.9743  -18.9755   19.7330 C.ar    1  UNL1       -0.0006
     27 C          -2.6371  -18.6115   19.1590 C.ar    1  UNL1        0.0294
     28 C          -1.4762  -18.3470   20.0712 C.ar    1  UNL1        0.1401
     29 F          -0.1391  -17.9830   19.4971 F       1  UNL1       -0.2042
     30 C          -1.6524  -18.4464   21.5575 C.ar    1  UNL1        0.0294
     31 C          -2.9895  -18.8104   22.1315 C.ar    1  UNL1       -0.0006
@<TRIPOS>BOND
     1     9    10    1
     2    10    11   ar
     3    11    12   ar
     4    12     8    1
     5     1     8    1
     6     1    18    1
     7    18    19    1
     8    19    20    1
     9    20    21    1
    10    21    22    1
    11    22    24    1
    12    24    25    1
    13    25    26   ar
    14    26    27   ar
    15    27    28   ar
    16    28    29    1
    17    28    30   ar
    18    30    31   ar
    19     1     2    1
    20     2     3    2
    21     2     4   am
    22     4     5    1
    23    12    13   ar
    24    13    14   ar
    25    14    15    1
    26    14    16   ar
    27    16    17    1
    28    16    10   ar
    29    31    25   ar
    30    22    23    1
    31     4     6    1
    32     5     7    1
@<TRIPOS>MOLECULE
*****
 31 32 0 0 0
SMALL
GASTEIGER

@<TRIPOS>ATOM
      1 C          -7.2587  -16.1596   23.1516 C.3     1  UNL1        0.0828
      2 C          -6.3000  -15.3523   23.9758 C.2     1  UNL1        0.2442
      3 O          -4.9973  -14.9018   23.3843 O.2     1  UNL1       -0.2730
      4 N          -6.6440  -14.9957   25.3916 N.am    1  UNL1       -0.1970
      5 O          -5.6854  -14.1884   26.2158 O.3     1  UNL1       -0.2952
      6 H          -7.4991  -15.2914   25.7799 H       1  UNL1        0.1822
      7 H          -4.8991  -13.9814   25.6869 H       1  UNL1        0.2414
      8 C          -7.2855  -17.6538   23.2813 C.3     1  UNL1        0.0355
      9 C          -2.4855  -19.0477   21.8612 C.3     1  UNL1        0.0334
     10 C          -3.9727  -19.1930   21.7302 C.ar    1  UNL1        0.0050
     11 C          -4.8855  -18.3508   22.5712 C.ar    1  UNL1       -0.0063
     12 C          -6.3727  -18.4961   22.4402 C.ar    1  UNL1       -0.0222
     13 C          -6.9471  -19.4837   21.4683 C.ar    1  UNL1       -0.0063
     14 C          -6.0342  -20.3259   20.6273 C.ar    1  UNL1        0.0050
     15 C          -6.6086  -21.3136   19.6553 C.3     1  UNL1        0.0334
     16 C          -4.5470  -20.1806   20.7583 C.ar    1  UNL1        0.1321
     17 F          -3.6342  -21.0229   19.9172 F       1  UNL1       -0.2048
     18 C          -8.1905  -15.4727   22.1978 C.3     1  UNL1        0.0095
     19 C          -9.2390  -16.2636   21.4731 C.3     1  UNL1        0.0019
     20 C         -10.5689  -15.6414   21.1658 C.3     1  UNL1        0.0171
     21 C         -11.4790  -16.2769   20.1569 C.3     1  UNL1        0.0688
     22 N         -12.7960  -16.8492   20.5903 N.3     1  UNL1       -0.2937
     23 H         -13.0045  -17.6209   19.9567 H       1  UNL1        0.1236
     24 C         -12.9621  -17.3768   21.9846 C.3     1  UNL1        0.0956
     25 C         -11.9494  -18.3264   22.5528 C.ar    1  UNL1       -0.0062
     26 C         -11.5488  -18.2213   23.9945 C.ar    1  UNL1       -0.0006
     27 C         -10.5362  -19.1709   24.5626 C.ar    1  UNL1        0.0294
     28 C          -9.9241  -20.2256   23.6891 C.ar    1  UNL1        0.1401
     29 F          -8.9115  -21.1752   24.2573 F       1  UNL1       -0.2042
     30 C         -10.3247  -20.3307   22.2474 C.ar    1  UNL1        0.0294
     31 C         -11.3373  -19.3811   21.6793 C.ar    1  UNL1       -0.0006
@<TRIPOS>BOND
     1     9    10    1
     2    10    11   ar
     3    11    12   ar
     4    12     8    1
     5     1     8    1
     6     1    18    1
     7    18    19    1
     8    19    20    1
     9    20    21    1
    10    21    22    1
    11    22    24    1
    12    24    25    1
    13    25    26   ar
    14    26    27   ar
    15    27    28   ar
    16    28    29    1
    17    28    30   ar
    18    30    31   ar
    19     1     2    1
    20     2     3    2
    21     2     4   am
    22     4     5    1
    23    12    13   ar
    24    13    14   ar
    25    14    15    1
    26    14    16   ar
    27    16    17    1
    28    16    10   ar
    29    31    25   ar
    30    22    23    1
    31     4     6    1
    32     5     7    1
@<TRIPOS>MOLECULE
*****
 31 32 0 0 0
SMALL
GASTEIGER

@<TRIPOS>ATOM
      1 C          -7.5631  -15.9977   23.4881 C.3     1  UNL1        0.0828
      2 C          -6.9712  -15.3366   24.6975 C.2     1  UNL1        0.2442
      3 O          -5.5980  -14.7370   24.6279 O.2     1  UNL1       -0.2730
      4 N          -7.7525  -15.2751   25.9765 N.am    1  UNL1       -0.1970
      5 O          -7.1606  -14.6140   27.1859 O.3     1  UNL1       -0.2952
      6 H          -8.6537  -15.6686   26.0222 H       1  UNL1        0.1822
      7 H          -6.2746  -14.2821   26.9719 H       1  UNL1        0.2414
      8 C          -7.5825  -17.4941   23.3853 C.3     1  UNL1        0.0355
      9 C          -5.9027  -21.2227   20.1797 C.3     1  UNL1        0.0334
     10 C          -5.6141  -20.0783   21.1056 C.ar    1  UNL1        0.0050
     11 C          -6.7426  -19.3584   21.7825 C.ar    1  UNL1       -0.0063
     12 C          -6.4540  -18.2140   22.7083 C.ar    1  UNL1       -0.0222
     13 C          -5.0370  -17.7896   22.9572 C.ar    1  UNL1       -0.0063
     14 C          -3.9086  -18.5095   22.2802 C.ar    1  UNL1        0.0050
     15 C          -2.4915  -18.0851   22.5290 C.3     1  UNL1        0.0334
     16 C          -4.1972  -19.6539   21.3544 C.ar    1  UNL1        0.1321
     17 F          -3.0687  -20.3738   20.6774 F       1  UNL1       -0.2048
     18 C          -8.1356  -15.1625   22.3815 C.3     1  UNL1        0.0095
     19 C          -8.9474  -15.8078   21.2978 C.3     1  UNL1        0.0019
     20 C         -10.4295  -15.5841   21.2366 C.3     1  UNL1        0.0171
     21 C         -11.2548  -16.3035   20.2113 C.3     1  UNL1        0.0688
     22 N         -12.6584  -16.7206   20.5366 N.3     1  UNL1       -0.2937
     23 H         -12.9455  -17.3786   19.8120 H       1  UNL1        0.1236
     24 C         -12.9617  -17.3688   21.8549 C.3     1  UNL1        0.0956
     25 C         -11.9732  -18.3138   22.4711 C.ar    1  UNL1       -0.0062
     26 C         -11.2615  -19.3184   21.6143 C.ar    1  UNL1       -0.0006
     27 C         -10.2729  -20.2635   22.2305 C.ar    1  UNL1        0.0294
     28 C          -9.9961  -20.2039   23.7035 C.ar    1  UNL1        0.1401
     29 F          -9.0076  -21.1489   24.3197 F       1  UNL1       -0.2042
     30 C         -10.7078  -19.1992   24.5603 C.ar    1  UNL1        0.0294
     31 C         -11.6964  -18.2542   23.9442 C.ar    1  UNL1       -0.0006
@<TRIPOS>BOND
     1     9    10    1
     2    10    11   ar
     3    11    12   ar
     4    12     8    1
     5     1     8    1
     6     1    18    1
     7    18    19    1
     8    19    20    1
     9    20    21    1
    10    21    22    1
    11    22    24    1
    12    24    25    1
    13    25    26   ar
    14    26    27   ar
    15    27    28   ar
    16    28    29    1
    17    28    30   ar
    18    30    31   ar
    19     1     2    1
    20     2     3    2
    21     2     4   am
    22     4     5    1
    23    12    13   ar
    24    13    14   ar
    25    14    15    1
    26    14    16   ar
    27    16    17    1
    28    16    10   ar
    29    31    25   ar
    30    22    23    1
    31     4     6    1
    32     5     7    1
@<TRIPOS>MOLECULE
*****
 31 32 0 0 0
SMALL
GASTEIGER

@<TRIPOS>ATOM
      1 C          -7.8970  -16.0813   23.4350 C.3     1  UNL1        0.0828
      2 C          -7.5765  -15.5295   24.7926 C.2     1  UNL1        0.2442
      3 O          -8.5935  -15.6061   25.8925 O.2     1  UNL1       -0.2730
      4 N          -6.2391  -14.9011   25.0501 N.am    1  UNL1       -0.1970
      5 O          -5.9186  -14.3494   26.4076 O.3     1  UNL1       -0.2952
      6 H          -5.5716  -14.8509   24.3282 H       1  UNL1        0.1822
      7 H          -6.6783  -14.4786   26.9968 H       1  UNL1        0.2414
      8 C          -7.9111  -17.5646   23.2125 C.3     1  UNL1        0.0355
      9 C          -2.7532  -17.9655   22.7275 C.3     1  UNL1        0.0334
     10 C          -4.1316  -18.4469   22.3837 C.ar    1  UNL1        0.0050
     11 C          -5.3322  -17.7651   22.9700 C.ar    1  UNL1       -0.0063
     12 C          -6.7106  -18.2465   22.6262 C.ar    1  UNL1       -0.0222
     13 C          -6.8884  -19.4098   21.6961 C.ar    1  UNL1       -0.0063
     14 C          -5.6879  -20.0917   21.1099 C.ar    1  UNL1        0.0050
     15 C          -5.8658  -21.2550   20.1797 C.3     1  UNL1        0.0334
     16 C          -4.3095  -19.6102   21.4537 C.ar    1  UNL1        0.1321
     17 F          -3.1089  -20.2921   20.8673 F       1  UNL1       -0.2048
     18 C          -8.2033  -15.1497   22.3000 C.3     1  UNL1        0.0095
     19 C          -8.9680  -15.6453   21.1085 C.3     1  UNL1        0.0019
     20 C         -10.4648  -15.5498   21.0852 C.3     1  UNL1        0.0171
     21 C         -11.2250  -15.9808   19.8660 C.3     1  UNL1        0.0688
     22 N         -11.5616  -17.4286   19.6649 N.3     1  UNL1       -0.2937
     23 H         -11.1445  -17.7072   18.7767 H       1  UNL1        0.1236
     24 C         -11.1353  -18.4459   20.6814 C.3     1  UNL1        0.0956
     25 C         -11.7910  -18.4788   22.0301 C.ar    1  UNL1       -0.0062
     26 C         -11.0789  -19.0994   23.1953 C.ar    1  UNL1       -0.0006
     27 C         -11.7346  -19.1322   24.5441 C.ar    1  UNL1        0.0294
     28 C         -13.1023  -18.5444   24.7275 C.ar    1  UNL1        0.1401
     29 F         -13.7580  -18.5773   26.0762 F       1  UNL1       -0.2042
     30 C         -13.8145  -17.9238   23.5623 C.ar    1  UNL1        0.0294
     31 C         -13.1588  -17.8910   22.2136 C.ar    1  UNL1       -0.0006
@<TRIPOS>BOND
     1     9    10    1
     2    10    11   ar
     3    11    12   ar
     4    12     8    1
     5     1     8    1
     6     1    18    1
     7    18    19    1
     8    19    20    1
     9    20    21    1
    10    21    22    1
    11    22    24    1
    12    24    25    1
    13    25    26   ar
    14    26    27   ar
    15    27    28   ar
    16    28    29    1
    17    28    30   ar
    18    30    31   ar
    19     1     2    1
    20     2     3    2
    21     2     4   am
    22     4     5    1
    23    12    13   ar
    24    13    14   ar
    25    14    15    1
    26    14    16   ar
    27    16    17    1
    28    16    10   ar
    29    31    25   ar
    30    22    23    1
    31     4     6    1
    32     5     7    1
@<TRIPOS>MOLECULE
*****
 31 32 0 0 0
SMALL
GASTEIGER

@<TRIPOS>ATOM
      1 C           1.9099    0.8064   19.9691 C.3     1  UNL1        0.0828
      2 C           0.8316    1.8347   20.1420 C.2     1  UNL1        0.2442
      3 O           1.0929    3.2649   19.7729 O.2     1  UNL1       -0.2730
      4 N          -0.5081    1.4328   20.6840 N.am    1  UNL1       -0.1970
      5 O          -1.5864    2.4611   20.8569 O.3     1  UNL1       -0.2952
      6 H          -0.6797    0.4941   20.9262 H       1  UNL1        0.1822
      7 H          -1.2553    3.3276   20.5735 H       1  UNL1        0.2414
      8 C           1.5850   -0.6515   20.1070 C.3     1  UNL1        0.0355
      9 C           4.7371   -2.3995   23.8498 C.3     1  UNL1        0.0334
     10 C           4.2125   -2.4871   22.4473 C.ar    1  UNL1        0.0050
     11 C           3.1611   -1.5255   21.9784 C.ar    1  UNL1       -0.0063
     12 C           2.6364   -1.6132   20.5759 C.ar    1  UNL1       -0.0222
     13 C           3.1632   -2.6623   19.6422 C.ar    1  UNL1       -0.0063
     14 C           4.2146   -3.6239   20.1111 C.ar    1  UNL1        0.0050
     15 C           4.7414   -4.6731   19.1774 C.3     1  UNL1        0.0334
     16 C           4.7392   -3.5363   21.5136 C.ar    1  UNL1        0.1321
     17 F           5.7907   -4.4979   21.9825 F       1  UNL1       -0.2048
     18 C           3.3130    1.2359   19.6582 C.3     1  UNL1        0.0095
     19 C           3.7587    1.3670   18.2320 C.3     1  UNL1        0.0019
     20 C           4.3845    0.1975   17.5313 C.3     1  UNL1        0.0171
     21 C           5.6843    0.3679   16.8023 C.3     1  UNL1        0.0688
     22 N           6.8395   -0.5391   17.1069 N.3     1  UNL1       -0.2937
     23 H           7.5635    0.0393   17.5332 H       1  UNL1        0.1236
     24 C           6.6461   -1.7237   18.0065 C.3     1  UNL1        0.0956
     25 C           7.1017   -1.6635   19.4343 C.ar    1  UNL1       -0.0062
     26 C           6.6548   -0.5363   20.3173 C.ar    1  UNL1       -0.0006
     27 C           7.1104   -0.4761   21.7452 C.ar    1  UNL1        0.0294
     28 C           8.0130   -1.5430   22.2901 C.ar    1  UNL1        0.1401
     29 F           8.4686   -1.4828   23.7179 F       1  UNL1       -0.2042
     30 C           8.4600   -2.6702   21.4071 C.ar    1  UNL1        0.0294
     31 C           8.0043   -2.7305   19.9792 C.ar    1  UNL1       -0.0006
@<TRIPOS>BOND
     1     9    10    1
     2    10    11   ar
     3    11    12   ar
     4    12     8    1
     5     1     8    1
     6     1    18    1
     7    18    19    1
     8    19    20    1
     9    20    21    1
    10    21    22    1
    11    22    24    1
    12    24    25    1
    13    25    26   ar
    14    26    27   ar
    15    27    28   ar
    16    28    29    1
    17    28    30   ar
    18    30    31   ar
    19     1     2    1
    20     2     3    2
    21     2     4   am
    22     4     5    1
    23    12    13   ar
    24    13    14   ar
    25    14    15    1
    26    14    16   ar
    27    16    17    1
    28    16    10   ar
    29    31    25   ar
    30    22    23    1
    31     4     6    1
    32     5     7    1
