@<TRIPOS>MOLECULE
*****
 36 39 0 0 0
SMALL
GASTEIGER

@<TRIPOS>ATOM
      1 C          -8.7682  -16.8812   25.8685 C.ar    1  UNL1        0.0611
      2 C          -9.2308  -16.1400   27.0878 C.ar    1  UNL1        0.1037
      3 N          -8.1314  -15.2113   27.5105 N.ar    1  UNL1       -0.2269
      4 C          -6.9893  -15.3785   26.5525 C.ar    1  UNL1        0.1407
      5 N          -5.6419  -14.7243   26.4731 N.ar    1  UNL1       -0.3374
      6 C          -4.6880  -15.1022   25.3789 C.ar    1  UNL1        0.0735
      7 C          -5.0816  -16.1343   24.3641 C.ar    1  UNL1        0.0201
      8 C          -6.4290  -16.7885   24.4435 C.ar    1  UNL1        0.0047
      9 C          -7.3829  -16.4106   25.5377 C.ar    1  UNL1        0.0386
     10 H          -5.3836  -14.0468   27.1391 H       1  UNL1        0.1674
     11 C          -4.1276  -16.5122   23.2699 C.ar    1  UNL1        0.0399
     12 C          -3.8826  -17.9581   22.9547 C.ar    1  UNL1        0.1034
     13 N          -2.9287  -18.3360   21.8605 N.ar    1  UNL1       -0.2121
     14 C          -2.2198  -17.2679   21.0815 C.ar    1  UNL1        0.2203
     15 N          -2.4649  -15.8220   21.3967 N.ar    1  UNL1       -0.2121
     16 C          -3.4188  -15.4442   22.4909 C.ar    1  UNL1        0.1034
     17 N          -1.2659  -17.6457   19.9873 N.pl3   1  UNL1       -0.2747
     18 C           0.2119  -17.6352   20.2440 C.3     1  UNL1        0.1151
     19 C          -1.7898  -18.0341   18.6365 C.3     1  UNL1        0.1151
     20 C          -9.5531  -17.9122   25.1127 C.2     1  UNL1        0.1994
     21 O          -9.9942  -19.1708   25.7991 O.2     1  UNL1       -0.2864
     22 C          -9.5448  -18.2443   21.1580 C.ar    1  UNL1        0.0919
     23 C         -10.5843  -17.2289   20.7861 C.ar    1  UNL1        0.0181
     24 C         -11.2801  -16.4413   21.8563 C.ar    1  UNL1        0.0016
     25 C         -10.9364  -16.6690   23.2985 C.ar    1  UNL1        0.0055
     26 C          -9.8969  -17.6844   23.6705 C.ar    1  UNL1        0.0677
     27 C          -9.2011  -18.4720   22.6002 C.ar    1  UNL1        0.1576
     28 F          -8.1615  -19.4874   22.9722 F       1  UNL1       -0.2027
     29 N          -8.8490  -19.0320   20.0877 N.pl3   1  UNL1       -0.2166
     30 H          -9.3712  -19.4460   19.3630 H       1  UNL1        0.1734
     31 S          -7.3576  -19.1888   20.1216 S.O2    1  UNL1        0.0540
     32 O          -7.4903  -20.5720   19.5567 O.2     1  UNL1       -0.1545
     33 O          -7.2250  -17.8057   20.6866 O.2     1  UNL1       -0.1545
     34 C          -5.8662  -19.3456   20.1555 C.3     1  UNL1        0.1724
     35 C          -3.8163  -20.9143   19.8601 C.3     1  UNL1        0.0019
     36 C          -5.2574  -20.7148   20.2252 C.3     1  UNL1        0.0273
@<TRIPOS>BOND
     1    35    36    1
     2    36    34    1
     3    34    31    1
     4    31    32    2
     5    31    33    2
     6    31    29    1
     7    29    22    1
     8    22    23   ar
     9    23    24   ar
    10    24    25   ar
    11    25    26   ar
    12    26    20    1
    13    20    21    2
    14    20     1    1
    15     1     2   ar
    16     2     3   ar
    17     3     4   ar
    18     4     5   ar
    19     5     6   ar
    20     6     7   ar
    21     7    11    1
    22    11    12   ar
    23    12    13   ar
    24    13    14   ar
    25    14    17    1
    26    17    18    1
    27    17    19    1
    28    14    15   ar
    29    15    16   ar
    30     7     8   ar
    31     8     9   ar
    32    26    27   ar
    33    27    28    1
    34    27    22   ar
    35     9     1   ar
    36     9     4    1
    37    16    11   ar
    38    29    30    1
    39     5    10    1
@<TRIPOS>MOLECULE
*****
 36 39 0 0 0
SMALL
GASTEIGER

@<TRIPOS>ATOM
      1 C           4.8573   -3.2469   22.4895 C.ar    1  UNL1        0.0611
      2 C           5.8224   -3.8295   23.4790 C.ar    1  UNL1        0.1037
      3 N           5.7310   -3.0271   24.7431 N.ar    1  UNL1       -0.2269
      4 C           4.7095   -1.9487   24.5348 C.ar    1  UNL1        0.1407
      5 N           4.2012   -0.8605   25.4334 N.ar    1  UNL1       -0.3374
      6 C           3.1529    0.0918   24.9392 C.ar    1  UNL1        0.0735
      7 C           2.6130   -0.0441   23.5463 C.ar    1  UNL1        0.0201
      8 C           3.1212   -1.1322   22.6477 C.ar    1  UNL1        0.0047
      9 C           4.1695   -2.0845   23.1419 C.ar    1  UNL1        0.0386
     10 H           4.5556   -0.7714   26.3475 H       1  UNL1        0.1674
     11 C           1.5647    0.9082   23.0521 C.ar    1  UNL1        0.0399
     12 C           1.2349    2.1381   23.8451 C.ar    1  UNL1        0.1034
     13 N           0.1866    3.0904   23.3509 N.ar    1  UNL1       -0.2121
     14 C          -0.5319    2.8129   22.0637 C.ar    1  UNL1        0.2203
     15 N          -0.2021    1.5830   21.2708 N.ar    1  UNL1       -0.2121
     16 C           0.8461    0.6307   21.7650 C.ar    1  UNL1        0.1034
     17 N          -1.5802    3.7651   21.5695 N.pl3   1  UNL1       -0.2747
     18 C          -2.9887    3.6577   22.0740 C.3     1  UNL1        0.1151
     19 C          -1.2199    4.8248   20.5709 C.3     1  UNL1        0.1151
     20 C           4.6215   -3.7402   21.0927 C.2     1  UNL1        0.1994
     21 O           4.0030   -5.0880   20.8676 O.2     1  UNL1       -0.2864
     22 C           4.3654   -1.1416   18.1039 C.ar    1  UNL1        0.0919
     23 C           5.7695   -1.1762   17.5772 C.ar    1  UNL1        0.0181
     24 C           6.7909   -2.0654   18.2223 C.ar    1  UNL1        0.0016
     25 C           6.4083   -2.9200   19.3941 C.ar    1  UNL1        0.0055
     26 C           5.0042   -2.8855   19.9208 C.ar    1  UNL1        0.0677
     27 C           3.9828   -1.9963   19.2757 C.ar    1  UNL1        0.1576
     28 F           2.5788   -1.9618   19.8025 F       1  UNL1       -0.2027
     29 N           3.3441   -0.2524   17.4588 N.pl3   1  UNL1       -0.2166
     30 H           2.9789   -0.4833   16.5742 H       1  UNL1        0.1734
     31 S           2.8791    0.9884   18.1616 S.O2    1  UNL1        0.0540
     32 O           4.2750    1.5356   18.1191 O.2     1  UNL1       -0.1545
     33 O           1.4831    0.4412   18.2042 O.2     1  UNL1       -0.1545
     34 C           2.4140    2.2293   18.8644 C.3     1  UNL1        0.1724
     35 C           2.7072    3.9713   20.7696 C.3     1  UNL1        0.0019
     36 C           3.2385    2.8187   19.9702 C.3     1  UNL1        0.0273
@<TRIPOS>BOND
     1    35    36    1
     2    36    34    1
     3    34    31    1
     4    31    32    2
     5    31    33    2
     6    31    29    1
     7    29    22    1
     8    22    23   ar
     9    23    24   ar
    10    24    25   ar
    11    25    26   ar
    12    26    20    1
    13    20    21    2
    14    20     1    1
    15     1     2   ar
    16     2     3   ar
    17     3     4   ar
    18     4     5   ar
    19     5     6   ar
    20     6     7   ar
    21     7    11    1
    22    11    12   ar
    23    12    13   ar
    24    13    14   ar
    25    14    17    1
    26    17    18    1
    27    17    19    1
    28    14    15   ar
    29    15    16   ar
    30     7     8   ar
    31     8     9   ar
    32    26    27   ar
    33    27    28    1
    34    27    22   ar
    35     9     1   ar
    36     9     4    1
    37    16    11   ar
    38    29    30    1
    39     5    10    1
@<TRIPOS>MOLECULE
*****
 36 39 0 0 0
SMALL
GASTEIGER

@<TRIPOS>ATOM
      1 C           6.6941   -3.3618   30.0366 C.ar    1  UNL1        0.0611
      2 C           6.7925   -4.2750   31.2225 C.ar    1  UNL1        0.1037
      3 N           6.9595   -5.6768   30.7155 N.ar    1  UNL1       -0.2269
      4 C           6.9643   -5.6300   29.2162 C.ar    1  UNL1        0.1407
      5 N           7.0968   -6.7053   28.1789 N.ar    1  UNL1       -0.3374
      6 C           7.0653   -6.3498   26.7220 C.ar    1  UNL1        0.0735
      7 C           6.9013   -4.9190   26.3024 C.ar    1  UNL1        0.0201
      8 C           6.7688   -3.8437   27.3397 C.ar    1  UNL1        0.0047
      9 C           6.8003   -4.1992   28.7966 C.ar    1  UNL1        0.0386
     10 H           7.2044   -7.6443   28.4543 H       1  UNL1        0.1674
     11 C           6.8699   -4.5636   24.8454 C.ar    1  UNL1        0.0399
     12 C           6.0354   -3.4104   24.3726 C.ar    1  UNL1        0.1034
     13 N           6.0039   -3.0549   22.9156 N.ar    1  UNL1       -0.2121
     14 C           6.8070   -3.8528   21.9315 C.ar    1  UNL1        0.2203
     15 N           7.6415   -5.0061   22.4044 N.ar    1  UNL1       -0.2121
     16 C           7.6729   -5.3615   23.8613 C.ar    1  UNL1        0.1034
     17 N           6.7756   -3.4974   20.4746 N.pl3   1  UNL1       -0.2747
     18 C           5.5727   -3.8374   19.6455 C.3     1  UNL1        0.1151
     19 C           7.9470   -2.8021   19.8467 C.3     1  UNL1        0.1151
     20 C           6.5202   -1.8726   30.0826 C.2     1  UNL1        0.1994
     21 O           7.7065   -0.9729   29.9010 O.2     1  UNL1       -0.2864
     22 C           2.8382   -0.5615   29.3935 C.ar    1  UNL1        0.0919
     23 C           2.4389   -0.1042   30.7651 C.ar    1  UNL1        0.0181
     24 C           3.3999   -0.2363   31.9092 C.ar    1  UNL1        0.0016
     25 C           4.7603   -0.8257   31.6817 C.ar    1  UNL1        0.0055
     26 C           5.1597   -1.2831   30.3101 C.ar    1  UNL1        0.0677
     27 C           4.1986   -1.1510   29.1660 C.ar    1  UNL1        0.1576
     28 F           4.5981   -1.6084   27.7944 F       1  UNL1       -0.2027
     29 N           1.8772   -0.4295   28.2494 N.pl3   1  UNL1       -0.2166
     30 H           1.8618   -1.1102   27.5384 H       1  UNL1        0.1734
     31 S           0.9396    0.7398   28.1887 S.O2    1  UNL1        0.0540
     32 O          -0.2069   -0.1612   28.5406 O.2     1  UNL1       -0.1545
     33 O           2.0860    1.6408   27.8369 O.2     1  UNL1       -0.1545
     34 C           0.0021    1.9092   28.1280 C.3     1  UNL1        0.1724
     35 C          -0.4778    1.7454   25.5799 C.3     1  UNL1        0.0019
     36 C          -0.9431    2.0535   26.9722 C.3     1  UNL1        0.0273
@<TRIPOS>BOND
     1    35    36    1
     2    36    34    1
     3    34    31    1
     4    31    32    2
     5    31    33    2
     6    31    29    1
     7    29    22    1
     8    22    23   ar
     9    23    24   ar
    10    24    25   ar
    11    25    26   ar
    12    26    20    1
    13    20    21    2
    14    20     1    1
    15     1     2   ar
    16     2     3   ar
    17     3     4   ar
    18     4     5   ar
    19     5     6   ar
    20     6     7   ar
    21     7    11    1
    22    11    12   ar
    23    12    13   ar
    24    13    14   ar
    25    14    17    1
    26    17    18    1
    27    17    19    1
    28    14    15   ar
    29    15    16   ar
    30     7     8   ar
    31     8     9   ar
    32    26    27   ar
    33    27    28    1
    34    27    22   ar
    35     9     1   ar
    36     9     4    1
    37    16    11   ar
    38    29    30    1
    39     5    10    1
@<TRIPOS>MOLECULE
*****
 36 39 0 0 0
SMALL
GASTEIGER

@<TRIPOS>ATOM
      1 C          -8.8692  -17.0988   25.5943 C.ar    1  UNL1        0.0611
      2 C          -9.3601  -16.3528   26.7995 C.ar    1  UNL1        0.1037
      3 N          -8.2870  -15.3923   27.2189 N.ar    1  UNL1       -0.2269
      4 C          -7.1329  -15.5447   26.2730 C.ar    1  UNL1        0.1407
      5 N          -5.8009  -14.8594   26.1962 N.ar    1  UNL1       -0.3374
      6 C          -4.8287  -15.2288   25.1153 C.ar    1  UNL1        0.0735
      7 C          -5.1885  -16.2834   24.1112 C.ar    1  UNL1        0.0201
      8 C          -6.5206  -16.9688   24.1880 C.ar    1  UNL1        0.0047
      9 C          -7.4927  -16.5994   25.2689 C.ar    1  UNL1        0.0386
     10 H          -5.5647  -14.1672   26.8552 H       1  UNL1        0.1674
     11 C          -4.2162  -16.6528   23.0303 C.ar    1  UNL1        0.0399
     12 C          -4.1746  -18.0579   22.5070 C.ar    1  UNL1        0.1034
     13 N          -3.2023  -18.4273   21.4261 N.ar    1  UNL1       -0.2121
     14 C          -2.2717  -17.3914   20.8685 C.ar    1  UNL1        0.2203
     15 N          -2.3134  -15.9862   21.3918 N.ar    1  UNL1       -0.2121
     16 C          -3.2856  -15.6169   22.4726 C.ar    1  UNL1        0.1034
     17 N          -1.2994  -17.7607   19.7876 N.pl3   1  UNL1       -0.2747
     18 C           0.1643  -17.8639   20.0987 C.3     1  UNL1        0.1151
     19 C          -1.7909  -18.0268   18.3956 C.3     1  UNL1        0.1151
     20 C          -9.6226  -18.1582   24.8459 C.2     1  UNL1        0.1994
     21 O          -9.6894  -19.5553   25.3876 O.2     1  UNL1       -0.2864
     22 C         -10.3409  -17.8163   20.9578 C.ar    1  UNL1        0.0919
     23 C         -11.6822  -17.1451   20.9753 C.ar    1  UNL1        0.0181
     24 C         -12.3369  -16.8115   22.2830 C.ar    1  UNL1        0.0016
     25 C         -11.6505  -17.1492   23.5732 C.ar    1  UNL1        0.0055
     26 C         -10.3092  -17.8205   23.5557 C.ar    1  UNL1        0.0677
     27 C          -9.6544  -18.1540   22.2480 C.ar    1  UNL1        0.1576
     28 F          -8.3131  -18.8253   22.2306 F       1  UNL1       -0.2027
     29 N          -9.6861  -18.1498   19.6501 N.pl3   1  UNL1       -0.2166
     30 H          -9.4641  -17.4323   19.0137 H       1  UNL1        0.1734
     31 S          -9.3697  -19.5766   19.3122 S.O2    1  UNL1        0.0540
     32 O         -10.7836  -19.9650   19.6284 O.2     1  UNL1       -0.1545
     33 O          -7.9558  -19.1881   18.9959 O.2     1  UNL1       -0.1545
     34 C          -9.0532  -21.0033   18.9742 C.3     1  UNL1        0.1724
     35 C          -9.4853  -21.3553   16.4365 C.3     1  UNL1        0.0019
     36 C          -8.5470  -21.3556   17.6068 C.3     1  UNL1        0.0273
@<TRIPOS>BOND
     1    35    36    1
     2    36    34    1
     3    34    31    1
     4    31    32    2
     5    31    33    2
     6    31    29    1
     7    29    22    1
     8    22    23   ar
     9    23    24   ar
    10    24    25   ar
    11    25    26   ar
    12    26    20    1
    13    20    21    2
    14    20     1    1
    15     1     2   ar
    16     2     3   ar
    17     3     4   ar
    18     4     5   ar
    19     5     6   ar
    20     6     7   ar
    21     7    11    1
    22    11    12   ar
    23    12    13   ar
    24    13    14   ar
    25    14    17    1
    26    17    18    1
    27    17    19    1
    28    14    15   ar
    29    15    16   ar
    30     7     8   ar
    31     8     9   ar
    32    26    27   ar
    33    27    28    1
    34    27    22   ar
    35     9     1   ar
    36     9     4    1
    37    16    11   ar
    38    29    30    1
    39     5    10    1
@<TRIPOS>MOLECULE
*****
 36 39 0 0 0
SMALL
GASTEIGER

@<TRIPOS>ATOM
      1 C           5.3560   -2.6243   19.3446 C.ar    1  UNL1        0.0611
      2 C           5.9344   -1.9452   18.1387 C.ar    1  UNL1        0.1037
      3 N           7.4289   -2.0384   18.2265 N.ar    1  UNL1       -0.2269
      4 C           7.7742   -2.7750   19.4867 C.ar    1  UNL1        0.1407
      5 N           9.0897   -3.1628   20.0943 N.ar    1  UNL1       -0.3374
      6 C           9.1240   -3.9127   21.3928 C.ar    1  UNL1        0.0735
      7 C           7.8428   -4.2748   22.0839 C.ar    1  UNL1        0.0201
      8 C           6.5274   -3.8870   21.4764 C.ar    1  UNL1        0.0047
      9 C           6.4931   -3.1371   20.1778 C.ar    1  UNL1        0.0386
     10 H           9.9305   -2.9251   19.6407 H       1  UNL1        0.1674
     11 C           7.8772   -5.0248   23.3826 C.ar    1  UNL1        0.0399
     12 C           8.7683   -6.2219   23.5340 C.ar    1  UNL1        0.1034
     13 N           8.8026   -6.9719   24.8326 N.ar    1  UNL1       -0.2121
     14 C           7.9459   -6.5247   25.9798 C.ar    1  UNL1        0.2203
     15 N           7.0548   -5.3275   25.8284 N.ar    1  UNL1       -0.2121
     16 C           7.0205   -4.5776   24.5298 C.ar    1  UNL1        0.1034
     17 N           7.9803   -7.2746   27.2784 N.pl3   1  UNL1       -0.2747
     18 C           7.8906   -6.5296   28.5772 C.3     1  UNL1        0.1151
     19 C           8.1042   -8.7694   27.2782 C.3     1  UNL1        0.1151
     20 C           3.8968   -2.7657   19.6618 C.2     1  UNL1        0.1994
     21 O           3.1547   -4.0005   19.2442 O.2     1  UNL1       -0.2864
     22 C           2.5530   -0.4952   22.6265 C.ar    1  UNL1        0.0919
     23 C           1.7452    0.5146   21.8664 C.ar    1  UNL1        0.0181
     24 C           1.6546    0.4310   20.3715 C.ar    1  UNL1        0.0016
     25 C           2.3717   -0.6624   19.6366 C.ar    1  UNL1        0.0055
     26 C           3.1795   -1.6722   20.3967 C.ar    1  UNL1        0.0677
     27 C           3.2701   -1.5886   21.8916 C.ar    1  UNL1        0.1576
     28 F           4.0780   -2.5985   22.6516 F       1  UNL1       -0.2027
     29 N           2.6436   -0.4116   24.1214 N.pl3   1  UNL1       -0.2166
     30 H           1.8289   -0.4871   24.6690 H       1  UNL1        0.1734
     31 S           3.9755   -0.2129   24.7821 S.O2    1  UNL1        0.0540
     32 O           3.8125   -1.5181   25.5032 O.2     1  UNL1       -0.1545
     33 O           4.1386    1.0922   24.0610 O.2     1  UNL1       -0.1545
     34 C           5.3074   -0.0142   25.4428 C.3     1  UNL1        0.1724
     35 C           7.0586   -0.9119   23.7463 C.3     1  UNL1        0.0019
     36 C           6.4502   -0.9298   25.1172 C.3     1  UNL1        0.0273
@<TRIPOS>BOND
     1    35    36    1
     2    36    34    1
     3    34    31    1
     4    31    32    2
     5    31    33    2
     6    31    29    1
     7    29    22    1
     8    22    23   ar
     9    23    24   ar
    10    24    25   ar
    11    25    26   ar
    12    26    20    1
    13    20    21    2
    14    20     1    1
    15     1     2   ar
    16     2     3   ar
    17     3     4   ar
    18     4     5   ar
    19     5     6   ar
    20     6     7   ar
    21     7    11    1
    22    11    12   ar
    23    12    13   ar
    24    13    14   ar
    25    14    17    1
    26    17    18    1
    27    17    19    1
    28    14    15   ar
    29    15    16   ar
    30     7     8   ar
    31     8     9   ar
    32    26    27   ar
    33    27    28    1
    34    27    22   ar
    35     9     1   ar
    36     9     4    1
    37    16    11   ar
    38    29    30    1
    39     5    10    1
@<TRIPOS>MOLECULE
*****
 36 39 0 0 0
SMALL
GASTEIGER

@<TRIPOS>ATOM
      1 C           4.4914   -1.8405   18.6373 C.ar    1  UNL1        0.0611
      2 C           5.2870   -3.0406   18.2169 C.ar    1  UNL1        0.1037
      3 N           5.5985   -3.8436   19.4449 N.ar    1  UNL1       -0.2269
      4 C           4.9956   -3.1397   20.6244 C.ar    1  UNL1        0.1407
      5 N           4.9812   -3.4662   22.0883 N.ar    1  UNL1       -0.3374
      6 C           4.2825   -2.5546   23.0531 C.ar    1  UNL1        0.0735
      7 C           3.5983   -1.3166   22.5540 C.ar    1  UNL1        0.0201
      8 C           3.6127   -0.9901   21.0900 C.ar    1  UNL1        0.0047
      9 C           4.3113   -1.9017   20.1252 C.ar    1  UNL1        0.0386
     10 H           5.4303   -4.2787   22.4159 H       1  UNL1        0.1674
     11 C           2.8997   -0.4050   23.5189 C.ar    1  UNL1        0.0399
     12 C           1.8310    0.5273   23.0303 C.ar    1  UNL1        0.1034
     13 N           1.1324    1.4389   23.9952 N.ar    1  UNL1       -0.2121
     14 C           1.5024    1.4181   25.4487 C.ar    1  UNL1        0.2203
     15 N           2.5711    0.4858   25.9372 N.ar    1  UNL1       -0.2121
     16 C           3.2697   -0.4257   24.9724 C.ar    1  UNL1        0.1034
     17 N           0.8038    2.3297   26.4135 N.pl3   1  UNL1       -0.2747
     18 C          -0.4506    3.0403   25.9998 C.3     1  UNL1        0.1151
     19 C           1.3597    2.5305   27.7922 C.3     1  UNL1        0.1151
     20 C           3.9679   -0.7674   17.7293 C.2     1  UNL1        0.1994
     21 O           3.8025   -1.0399   16.2636 O.2     1  UNL1       -0.2864
     22 C           1.8137    2.3442   18.9243 C.ar    1  UNL1        0.0919
     23 C           2.8932    3.2694   19.4025 C.ar    1  UNL1        0.0181
     24 C           4.3309    2.8490   19.3230 C.ar    1  UNL1        0.0016
     25 C           4.6892    1.5034   18.7653 C.ar    1  UNL1        0.0055
     26 C           3.6097    0.5783   18.2871 C.ar    1  UNL1        0.0677
     27 C           2.1720    0.9987   18.3665 C.ar    1  UNL1        0.1576
     28 F           1.0925    0.0734   17.8883 F       1  UNL1       -0.2027
     29 N           0.3761    2.7646   19.0037 N.pl3   1  UNL1       -0.2166
     30 H          -0.1389    2.9159   18.1784 H       1  UNL1        0.1734
     31 S          -0.2770    2.9544   20.3407 S.O2    1  UNL1        0.0540
     32 O          -0.1198    4.4401   20.2065 O.2     1  UNL1       -0.1545
     33 O          -0.4342    1.4687   20.4748 O.2     1  UNL1       -0.1545
     34 C          -0.9301    3.1441   21.6776 C.3     1  UNL1        0.1724
     35 C          -3.2803    3.2864   20.5792 C.3     1  UNL1        0.0019
     36 C          -2.3810    3.5163   21.7575 C.3     1  UNL1        0.0273
@<TRIPOS>BOND
     1    35    36    1
     2    36    34    1
     3    34    31    1
     4    31    32    2
     5    31    33    2
     6    31    29    1
     7    29    22    1
     8    22    23   ar
     9    23    24   ar
    10    24    25   ar
    11    25    26   ar
    12    26    20    1
    13    20    21    2
    14    20     1    1
    15     1     2   ar
    16     2     3   ar
    17     3     4   ar
    18     4     5   ar
    19     5     6   ar
    20     6     7   ar
    21     7    11    1
    22    11    12   ar
    23    12    13   ar
    24    13    14   ar
    25    14    17    1
    26    17    18    1
    27    17    19    1
    28    14    15   ar
    29    15    16   ar
    30     7     8   ar
    31     8     9   ar
    32    26    27   ar
    33    27    28    1
    34    27    22   ar
    35     9     1   ar
    36     9     4    1
    37    16    11   ar
    38    29    30    1
    39     5    10    1
@<TRIPOS>MOLECULE
*****
 36 39 0 0 0
SMALL
GASTEIGER

@<TRIPOS>ATOM
      1 C          -4.5507  -20.0248   20.3383 C.ar    1  UNL1        0.0611
      2 C          -3.4038  -20.2489   19.3978 C.ar    1  UNL1        0.1037
      3 N          -2.3309  -19.2547   19.7301 N.ar    1  UNL1       -0.2269
      4 C          -2.8146  -18.4162   20.8759 C.ar    1  UNL1        0.1407
      5 N          -2.1831  -17.2807   21.6255 N.ar    1  UNL1       -0.3374
      6 C          -2.9235  -16.6213   22.7510 C.ar    1  UNL1        0.0735
      7 C          -4.2954  -17.0972   23.1270 C.ar    1  UNL1        0.0201
      8 C          -4.9269  -18.2327   22.3774 C.ar    1  UNL1        0.0047
      9 C          -4.1865  -18.8921   21.2518 C.ar    1  UNL1        0.0386
     10 H          -1.2827  -16.9683   21.3788 H       1  UNL1        0.1674
     11 C          -5.0358  -16.4377   24.2526 C.ar    1  UNL1        0.0399
     12 C          -6.2338  -15.5828   23.9631 C.ar    1  UNL1        0.1034
     13 N          -6.9742  -14.9233   25.0887 N.ar    1  UNL1       -0.2121
     14 C          -6.5165  -15.1187   26.5038 C.ar    1  UNL1        0.2203
     15 N          -5.3184  -15.9737   26.7932 N.ar    1  UNL1       -0.2121
     16 C          -4.5781  -16.6332   25.6676 C.ar    1  UNL1        0.1034
     17 N          -7.2568  -14.4592   27.6293 N.pl3   1  UNL1       -0.2747
     18 C          -6.5827  -13.4023   28.4529 C.3     1  UNL1        0.1151
     19 C          -8.6714  -14.8567   27.9313 C.3     1  UNL1        0.1151
     20 C          -5.8360  -20.7977   20.3613 C.2     1  UNL1        0.1994
     21 O          -5.8898  -22.1811   19.7842 O.2     1  UNL1       -0.2864
     22 C          -9.2359  -18.7792   20.7030 C.ar    1  UNL1        0.0919
     23 C          -9.5310  -18.9659   22.1618 C.ar    1  UNL1        0.0181
     24 C          -8.5945  -19.7632   23.0204 C.ar    1  UNL1        0.0016
     25 C          -7.3628  -20.3738   22.4203 C.ar    1  UNL1        0.0055
     26 C          -7.0677  -20.1871   20.9615 C.ar    1  UNL1        0.0677
     27 C          -8.0043  -19.3898   20.1029 C.ar    1  UNL1        0.1576
     28 F          -7.7091  -19.2031   18.6441 F       1  UNL1       -0.2027
     29 N         -10.1724  -17.9819   19.8444 N.pl3   1  UNL1       -0.2166
     30 H         -10.0935  -18.0191   18.8638 H       1  UNL1        0.1734
     31 S         -11.2292  -17.1278   20.4799 S.O2    1  UNL1        0.0540
     32 O         -10.2387  -16.0108   20.6258 O.2     1  UNL1       -0.1545
     33 O         -12.2196  -18.2448   20.3340 O.2     1  UNL1       -0.1545
     34 C         -12.2860  -16.2739   21.1154 C.3     1  UNL1        0.1724
     35 C         -12.9703  -17.5330   23.2826 C.3     1  UNL1        0.0019
     36 C         -12.4703  -16.2923   22.6039 C.3     1  UNL1        0.0273
@<TRIPOS>BOND
     1    35    36    1
     2    36    34    1
     3    34    31    1
     4    31    32    2
     5    31    33    2
     6    31    29    1
     7    29    22    1
     8    22    23   ar
     9    23    24   ar
    10    24    25   ar
    11    25    26   ar
    12    26    20    1
    13    20    21    2
    14    20     1    1
    15     1     2   ar
    16     2     3   ar
    17     3     4   ar
    18     4     5   ar
    19     5     6   ar
    20     6     7   ar
    21     7    11    1
    22    11    12   ar
    23    12    13   ar
    24    13    14   ar
    25    14    17    1
    26    17    18    1
    27    17    19    1
    28    14    15   ar
    29    15    16   ar
    30     7     8   ar
    31     8     9   ar
    32    26    27   ar
    33    27    28    1
    34    27    22   ar
    35     9     1   ar
    36     9     4    1
    37    16    11   ar
    38    29    30    1
    39     5    10    1
@<TRIPOS>MOLECULE
*****
 36 39 0 0 0
SMALL
GASTEIGER

@<TRIPOS>ATOM
      1 C          -3.0267  -18.3987   21.6747 C.ar    1  UNL1        0.0611
      2 C          -1.9363  -19.2238   21.0581 C.ar    1  UNL1        0.1037
      3 N          -2.5724  -20.4025   20.3828 N.ar    1  UNL1       -0.2269
      4 C          -4.0560  -20.3059   20.5821 C.ar    1  UNL1        0.1407
      5 N          -5.1875  -21.1856   20.1397 N.ar    1  UNL1       -0.3374
      6 C          -6.5998  -20.8269   20.4957 C.ar    1  UNL1        0.0735
      7 C          -6.8805  -19.5885   21.2941 C.ar    1  UNL1        0.0201
      8 C          -5.7491  -18.7088   21.7365 C.ar    1  UNL1        0.0047
      9 C          -4.3368  -19.0675   21.3805 C.ar    1  UNL1        0.0386
     10 H          -5.0032  -21.9985   19.6157 H       1  UNL1        0.1674
     11 C          -8.2929  -19.2298   21.6501 C.ar    1  UNL1        0.0399
     12 C          -8.9050  -17.9702   21.1128 C.ar    1  UNL1        0.1034
     13 N         -10.3174  -17.6116   21.4688 N.ar    1  UNL1       -0.2121
     14 C         -11.1176  -18.5125   22.3621 C.ar    1  UNL1        0.2203
     15 N         -10.5054  -19.7722   22.8994 N.ar    1  UNL1       -0.2121
     16 C          -9.0931  -20.1308   22.5434 C.ar    1  UNL1        0.1034
     17 N         -12.5299  -18.1539   22.7181 N.pl3   1  UNL1       -0.2747
     18 C         -13.0170  -18.3328   24.1254 C.3     1  UNL1        0.1151
     19 C         -13.4550  -17.6165   21.6668 C.3     1  UNL1        0.1151
     20 C          -2.8400  -17.1279   22.4494 C.2     1  UNL1        0.1994
     21 O          -2.0033  -16.0198   21.8823 O.2     1  UNL1       -0.2864
     22 C          -5.2157  -15.7752   25.3263 C.ar    1  UNL1        0.0919
     23 C          -4.7900  -16.6401   26.4755 C.ar    1  UNL1        0.0181
     24 C          -3.7144  -17.6676   26.2828 C.ar    1  UNL1        0.0016
     25 C          -3.0643  -17.8302   24.9408 C.ar    1  UNL1        0.0055
     26 C          -3.4900  -16.9653   23.7915 C.ar    1  UNL1        0.0677
     27 C          -4.5657  -15.9378   23.9843 C.ar    1  UNL1        0.1576
     28 F          -4.9913  -15.0729   22.8350 F       1  UNL1       -0.2027
     29 N          -6.2914  -14.7477   25.5191 N.pl3   1  UNL1       -0.2166
     30 H          -6.0505  -13.8150   25.7225 H       1  UNL1        0.1734
     31 S          -7.7341  -15.1412   25.4020 S.O2    1  UNL1        0.0540
     32 O          -7.7916  -15.3710   26.8832 O.2     1  UNL1       -0.1545
     33 O          -7.6766  -14.9114   23.9209 O.2     1  UNL1       -0.1545
     34 C          -9.1768  -15.5347   25.2849 C.3     1  UNL1        0.1724
     35 C          -9.5728  -18.0615   25.7421 C.3     1  UNL1        0.0019
     36 C          -9.5433  -16.9026   24.7902 C.3     1  UNL1        0.0273
@<TRIPOS>BOND
     1    35    36    1
     2    36    34    1
     3    34    31    1
     4    31    32    2
     5    31    33    2
     6    31    29    1
     7    29    22    1
     8    22    23   ar
     9    23    24   ar
    10    24    25   ar
    11    25    26   ar
    12    26    20    1
    13    20    21    2
    14    20     1    1
    15     1     2   ar
    16     2     3   ar
    17     3     4   ar
    18     4     5   ar
    19     5     6   ar
    20     6     7   ar
    21     7    11    1
    22    11    12   ar
    23    12    13   ar
    24    13    14   ar
    25    14    17    1
    26    17    18    1
    27    17    19    1
    28    14    15   ar
    29    15    16   ar
    30     7     8   ar
    31     8     9   ar
    32    26    27   ar
    33    27    28    1
    34    27    22   ar
    35     9     1   ar
    36     9     4    1
    37    16    11   ar
    38    29    30    1
    39     5    10    1
@<TRIPOS>MOLECULE
*****
 36 39 0 0 0
SMALL
GASTEIGER

@<TRIPOS>ATOM
      1 C           7.9644   -3.9319   29.1905 C.ar    1  UNL1        0.0611
      2 C           8.6175   -5.2425   29.5154 C.ar    1  UNL1        0.1037
      3 N           8.0898   -5.7074   30.8404 N.ar    1  UNL1       -0.2269
      4 C           7.1106   -4.6840   31.3343 C.ar    1  UNL1        0.1407
      5 N           6.2795   -4.6096   32.5807 N.ar    1  UNL1       -0.3374
      6 C           5.3709   -3.4379   32.8075 C.ar    1  UNL1        0.0735
      7 C           5.2934   -2.3405   31.7878 C.ar    1  UNL1        0.0201
      8 C           6.1245   -2.4149   30.5413 C.ar    1  UNL1        0.0047
      9 C           7.0331   -3.5867   30.3145 C.ar    1  UNL1        0.0386
     10 H           6.3304   -5.3298   33.2500 H       1  UNL1        0.1674
     11 C           4.3848   -1.1687   32.0146 C.ar    1  UNL1        0.0399
     12 C           4.5514   -0.3161   33.2374 C.ar    1  UNL1        0.1034
     13 N           3.6428    0.8557   33.4642 N.ar    1  UNL1       -0.2121
     14 C           2.5676    1.1748   32.4682 C.ar    1  UNL1        0.2203
     15 N           2.4010    0.3221   31.2453 N.ar    1  UNL1       -0.2121
     16 C           3.3096   -0.8496   31.0186 C.ar    1  UNL1        0.1034
     17 N           1.6590    2.3465   32.6949 N.pl3   1  UNL1       -0.2747
     18 C           0.5768    2.6591   31.7044 C.3     1  UNL1        0.1151
     19 C           1.8325    3.2056   33.9122 C.3     1  UNL1        0.1151
     20 C           8.2010   -3.1106   27.9578 C.2     1  UNL1        0.1994
     21 O           8.7400   -1.7160   28.0778 O.2     1  UNL1       -0.2864
     22 C           6.3654   -3.8243   24.5123 C.ar    1  UNL1        0.0919
     23 C           7.2939   -4.8306   23.8996 C.ar    1  UNL1        0.0181
     24 C           8.5247   -5.2635   24.6396 C.ar    1  UNL1        0.0016
     25 C           8.8271   -4.6902   25.9923 C.ar    1  UNL1        0.0055
     26 C           7.8986   -3.6839   26.6050 C.ar    1  UNL1        0.0677
     27 C           6.6678   -3.2510   25.8650 C.ar    1  UNL1        0.1576
     28 F           5.7393   -2.2448   26.4778 F       1  UNL1       -0.2027
     29 N           5.1345   -3.3914   23.7723 N.pl3   1  UNL1       -0.2166
     30 H           4.3224   -3.1433   24.2704 H       1  UNL1        0.1734
     31 S           5.1411   -3.3366   22.2733 S.O2    1  UNL1        0.0540
     32 O           4.2859   -4.5679   22.2245 O.2     1  UNL1       -0.1545
     33 O           5.9963   -2.1052   22.3221 O.2     1  UNL1       -0.1545
     34 C           5.1477   -3.2816   20.7744 C.3     1  UNL1        0.1724
     35 C           4.4920   -4.8536   18.8124 C.3     1  UNL1        0.0019
     36 C           4.0986   -4.0150   19.9923 C.3     1  UNL1        0.0273
@<TRIPOS>BOND
     1    35    36    1
     2    36    34    1
     3    34    31    1
     4    31    32    2
     5    31    33    2
     6    31    29    1
     7    29    22    1
     8    22    23   ar
     9    23    24   ar
    10    24    25   ar
    11    25    26   ar
    12    26    20    1
    13    20    21    2
    14    20     1    1
    15     1     2   ar
    16     2     3   ar
    17     3     4   ar
    18     4     5   ar
    19     5     6   ar
    20     6     7   ar
    21     7    11    1
    22    11    12   ar
    23    12    13   ar
    24    13    14   ar
    25    14    17    1
    26    17    18    1
    27    17    19    1
    28    14    15   ar
    29    15    16   ar
    30     7     8   ar
    31     8     9   ar
    32    26    27   ar
    33    27    28    1
    34    27    22   ar
    35     9     1   ar
    36     9     4    1
    37    16    11   ar
    38    29    30    1
    39     5    10    1
