@<TRIPOS>MOLECULE
*****
 22 23 0 0 0
SMALL
GASTEIGER

@<TRIPOS>ATOM
      1 C          -9.2650  -17.0130   24.0026 C.3     1  UNL1        0.0768
      2 C          -8.2472  -16.4057   24.9220 C.ar    1  UNL1       -0.0120
      3 C          -6.9637  -15.8633   24.3666 C.ar    1  UNL1       -0.0034
      4 C          -5.9460  -15.2560   25.2860 C.ar    1  UNL1       -0.0003
      5 C          -6.2117  -15.1910   26.7608 C.ar    1  UNL1       -0.0000
      6 C          -7.4952  -15.7333   27.3163 C.ar    1  UNL1       -0.0003
      7 C          -8.5130  -16.3407   26.3969 C.ar    1  UNL1       -0.0034
      8 S          -9.2791  -16.6417   22.5494 S.3     1  UNL1       -0.0907
      9 C          -5.6202  -19.3447   20.0381 C.3     1  UNL1        0.0521
     10 C          -7.0651  -19.0067   20.2569 C.ar    1  UNL1        0.0600
     11 C          -8.1256  -19.6823   19.4391 C.ar    1  UNL1        0.0155
     12 C          -9.5705  -19.3444   19.6579 C.ar    1  UNL1        0.0135
     13 C          -9.9550  -18.3309   20.6947 C.ar    1  UNL1        0.0919
     14 C          -8.8946  -17.6553   21.5126 C.ar    1  UNL1        0.1161
     15 N          -7.4496  -17.9932   21.2937 N.ar    1  UNL1       -0.2428
     16 C         -11.4000  -17.9930   20.9135 C.1     1  UNL1        0.1024
     17 N         -12.8450  -17.6551   21.1324 N.1     1  UNL1       -0.1908
     18 C         -10.2687  -17.9916   24.5365 C.3     1  UNL1        0.0324
     19 C         -10.0955  -19.4592   24.2792 C.3     1  UNL1        0.0664
     20 N         -10.1969  -20.4363   25.4127 N.3     1  UNL1       -0.3211
     21 H          -9.4253  -20.2847   26.0624 H       1  UNL1        0.1189
     22 H         -10.1514  -21.3874   25.0468 H       1  UNL1        0.1189
@<TRIPOS>BOND
     1     9    10    1
     2    10    11   ar
     3    11    12   ar
     4    12    13   ar
     5    13    16    1
     6    16    17    3
     7    13    14   ar
     8    14     8    1
     9     8     1    1
    10     1    18    1
    11    18    19    1
    12    19    20    1
    13     1     2    1
    14     2     3   ar
    15     3     4   ar
    16     4     5   ar
    17     5     6   ar
    18     6     7   ar
    19    14    15   ar
    20    15    10   ar
    21     7     2   ar
    22    20    21    1
    23    20    22    1
@<TRIPOS>MOLECULE
*****
 22 23 0 0 0
SMALL
GASTEIGER

@<TRIPOS>ATOM
      1 C          -7.2360  -18.3636   22.1874 C.3     1  UNL1        0.0768
      2 C          -5.8590  -18.8011   21.7845 C.ar    1  UNL1       -0.0120
      3 C          -5.6547  -19.5451   20.4982 C.ar    1  UNL1       -0.0034
      4 C          -4.2776  -19.9825   20.0953 C.ar    1  UNL1       -0.0003
      5 C          -3.1048  -19.6760   20.9787 C.ar    1  UNL1       -0.0000
      6 C          -3.3090  -18.9320   22.2652 C.ar    1  UNL1       -0.0003
      7 C          -4.6861  -18.4945   22.6681 C.ar    1  UNL1       -0.0034
      8 S          -8.4392  -19.0553   21.6184 S.3     1  UNL1       -0.0907
      9 C         -11.9096  -15.8454   19.4613 C.3     1  UNL1        0.0521
     10 C         -11.5129  -16.7739   20.5706 C.ar    1  UNL1        0.0600
     11 C         -12.4545  -17.0259   21.7106 C.ar    1  UNL1        0.0155
     12 C         -12.0578  -17.9544   22.8199 C.ar    1  UNL1        0.0135
     13 C         -10.7194  -18.6309   22.7892 C.ar    1  UNL1        0.0919
     14 C          -9.7777  -18.3788   21.6491 C.ar    1  UNL1        0.1161
     15 N         -10.1744  -17.4504   20.5398 N.ar    1  UNL1       -0.2428
     16 C         -10.3226  -19.5593   23.8984 C.1     1  UNL1        0.1024
     17 N          -9.9259  -20.4878   25.0077 N.1     1  UNL1       -0.1908
     18 C          -7.4099  -17.2344   23.1594 C.3     1  UNL1        0.0324
     19 C          -7.2725  -15.8155   22.6929 C.3     1  UNL1        0.0664
     20 N          -8.2199  -15.2683   21.6668 N.3     1  UNL1       -0.3211
     21 H          -8.0789  -15.7536   20.7809 H       1  UNL1        0.1189
     22 H          -8.0450  -14.2714   21.5400 H       1  UNL1        0.1189
@<TRIPOS>BOND
     1     9    10    1
     2    10    11   ar
     3    11    12   ar
     4    12    13   ar
     5    13    16    1
     6    16    17    3
     7    13    14   ar
     8    14     8    1
     9     8     1    1
    10     1    18    1
    11    18    19    1
    12    19    20    1
    13     1     2    1
    14     2     3   ar
    15     3     4   ar
    16     4     5   ar
    17     5     6   ar
    18     6     7   ar
    19    14    15   ar
    20    15    10   ar
    21     7     2   ar
    22    20    21    1
    23    20    22    1
@<TRIPOS>MOLECULE
*****
 22 23 0 0 0
SMALL
GASTEIGER

@<TRIPOS>ATOM
      1 C          -9.0578  -16.8118   23.5511 C.3     1  UNL1        0.0768
      2 C         -10.5132  -17.1748   23.5441 C.ar    1  UNL1       -0.0120
      3 C         -11.0054  -18.3169   24.3827 C.ar    1  UNL1       -0.0034
      4 C         -12.4608  -18.6799   24.3757 C.ar    1  UNL1       -0.0003
      5 C         -13.4240  -17.9008   23.5300 C.ar    1  UNL1       -0.0000
      6 C         -12.9318  -16.7587   22.6913 C.ar    1  UNL1       -0.0003
      7 C         -11.4764  -16.3957   22.6983 C.ar    1  UNL1       -0.0034
      8 S          -8.2916  -16.7596   22.2626 S.3     1  UNL1       -0.0907
      9 C          -3.6938  -19.1699   22.4865 C.3     1  UNL1        0.0521
     10 C          -5.1053  -19.1089   21.9828 C.ar    1  UNL1        0.0600
     11 C          -5.6295  -20.1920   21.0872 C.ar    1  UNL1        0.0155
     12 C          -7.0411  -20.1310   20.5834 C.ar    1  UNL1        0.0135
     13 C          -7.9284  -18.9869   20.9752 C.ar    1  UNL1        0.0919
     14 C          -7.4042  -17.9038   21.8708 C.ar    1  UNL1        0.1161
     15 N          -5.9927  -17.9648   22.3746 N.ar    1  UNL1       -0.2428
     16 C          -9.3400  -18.9259   20.4715 C.1     1  UNL1        0.1024
     17 N         -10.7516  -18.8649   19.9677 N.1     1  UNL1       -0.1908
     18 C          -8.3686  -16.5010   24.8467 C.3     1  UNL1        0.0324
     19 C          -7.3593  -15.3934   24.9124 C.3     1  UNL1        0.0664
     20 N          -7.5922  -14.1205   24.1539 N.3     1  UNL1       -0.3211
     21 H          -7.5699  -14.3127   23.1524 H       1  UNL1        0.1189
     22 H          -6.8624  -13.4472   24.3873 H       1  UNL1        0.1189
@<TRIPOS>BOND
     1     9    10    1
     2    10    11   ar
     3    11    12   ar
     4    12    13   ar
     5    13    16    1
     6    16    17    3
     7    13    14   ar
     8    14     8    1
     9     8     1    1
    10     1    18    1
    11    18    19    1
    12    19    20    1
    13     1     2    1
    14     2     3   ar
    15     3     4   ar
    16     4     5   ar
    17     5     6   ar
    18     6     7   ar
    19    14    15   ar
    20    15    10   ar
    21     7     2   ar
    22    20    21    1
    23    20    22    1
@<TRIPOS>MOLECULE
*****
 22 23 0 0 0
SMALL
GASTEIGER

@<TRIPOS>ATOM
      1 C          -8.9647  -17.1330   23.7329 C.3     1  UNL1        0.0768
      2 C          -8.2484  -16.5298   24.9047 C.ar    1  UNL1       -0.0120
      3 C          -8.8001  -16.6993   26.2892 C.ar    1  UNL1       -0.0034
      4 C          -8.0839  -16.0962   27.4610 C.ar    1  UNL1       -0.0003
      5 C          -6.8159  -15.3235   27.2484 C.ar    1  UNL1       -0.0000
      6 C          -6.2642  -15.1539   25.8638 C.ar    1  UNL1       -0.0003
      7 C          -6.9804  -15.7571   24.6920 C.ar    1  UNL1       -0.0034
      8 S          -8.3835  -17.0121   22.3554 S.3     1  UNL1       -0.0907
      9 C          -3.7029  -19.2673   22.2797 C.3     1  UNL1        0.0521
     10 C          -5.1214  -19.2021   21.7964 C.ar    1  UNL1        0.0600
     11 C          -5.6182  -20.1994   20.7921 C.ar    1  UNL1        0.0155
     12 C          -7.0367  -20.1342   20.3089 C.ar    1  UNL1        0.0135
     13 C          -7.9585  -19.0718   20.8299 C.ar    1  UNL1        0.0919
     14 C          -7.4617  -18.0746   21.8343 C.ar    1  UNL1        0.1161
     15 N          -6.0432  -18.1397   22.3175 N.ar    1  UNL1       -0.2428
     16 C          -9.3770  -19.0066   20.3467 C.1     1  UNL1        0.1024
     17 N         -10.7955  -18.9415   19.8635 N.1     1  UNL1       -0.1908
     18 C         -10.2621  -17.8572   23.9387 C.3     1  UNL1        0.0324
     19 C         -10.2777  -19.3536   24.0418 C.3     1  UNL1        0.0664
     20 N         -10.1473  -20.0143   25.3820 N.3     1  UNL1       -0.3211
     21 H          -9.2209  -19.8264   25.7651 H       1  UNL1        0.1189
     22 H         -10.2747  -21.0210   25.2786 H       1  UNL1        0.1189
@<TRIPOS>BOND
     1     9    10    1
     2    10    11   ar
     3    11    12   ar
     4    12    13   ar
     5    13    16    1
     6    16    17    3
     7    13    14   ar
     8    14     8    1
     9     8     1    1
    10     1    18    1
    11    18    19    1
    12    19    20    1
    13     1     2    1
    14     2     3   ar
    15     3     4   ar
    16     4     5   ar
    17     5     6   ar
    18     6     7   ar
    19    14    15   ar
    20    15    10   ar
    21     7     2   ar
    22    20    21    1
    23    20    22    1
@<TRIPOS>MOLECULE
*****
 22 23 0 0 0
SMALL
GASTEIGER

@<TRIPOS>ATOM
      1 C          -8.3975  -17.5397   22.6923 C.3     1  UNL1        0.0768
      2 C          -9.8663  -17.6821   22.9614 C.ar    1  UNL1       -0.0120
      3 C         -10.8598  -16.9561   22.1036 C.ar    1  UNL1       -0.0034
      4 C         -12.3285  -17.0985   22.3726 C.ar    1  UNL1       -0.0003
      5 C         -12.8038  -17.9670   23.4995 C.ar    1  UNL1       -0.0000
      6 C         -11.8103  -18.6930   24.3573 C.ar    1  UNL1       -0.0003
      7 C         -10.3416  -18.5506   24.0883 C.ar    1  UNL1       -0.0034
      8 S          -7.7071  -16.2372   22.9696 S.3     1  UNL1       -0.0907
      9 C          -8.8420  -14.8729   27.8533 C.3     1  UNL1        0.0521
     10 C          -7.8285  -15.2244   26.8049 C.ar    1  UNL1        0.0600
     11 C          -6.3689  -15.2453   27.1499 C.ar    1  UNL1        0.0155
     12 C          -5.3553  -15.5969   26.1015 C.ar    1  UNL1        0.0135
     13 C          -5.8014  -15.9275   24.7081 C.ar    1  UNL1        0.0919
     14 C          -7.2610  -15.9066   24.3631 C.ar    1  UNL1        0.1161
     15 N          -8.2745  -15.5550   25.4115 N.ar    1  UNL1       -0.2428
     16 C          -4.7878  -16.2790   23.6597 C.1     1  UNL1        0.1024
     17 N          -3.7742  -16.6306   22.6113 N.1     1  UNL1       -0.1908
     18 C          -7.6191  -18.6997   22.1459 C.3     1  UNL1        0.0324
     19 C          -7.5843  -18.9498   20.6674 C.3     1  UNL1        0.0664
     20 N          -6.3634  -18.5890   19.8743 N.3     1  UNL1       -0.3211
     21 H          -6.2419  -17.5763   19.8790 H       1  UNL1        0.1189
     22 H          -6.4737  -18.9137   18.9137 H       1  UNL1        0.1189
@<TRIPOS>BOND
     1     9    10    1
     2    10    11   ar
     3    11    12   ar
     4    12    13   ar
     5    13    16    1
     6    16    17    3
     7    13    14   ar
     8    14     8    1
     9     8     1    1
    10     1    18    1
    11    18    19    1
    12    19    20    1
    13     1     2    1
    14     2     3   ar
    15     3     4   ar
    16     4     5   ar
    17     5     6   ar
    18     6     7   ar
    19    14    15   ar
    20    15    10   ar
    21     7     2   ar
    22    20    21    1
    23    20    22    1
@<TRIPOS>MOLECULE
*****
 22 23 0 0 0
SMALL
GASTEIGER

@<TRIPOS>ATOM
      1 C          -8.9351  -16.5433   23.7869 C.3     1  UNL1        0.0768
      2 C         -10.2202  -16.9168   23.1095 C.ar    1  UNL1       -0.0120
      3 C         -10.5377  -16.3698   21.7494 C.ar    1  UNL1       -0.0034
      4 C         -11.8228  -16.7433   21.0720 C.ar    1  UNL1       -0.0003
      5 C         -12.7905  -17.6639   21.7546 C.ar    1  UNL1       -0.0000
      6 C         -12.4731  -18.2110   23.1148 C.ar    1  UNL1       -0.0003
      7 C         -11.1879  -17.8375   23.7922 C.ar    1  UNL1       -0.0034
      8 S          -7.7473  -16.1328   22.9680 S.3     1  UNL1       -0.0907
      9 C          -5.5983  -20.2963   20.7215 C.3     1  UNL1        0.0521
     10 C          -5.5116  -19.1507   21.6859 C.ar    1  UNL1        0.0600
     11 C          -4.2638  -18.9413   22.4915 C.ar    1  UNL1        0.0155
     12 C          -4.1771  -17.7957   23.4559 C.ar    1  UNL1        0.0135
     13 C          -5.3382  -16.8595   23.6148 C.ar    1  UNL1        0.0919
     14 C          -6.5861  -17.0690   22.8092 C.ar    1  UNL1        0.1161
     15 N          -6.6727  -18.2146   21.8448 N.ar    1  UNL1       -0.2428
     16 C          -5.2516  -15.7139   24.5792 C.1     1  UNL1        0.1024
     17 N          -5.1649  -14.5683   25.5436 N.1     1  UNL1       -0.1908
     18 C          -8.8377  -16.5803   25.2833 C.3     1  UNL1        0.0324
     19 C          -8.6510  -15.3073   26.0545 C.3     1  UNL1        0.0664
     20 N          -7.7237  -15.2736   27.2330 N.3     1  UNL1       -0.3211
     21 H          -8.0935  -15.8693   27.9738 H       1  UNL1        0.1189
     22 H          -7.6432  -14.3160   27.5749 H       1  UNL1        0.1189
@<TRIPOS>BOND
     1     9    10    1
     2    10    11   ar
     3    11    12   ar
     4    12    13   ar
     5    13    16    1
     6    16    17    3
     7    13    14   ar
     8    14     8    1
     9     8     1    1
    10     1    18    1
    11    18    19    1
    12    19    20    1
    13     1     2    1
    14     2     3   ar
    15     3     4   ar
    16     4     5   ar
    17     5     6   ar
    18     6     7   ar
    19    14    15   ar
    20    15    10   ar
    21     7     2   ar
    22    20    21    1
    23    20    22    1
@<TRIPOS>MOLECULE
*****
 22 23 0 0 0
SMALL
GASTEIGER

@<TRIPOS>ATOM
      1 C          -9.0558  -17.0876   23.3682 C.3     1  UNL1        0.0768
      2 C          -9.9666  -17.1658   22.1789 C.ar    1  UNL1       -0.0120
      3 C         -11.0978  -16.1913   22.0353 C.ar    1  UNL1       -0.0034
      4 C         -12.0086  -16.2694   20.8460 C.ar    1  UNL1       -0.0003
      5 C         -11.7883  -17.3221   19.8005 C.ar    1  UNL1       -0.0000
      6 C         -10.6570  -18.2967   19.9441 C.ar    1  UNL1       -0.0003
      7 C          -9.7462  -18.2185   21.1333 C.ar    1  UNL1       -0.0034
      8 S          -7.7406  -16.3745   23.2600 S.3     1  UNL1       -0.0907
      9 C          -5.2256  -20.1696   20.7556 C.3     1  UNL1        0.0521
     10 C          -5.2263  -19.0507   21.7547 C.ar    1  UNL1        0.0600
     11 C          -3.9702  -18.7105   22.5006 C.ar    1  UNL1        0.0155
     12 C          -3.9709  -17.5916   23.4997 C.ar    1  UNL1        0.0135
     13 C          -5.2276  -16.8130   23.7528 C.ar    1  UNL1        0.0919
     14 C          -6.4837  -17.1532   23.0069 C.ar    1  UNL1        0.1161
     15 N          -6.4830  -18.2720   22.0078 N.ar    1  UNL1       -0.2428
     16 C          -5.2283  -15.6941   24.7519 C.1     1  UNL1        0.1024
     17 N          -5.2290  -14.5752   25.7510 N.1     1  UNL1       -0.1908
     18 C          -9.4601  -17.7227   24.6656 C.3     1  UNL1        0.0324
     19 C         -10.4632  -18.8379   24.6742 C.3     1  UNL1        0.0664
     20 N         -10.1475  -20.1251   25.3765 N.3     1  UNL1       -0.3211
     21 H          -9.3766  -20.5926   24.8993 H       1  UNL1        0.1189
     22 H         -10.9697  -20.7286   25.3662 H       1  UNL1        0.1189
@<TRIPOS>BOND
     1     9    10    1
     2    10    11   ar
     3    11    12   ar
     4    12    13   ar
     5    13    16    1
     6    16    17    3
     7    13    14   ar
     8    14     8    1
     9     8     1    1
    10     1    18    1
    11    18    19    1
    12    19    20    1
    13     1     2    1
    14     2     3   ar
    15     3     4   ar
    16     4     5   ar
    17     5     6   ar
    18     6     7   ar
    19    14    15   ar
    20    15    10   ar
    21     7     2   ar
    22    20    21    1
    23    20    22    1
@<TRIPOS>MOLECULE
*****
 22 23 0 0 0
SMALL
GASTEIGER

@<TRIPOS>ATOM
      1 C          -9.7632  -16.7753   21.7825 C.3     1  UNL1        0.0768
      2 C          -8.9673  -16.3424   22.9780 C.ar    1  UNL1       -0.0120
      3 C          -7.7056  -15.5526   22.7930 C.ar    1  UNL1       -0.0034
      4 C          -6.9097  -15.1196   23.9884 C.ar    1  UNL1       -0.0003
      5 C          -7.3755  -15.4764   25.3689 C.ar    1  UNL1       -0.0000
      6 C          -8.6373  -16.2663   25.5539 C.ar    1  UNL1       -0.0003
      7 C          -9.4332  -16.6993   24.3585 C.ar    1  UNL1       -0.0034
      8 S          -9.5681  -18.1473   21.2085 S.3     1  UNL1       -0.0907
      9 C          -4.7133  -18.8638   19.5006 C.3     1  UNL1        0.0521
     10 C          -5.8090  -19.1858   20.4730 C.ar    1  UNL1        0.0600
     11 C          -5.5732  -20.1879   21.5639 C.ar    1  UNL1        0.0155
     12 C          -6.6690  -20.5098   22.5363 C.ar    1  UNL1        0.0135
     13 C          -8.0006  -19.8296   22.4179 C.ar    1  UNL1        0.0919
     14 C          -8.2364  -18.8275   21.3270 C.ar    1  UNL1        0.1161
     15 N          -7.1407  -18.5056   20.3545 N.ar    1  UNL1       -0.2428
     16 C          -9.0964  -20.1516   23.3903 C.1     1  UNL1        0.1024
     17 N         -10.1921  -20.4735   24.3628 N.1     1  UNL1       -0.1908
     18 C         -10.7543  -15.8362   21.1612 C.3     1  UNL1        0.0324
     19 C         -11.7649  -16.3534   20.1808 C.3     1  UNL1        0.0664
     20 N         -12.2113  -15.4903   19.0382 N.3     1  UNL1       -0.3211
     21 H         -12.7213  -14.6844   19.3999 H       1  UNL1        0.1189
     22 H         -12.8201  -16.0294   18.4224 H       1  UNL1        0.1189
@<TRIPOS>BOND
     1     9    10    1
     2    10    11   ar
     3    11    12   ar
     4    12    13   ar
     5    13    16    1
     6    16    17    3
     7    13    14   ar
     8    14     8    1
     9     8     1    1
    10     1    18    1
    11    18    19    1
    12    19    20    1
    13     1     2    1
    14     2     3   ar
    15     3     4   ar
    16     4     5   ar
    17     5     6   ar
    18     6     7   ar
    19    14    15   ar
    20    15    10   ar
    21     7     2   ar
    22    20    21    1
    23    20    22    1
@<TRIPOS>MOLECULE
*****
 22 23 0 0 0
SMALL
GASTEIGER

@<TRIPOS>ATOM
      1 C          -8.5341  -17.6050   22.7983 C.3     1  UNL1        0.0768
      2 C          -9.8656  -17.2469   22.2078 C.ar    1  UNL1       -0.0120
      3 C         -10.1988  -17.6583   20.8043 C.ar    1  UNL1       -0.0034
      4 C         -11.5303  -17.3002   20.2138 C.ar    1  UNL1       -0.0003
      5 C         -12.5288  -16.5307   21.0268 C.ar    1  UNL1       -0.0000
      6 C         -12.1956  -16.1192   22.4303 C.ar    1  UNL1       -0.0003
      7 C         -10.8641  -16.4774   23.0208 C.ar    1  UNL1       -0.0034
      8 S          -7.8693  -18.8958   22.4216 S.3     1  UNL1       -0.0907
      9 C          -2.7626  -17.9830   22.7191 C.3     1  UNL1        0.0521
     10 C          -3.9594  -18.4256   21.9305 C.ar    1  UNL1        0.0600
     11 C          -3.7995  -18.8543   20.5020 C.ar    1  UNL1        0.0155
     12 C          -4.9963  -19.2969   19.7134 C.ar    1  UNL1        0.0135
     13 C          -6.3529  -19.3108   20.3532 C.ar    1  UNL1        0.0919
     14 C          -6.5127  -18.8820   21.7817 C.ar    1  UNL1        0.1161
     15 N          -5.3159  -18.4394   22.5703 N.ar    1  UNL1       -0.2428
     16 C          -7.5496  -19.7534   19.5646 C.1     1  UNL1        0.1024
     17 N          -8.7463  -20.1960   18.7760 N.1     1  UNL1       -0.1908
     18 C          -7.8673  -16.6723   23.7655 C.3     1  UNL1        0.0324
     19 C          -7.3693  -15.3370   23.2977 C.3     1  UNL1        0.0664
     20 N          -7.5459  -14.1252   24.1638 N.3     1  UNL1       -0.3211
     21 H          -8.5396  -13.9144   24.2550 H       1  UNL1        0.1189
     22 H          -7.0674  -13.3309   23.7389 H       1  UNL1        0.1189
@<TRIPOS>BOND
     1     9    10    1
     2    10    11   ar
     3    11    12   ar
     4    12    13   ar
     5    13    16    1
     6    16    17    3
     7    13    14   ar
     8    14     8    1
     9     8     1    1
    10     1    18    1
    11    18    19    1
    12    19    20    1
    13     1     2    1
    14     2     3   ar
    15     3     4   ar
    16     4     5   ar
    17     5     6   ar
    18     6     7   ar
    19    14    15   ar
    20    15    10   ar
    21     7     2   ar
    22    20    21    1
    23    20    22    1
