@<TRIPOS>MOLECULE
*****
 33 37 0 0 0
SMALL
GASTEIGER

@<TRIPOS>ATOM
      1 C          -8.9210  -16.1803   22.6765 C.3     1  UNL1        0.0920
      2 C         -10.3241  -16.6783   22.8598 C.3     1  UNL1        0.0429
      3 C         -10.5349  -17.8271   21.9186 C.3     1  UNL1        0.0985
      4 N          -9.2621  -18.0392   21.1537 N.am    1  UNL1       -0.2443
      5 C          -9.0279  -19.0854   20.1045 C.2     1  UNL1        0.4048
      6 O         -10.1259  -20.0397   19.7387 O.2     1  UNL1       -0.2262
      7 C          -8.2647  -17.0215   21.6221 C.3     1  UNL1        0.1162
      8 N          -8.2858  -15.0413   23.4176 N.pl3   1  UNL1       -0.3175
      9 H          -8.2012  -14.1601   22.9869 H       1  UNL1        0.1482
     10 C          -6.3036  -15.2964   25.0777 C.ar    1  UNL1        0.0997
     11 C          -5.7974  -15.5001   26.4748 C.ar    1  UNL1        0.0147
     12 C          -6.7671  -15.6524   27.6092 C.ar    1  UNL1        0.0215
     13 C          -8.2429  -15.6009   27.3463 C.ar    1  UNL1        0.1003
     14 N          -8.7492  -15.3972   25.9491 N.ar    1  UNL1       -0.2287
     15 C          -7.7795  -15.2450   24.8148 C.ar    1  UNL1        0.1381
     16 N          -4.3645  -14.9920   22.8091 N.1     1  UNL1       -0.1907
     17 C          -5.3341  -15.1442   23.9434 C.1     1  UNL1        0.1032
     18 O          -7.6957  -19.1773   19.4213 O.3     1  UNL1       -0.4383
     19 C          -6.4528  -19.4071   20.2290 C.3     1  UNL1        0.1702
     20 C          -5.1231  -18.9514   19.7053 C.3     1  UNL1        0.0407
     21 C          -5.2099  -19.6369   21.0366 C.3     1  UNL1        0.0036
     22 C          -3.9670  -19.8667   21.8443 C.3     1  UNL1        0.0007
     23 C          -5.2967  -20.3223   22.3680 C.3     1  UNL1        0.0036
     24 C          -6.5396  -20.0925   21.5603 C.3     1  UNL1        0.0407
     25 C          -3.3683  -19.3844   21.0602 C.3     1  UNL1        0.0122
     26 C          -2.5505  -18.7256   19.9892 C.3     1  UNL1        0.0688
     27 C          -2.6373  -19.4110   21.3205 C.3     1  UNL1        0.0086
     28 C          -3.7934  -18.4958   19.1815 C.3     1  UNL1        0.0122
     29 C          -1.2208  -18.2699   19.4654 C.2     1  UNL1        0.2184
     30 N          -1.0976  -17.7863   18.0509 N.am    1  UNL1       -0.3288
     31 O          -0.0143  -18.2979   20.3562 O.2     1  UNL1       -0.2754
     32 H          -1.8895  -17.7679   17.4663 H       1  UNL1        0.1449
     33 H          -0.2249  -17.4872   17.7072 H       1  UNL1        0.1449
@<TRIPOS>BOND
     1    16    17    3
     2    17    10    1
     3    10    11   ar
     4    11    12   ar
     5    12    13   ar
     6    13    14   ar
     7    14    15   ar
     8    15     8    1
     9     1     8    1
    10     1     2    1
    11     2     3    1
    12     3     4    1
    13     4     5   am
    14     5     6    2
    15     5    18    1
    16    19    18    1
    17    19    20    1
    18    20    21    1
    19    21    22    1
    20    22    23    1
    21    23    24    1
    22    24    25    1
    23    25    26    1
    24    26    29    1
    25    29    30   am
    26    29    31    2
    27    26    27    1
    28    26    28    1
    29     4     7    1
    30    15    10   ar
    31     7     1    1
    32    24    19    1
    33    28    20    1
    34    27    22    1
    35     8     9    1
    36    30    32    1
    37    30    33    1
@<TRIPOS>MOLECULE
*****
 33 37 0 0 0
SMALL
GASTEIGER

@<TRIPOS>ATOM
      1 C          -4.3477  -16.3934   23.2424 C.3     1  UNL1        0.0920
      2 C          -2.9965  -16.4877   22.5979 C.3     1  UNL1        0.0429
      3 C          -2.9082  -17.8114   21.8979 C.3     1  UNL1        0.0985
      4 N          -4.2048  -18.5352   22.1098 N.am    1  UNL1       -0.2443
      5 C          -4.5511  -19.8965   21.5833 C.2     1  UNL1        0.4048
      6 O          -3.5540  -20.6587   20.7618 O.2     1  UNL1       -0.2262
      7 C          -5.0945  -17.6589   22.9408 C.3     1  UNL1        0.1162
      8 N          -4.8618  -15.2367   24.0472 N.pl3   1  UNL1       -0.3175
      9 H          -4.4453  -14.3494   23.9555 H       1  UNL1        0.1482
     10 C          -7.4174  -15.4356   24.4712 C.ar    1  UNL1        0.0997
     11 C          -8.5661  -15.6308   25.4157 C.ar    1  UNL1        0.0147
     12 C          -8.3081  -15.8224   26.8809 C.ar    1  UNL1        0.0215
     13 C          -6.9014  -15.8187   27.4016 C.ar    1  UNL1        0.1003
     14 N          -5.7526  -15.6234   26.4570 N.ar    1  UNL1       -0.2287
     15 C          -6.0106  -15.4319   24.9918 C.ar    1  UNL1        0.1381
     16 N          -7.9332  -15.0526   21.5408 N.1     1  UNL1       -0.1907
     17 C          -7.6753  -15.2441   23.0060 C.1     1  UNL1        0.1032
     18 O          -5.8943  -20.4953   21.8781 O.3     1  UNL1       -0.4383
     19 C          -7.1130  -19.9927   21.1624 C.3     1  UNL1        0.1702
     20 C          -8.1679  -19.2386   21.9164 C.3     1  UNL1        0.0407
     21 C          -8.3317  -19.4902   20.4467 C.3     1  UNL1        0.0036
     22 C          -9.5504  -18.9876   19.7311 C.3     1  UNL1        0.0007
     23 C          -8.4955  -19.7417   18.9771 C.3     1  UNL1        0.0036
     24 C          -7.2768  -20.2443   19.6928 C.3     1  UNL1        0.0407
     25 C          -9.9270  -18.5625   20.6709 C.3     1  UNL1        0.0122
     26 C         -10.4415  -17.9819   21.9547 C.3     1  UNL1        0.0688
     27 C         -10.6053  -18.2335   20.4851 C.3     1  UNL1        0.0086
     28 C          -9.2228  -18.4845   22.6704 C.3     1  UNL1        0.0122
     29 C         -11.4964  -17.2278   22.7087 C.2     1  UNL1        0.2184
     30 N         -11.4759  -15.7281   22.7294 N.am    1  UNL1       -0.3288
     31 O         -12.5718  -17.9733   23.4419 O.2     1  UNL1       -0.2754
     32 H         -10.7701  -15.2387   22.2482 H       1  UNL1        0.1449
     33 H         -12.1683  -15.2331   23.2243 H       1  UNL1        0.1449
@<TRIPOS>BOND
     1    16    17    3
     2    17    10    1
     3    10    11   ar
     4    11    12   ar
     5    12    13   ar
     6    13    14   ar
     7    14    15   ar
     8    15     8    1
     9     1     8    1
    10     1     2    1
    11     2     3    1
    12     3     4    1
    13     4     5   am
    14     5     6    2
    15     5    18    1
    16    19    18    1
    17    19    20    1
    18    20    21    1
    19    21    22    1
    20    22    23    1
    21    23    24    1
    22    24    25    1
    23    25    26    1
    24    26    29    1
    25    29    30   am
    26    29    31    2
    27    26    27    1
    28    26    28    1
    29     4     7    1
    30    15    10   ar
    31     7     1    1
    32    24    19    1
    33    28    20    1
    34    27    22    1
    35     8     9    1
    36    30    32    1
    37    30    33    1
@<TRIPOS>MOLECULE
*****
 33 37 0 0 0
SMALL
GASTEIGER

@<TRIPOS>ATOM
      1 C          -5.1551  -19.8553   21.2731 C.3     1  UNL1        0.0920
      2 C          -5.3061  -20.9080   20.2151 C.3     1  UNL1        0.0429
      3 C          -6.6986  -20.8161   19.6652 C.3     1  UNL1        0.0985
      4 N          -7.4083  -19.7068   20.3833 N.am    1  UNL1       -0.2443
      5 C          -8.8235  -19.2681   20.1488 C.2     1  UNL1        0.4048
      6 O          -9.6618  -19.9605   19.1154 O.2     1  UNL1       -0.2262
      7 C          -6.4544  -19.1129   21.3770 C.3     1  UNL1        0.1162
      8 N          -3.9215  -19.5914   22.0846 N.pl3   1  UNL1       -0.3175
      9 H          -3.8061  -20.0261   22.9604 H       1  UNL1        0.1482
     10 C          -2.8012  -17.2475   22.0480 C.ar    1  UNL1        0.0997
     11 C          -1.7435  -16.3214   21.5253 C.ar    1  UNL1        0.0147
     12 C          -0.7483  -16.8128   20.5162 C.ar    1  UNL1        0.0215
     13 C          -0.8108  -18.2305   20.0300 C.ar    1  UNL1        0.1003
     14 N          -1.8686  -19.1567   20.5528 N.ar    1  UNL1       -0.2287
     15 C          -2.8637  -18.6652   21.5618 C.ar    1  UNL1        0.1381
     16 N          -4.7917  -16.2648   24.0660 N.1     1  UNL1       -0.1907
     17 C          -3.7964  -16.7562   23.0570 C.1     1  UNL1        0.1032
     18 O          -9.4003  -18.1373   20.9477 O.3     1  UNL1       -0.4383
     19 C          -9.5685  -18.2767   22.4318 C.3     1  UNL1        0.1702
     20 C          -8.9450  -17.2721   23.3549 C.3     1  UNL1        0.0407
     21 C          -9.7366  -18.4160   23.9158 C.3     1  UNL1        0.0036
     22 C          -9.9047  -18.5554   25.3998 C.3     1  UNL1        0.0007
     23 C         -10.5282  -19.5600   24.4767 C.3     1  UNL1        0.0036
     24 C         -10.3601  -19.4206   22.9927 C.3     1  UNL1        0.0407
     25 C          -9.3066  -17.6472   25.5529 C.3     1  UNL1        0.0122
     26 C          -8.4897  -16.4068   25.7619 C.3     1  UNL1        0.0688
     27 C          -9.2813  -17.5507   26.3228 C.3     1  UNL1        0.0086
     28 C          -8.3215  -16.2674   24.2779 C.3     1  UNL1        0.0122
     29 C          -7.8662  -15.4022   26.6850 C.2     1  UNL1        0.2184
     30 N          -6.4241  -15.0245   26.5187 N.am    1  UNL1       -0.3288
     31 O          -8.6848  -14.7752   27.7743 O.2     1  UNL1       -0.2754
     32 H          -5.8868  -15.4360   25.8037 H       1  UNL1        0.1449
     33 H          -6.0149  -14.3651   27.1245 H       1  UNL1        0.1449
@<TRIPOS>BOND
     1    16    17    3
     2    17    10    1
     3    10    11   ar
     4    11    12   ar
     5    12    13   ar
     6    13    14   ar
     7    14    15   ar
     8    15     8    1
     9     1     8    1
    10     1     2    1
    11     2     3    1
    12     3     4    1
    13     4     5   am
    14     5     6    2
    15     5    18    1
    16    19    18    1
    17    19    20    1
    18    20    21    1
    19    21    22    1
    20    22    23    1
    21    23    24    1
    22    24    25    1
    23    25    26    1
    24    26    29    1
    25    29    30   am
    26    29    31    2
    27    26    27    1
    28    26    28    1
    29     4     7    1
    30    15    10   ar
    31     7     1    1
    32    24    19    1
    33    28    20    1
    34    27    22    1
    35     8     9    1
    36    30    32    1
    37    30    33    1
@<TRIPOS>MOLECULE
*****
 33 37 0 0 0
SMALL
GASTEIGER

@<TRIPOS>ATOM
      1 C          -9.2201  -15.8312   23.7809 C.3     1  UNL1        0.0920
      2 C          -9.3741  -15.7284   25.2695 C.3     1  UNL1        0.0429
      3 C          -8.0125  -15.5198   25.8631 C.3     1  UNL1        0.0985
      4 N          -7.0169  -15.4936   24.7415 N.am    1  UNL1       -0.2443
      5 C          -5.5351  -15.3076   24.8820 C.2     1  UNL1        0.4048
      6 O          -4.9276  -15.1256   26.2414 O.2     1  UNL1       -0.2262
      7 C          -7.7631  -15.6860   23.4546 C.3     1  UNL1        0.1162
      8 N         -10.3283  -16.0420   22.7923 N.pl3   1  UNL1       -0.3175
      9 H         -10.8929  -15.2841   22.5167 H       1  UNL1        0.1482
     10 C         -10.9076  -17.5656   20.7691 C.ar    1  UNL1        0.0997
     11 C         -11.1555  -18.9312   20.2004 C.ar    1  UNL1        0.0147
     12 C         -11.0719  -20.1390   21.0860 C.ar    1  UNL1        0.0215
     13 C         -10.7405  -19.9811   22.5404 C.ar    1  UNL1        0.1003
     14 N         -10.4926  -18.6154   23.1092 N.ar    1  UNL1       -0.2287
     15 C         -10.5762  -17.4077   22.2235 C.ar    1  UNL1        0.1381
     16 N         -11.0746  -15.1500   18.9980 N.1     1  UNL1       -0.1907
     17 C         -10.9911  -16.3578   19.8835 C.1     1  UNL1        0.1032
     18 O          -4.6608  -15.3035   23.6632 O.3     1  UNL1       -0.4383
     19 C          -4.1762  -16.5994   23.0835 C.3     1  UNL1        0.1702
     20 C          -2.9637  -16.6192   22.2005 C.3     1  UNL1        0.0407
     21 C          -3.6916  -17.8952   22.5037 C.3     1  UNL1        0.0036
     22 C          -3.2070  -19.1909   21.9240 C.3     1  UNL1        0.0007
     23 C          -4.4194  -19.1712   22.8069 C.3     1  UNL1        0.0036
     24 C          -4.9040  -17.8754   23.3867 C.3     1  UNL1        0.0407
     25 C          -2.3869  -18.6600   21.4227 C.3     1  UNL1        0.0122
     26 C          -1.2667  -17.9347   20.7379 C.3     1  UNL1        0.0688
     27 C          -1.9945  -19.2107   21.0411 C.3     1  UNL1        0.0086
     28 C          -1.7513  -16.6389   21.3176 C.3     1  UNL1        0.0122
     29 C          -0.0542  -17.9544   19.8550 C.2     1  UNL1        0.2184
     30 N          -0.2068  -17.8265   18.3683 N.am    1  UNL1       -0.3288
     31 O           1.3109  -18.1022   20.4587 O.2     1  UNL1       -0.2754
     32 H          -1.1028  -17.7295   17.9720 H       1  UNL1        0.1449
     33 H           0.5889  -17.8395   17.7888 H       1  UNL1        0.1449
@<TRIPOS>BOND
     1    16    17    3
     2    17    10    1
     3    10    11   ar
     4    11    12   ar
     5    12    13   ar
     6    13    14   ar
     7    14    15   ar
     8    15     8    1
     9     1     8    1
    10     1     2    1
    11     2     3    1
    12     3     4    1
    13     4     5   am
    14     5     6    2
    15     5    18    1
    16    19    18    1
    17    19    20    1
    18    20    21    1
    19    21    22    1
    20    22    23    1
    21    23    24    1
    22    24    25    1
    23    25    26    1
    24    26    29    1
    25    29    30   am
    26    29    31    2
    27    26    27    1
    28    26    28    1
    29     4     7    1
    30    15    10   ar
    31     7     1    1
    32    24    19    1
    33    28    20    1
    34    27    22    1
    35     8     9    1
    36    30    32    1
    37    30    33    1
@<TRIPOS>MOLECULE
*****
 33 37 0 0 0
SMALL
GASTEIGER

@<TRIPOS>ATOM
      1 C          -9.2116  -15.9946   23.7631 C.3     1  UNL1        0.0920
      2 C          -9.4157  -15.9661   25.2489 C.3     1  UNL1        0.0429
      3 C          -8.0794  -15.7536   25.8963 C.3     1  UNL1        0.0985
      4 N          -7.0495  -15.6507   24.8107 N.am    1  UNL1       -0.2443
      5 C          -5.5780  -15.4364   25.0086 C.2     1  UNL1        0.4048
      6 O          -5.0191  -15.3047   26.3943 O.2     1  UNL1       -0.2262
      7 C          -7.7492  -15.7996   23.4922 C.3     1  UNL1        0.1162
      8 N         -10.2821  -16.1847   22.7296 N.pl3   1  UNL1       -0.3175
      9 H         -10.9766  -15.4975   22.6081 H       1  UNL1        0.1482
     10 C         -11.4194  -18.4058   22.0064 C.ar    1  UNL1        0.0997
     11 C         -11.4317  -19.6427   21.1581 C.ar    1  UNL1        0.0147
     12 C         -10.3188  -19.8955   20.1845 C.ar    1  UNL1        0.0215
     13 C          -9.1937  -18.9114   20.0594 C.ar    1  UNL1        0.1003
     14 N          -9.1814  -17.6744   20.9078 N.ar    1  UNL1       -0.2287
     15 C         -10.2943  -17.4217   21.8813 C.ar    1  UNL1        0.1381
     16 N         -13.6450  -17.9000   23.9534 N.1     1  UNL1       -0.1907
     17 C         -12.5322  -18.1529   22.9799 C.1     1  UNL1        0.1032
     18 O          -4.6657  -15.3540   23.8209 O.3     1  UNL1       -0.4383
     19 C          -4.1571  -16.6098   23.1771 C.3     1  UNL1        0.1702
     20 C          -2.9436  -16.5629   22.2967 C.3     1  UNL1        0.0407
     21 C          -3.6486  -17.8656   22.5334 C.3     1  UNL1        0.0036
     22 C          -3.1400  -19.1213   21.8897 C.3     1  UNL1        0.0007
     23 C          -4.3536  -19.1682   22.7701 C.3     1  UNL1        0.0036
     24 C          -4.8621  -17.9125   23.4138 C.3     1  UNL1        0.0407
     25 C          -2.3291  -18.5509   21.4175 C.3     1  UNL1        0.0122
     26 C          -1.2215  -17.7718   20.7726 C.3     1  UNL1        0.0688
     27 C          -1.9265  -19.0744   21.0093 C.3     1  UNL1        0.0086
     28 C          -1.7300  -16.5160   21.4163 C.3     1  UNL1        0.0122
     29 C          -0.0079  -17.7249   19.8922 C.2     1  UNL1        0.2184
     30 N           1.3480  -17.5060   20.4951 N.am    1  UNL1       -0.3288
     31 O          -0.1503  -17.8968   18.4089 O.2     1  UNL1       -0.2754
     32 H           1.4415  -17.3932   21.4686 H       1  UNL1        0.1449
     33 H           2.1445  -17.4752   19.9172 H       1  UNL1        0.1449
@<TRIPOS>BOND
     1    16    17    3
     2    17    10    1
     3    10    11   ar
     4    11    12   ar
     5    12    13   ar
     6    13    14   ar
     7    14    15   ar
     8    15     8    1
     9     1     8    1
    10     1     2    1
    11     2     3    1
    12     3     4    1
    13     4     5   am
    14     5     6    2
    15     5    18    1
    16    19    18    1
    17    19    20    1
    18    20    21    1
    19    21    22    1
    20    22    23    1
    21    23    24    1
    22    24    25    1
    23    25    26    1
    24    26    29    1
    25    29    30   am
    26    29    31    2
    27    26    27    1
    28    26    28    1
    29     4     7    1
    30    15    10   ar
    31     7     1    1
    32    24    19    1
    33    28    20    1
    34    27    22    1
    35     8     9    1
    36    30    32    1
    37    30    33    1
@<TRIPOS>MOLECULE
*****
 33 37 0 0 0
SMALL
GASTEIGER

@<TRIPOS>ATOM
      1 C          -5.0462  -16.6178   23.4857 C.3     1  UNL1        0.0920
      2 C          -5.0264  -15.1703   23.8788 C.3     1  UNL1        0.0429
      3 C          -6.2970  -14.8735   24.6187 C.3     1  UNL1        0.0985
      4 N          -7.1022  -16.1375   24.6828 N.am    1  UNL1       -0.2443
      5 C          -8.4447  -16.2957   25.3330 C.2     1  UNL1        0.4048
      6 O          -9.0987  -15.1213   25.9985 O.2     1  UNL1       -0.2262
      7 C          -6.3292  -17.2155   23.9826 C.3     1  UNL1        0.1162
      8 N          -3.9718  -17.3406   22.7286 N.pl3   1  UNL1       -0.3175
      9 H          -3.0342  -17.0508   22.8072 H       1  UNL1        0.1482
     10 C          -3.4462  -18.8648   20.6913 C.ar    1  UNL1        0.0997
     11 C          -3.8003  -20.0291   19.8145 C.ar    1  UNL1        0.0147
     12 C          -5.0341  -20.8337   20.0982 C.ar    1  UNL1        0.0215
     13 C          -5.9138  -20.4739   21.2587 C.ar    1  UNL1        0.1003
     14 N          -5.5597  -19.3095   22.1356 N.ar    1  UNL1       -0.2287
     15 C          -4.3259  -18.5050   21.8518 C.ar    1  UNL1        0.1381
     16 N          -0.9787  -17.2556   20.1241 N.1     1  UNL1       -0.1907
     17 C          -2.2125  -18.0602   20.4077 C.1     1  UNL1        0.1032
     18 O          -9.1331  -17.6283   25.3177 O.3     1  UNL1       -0.4383
     19 C          -9.8052  -18.1109   24.0665 C.3     1  UNL1        0.1702
     20 C         -10.1387  -17.1406   22.9722 C.3     1  UNL1        0.0407
     21 C         -10.4773  -18.5934   22.8153 C.3     1  UNL1        0.0036
     22 C         -11.1494  -19.0760   21.5642 C.3     1  UNL1        0.0007
     23 C         -10.8160  -20.0462   22.6585 C.3     1  UNL1        0.0036
     24 C         -10.1439  -19.5637   23.9096 C.3     1  UNL1        0.0407
     25 C         -11.1472  -18.0519   21.1680 C.3     1  UNL1        0.0122
     26 C         -11.1442  -16.6529   20.6268 C.3     1  UNL1        0.0688
     27 C         -11.4829  -18.1057   20.4699 C.3     1  UNL1        0.0086
     28 C         -10.4721  -16.1704   21.8779 C.3     1  UNL1        0.0122
     29 C         -11.4776  -15.6827   19.5325 C.2     1  UNL1        0.2184
     30 N         -12.8931  -15.5487   19.0545 N.am    1  UNL1       -0.3288
     31 O         -10.3956  -14.8464   18.9162 O.2     1  UNL1       -0.2754
     32 H         -13.6033  -16.0976   19.4590 H       1  UNL1        0.1449
     33 H         -13.1119  -14.9119   18.3363 H       1  UNL1        0.1449
@<TRIPOS>BOND
     1    16    17    3
     2    17    10    1
     3    10    11   ar
     4    11    12   ar
     5    12    13   ar
     6    13    14   ar
     7    14    15   ar
     8    15     8    1
     9     1     8    1
    10     1     2    1
    11     2     3    1
    12     3     4    1
    13     4     5   am
    14     5     6    2
    15     5    18    1
    16    19    18    1
    17    19    20    1
    18    20    21    1
    19    21    22    1
    20    22    23    1
    21    23    24    1
    22    24    25    1
    23    25    26    1
    24    26    29    1
    25    29    30   am
    26    29    31    2
    27    26    27    1
    28    26    28    1
    29     4     7    1
    30    15    10   ar
    31     7     1    1
    32    24    19    1
    33    28    20    1
    34    27    22    1
    35     8     9    1
    36    30    32    1
    37    30    33    1
@<TRIPOS>MOLECULE
*****
 33 37 0 0 0
SMALL
GASTEIGER

@<TRIPOS>ATOM
      1 C          -4.9361  -17.1327   23.2249 C.3     1  UNL1        0.0920
      2 C          -3.8918  -17.4778   22.2048 C.3     1  UNL1        0.0429
      3 C          -4.3499  -18.7015   21.4681 C.3     1  UNL1        0.0985
      4 N          -5.6773  -19.1127   22.0328 N.am    1  UNL1       -0.2443
      5 C          -6.4984  -20.2872   21.5896 C.2     1  UNL1        0.4048
      6 O          -6.0046  -21.1734   20.4847 O.2     1  UNL1       -0.2262
      7 C          -6.0397  -18.1432   23.1185 C.3     1  UNL1        0.1162
      8 N          -4.8857  -15.9797   24.1829 N.pl3   1  UNL1       -0.3175
      9 H          -4.1063  -15.3782   24.1887 H       1  UNL1        0.1482
     10 C          -7.3674  -15.3376   24.6056 C.ar    1  UNL1        0.0997
     11 C          -8.5044  -15.1010   25.5548 C.ar    1  UNL1        0.0147
     12 C          -8.2967  -15.2698   27.0308 C.ar    1  UNL1        0.0215
     13 C          -6.9520  -15.6752   27.5574 C.ar    1  UNL1        0.1003
     14 N          -5.8150  -15.9118   26.6081 N.ar    1  UNL1       -0.2287
     15 C          -6.0227  -15.7430   25.1322 C.ar    1  UNL1        0.1381
     16 N          -7.7827  -15.0001   21.6537 N.1     1  UNL1       -0.1907
     17 C          -7.5751  -15.1689   23.1296 C.1     1  UNL1        0.1032
     18 O          -7.8133  -20.5756   22.2514 O.3     1  UNL1       -0.4383
     19 C          -8.7470  -19.4504   22.5865 C.3     1  UNL1        0.1702
     20 C          -9.3086  -18.5909   21.4930 C.3     1  UNL1        0.0407
     21 C          -9.6807  -18.3253   22.9216 C.3     1  UNL1        0.0036
     22 C         -10.6144  -17.2002   23.2566 C.3     1  UNL1        0.0007
     23 C         -10.0528  -18.0598   24.3502 C.3     1  UNL1        0.0036
     24 C          -9.1191  -19.1849   24.0151 C.3     1  UNL1        0.0407
     25 C         -10.6945  -16.9492   22.1906 C.3     1  UNL1        0.0122
     26 C         -10.8039  -16.6063   20.7345 C.3     1  UNL1        0.0688
     27 C         -11.1760  -16.3407   22.1631 C.3     1  UNL1        0.0086
     28 C          -9.8702  -17.7314   20.3994 C.3     1  UNL1        0.0122
     29 C         -11.3655  -15.7468   19.6409 C.2     1  UNL1        0.2184
     30 N         -12.8262  -15.8167   19.3074 N.am    1  UNL1       -0.3288
     31 O         -10.4663  -14.8174   18.8809 O.2     1  UNL1       -0.2754
     32 H         -13.4164  -16.4267   19.8062 H       1  UNL1        0.1449
     33 H         -13.1948  -15.2525   18.5897 H       1  UNL1        0.1449
@<TRIPOS>BOND
     1    16    17    3
     2    17    10    1
     3    10    11   ar
     4    11    12   ar
     5    12    13   ar
     6    13    14   ar
     7    14    15   ar
     8    15     8    1
     9     1     8    1
    10     1     2    1
    11     2     3    1
    12     3     4    1
    13     4     5   am
    14     5     6    2
    15     5    18    1
    16    19    18    1
    17    19    20    1
    18    20    21    1
    19    21    22    1
    20    22    23    1
    21    23    24    1
    22    24    25    1
    23    25    26    1
    24    26    29    1
    25    29    30   am
    26    29    31    2
    27    26    27    1
    28    26    28    1
    29     4     7    1
    30    15    10   ar
    31     7     1    1
    32    24    19    1
    33    28    20    1
    34    27    22    1
    35     8     9    1
    36    30    32    1
    37    30    33    1
@<TRIPOS>MOLECULE
*****
 33 37 0 0 0
SMALL
GASTEIGER

@<TRIPOS>ATOM
      1 C          -4.6298  -16.2204   23.0344 C.3     1  UNL1        0.0920
      2 C          -3.1773  -15.9815   22.7458 C.3     1  UNL1        0.0429
      3 C          -2.5786  -17.2752   22.2789 C.3     1  UNL1        0.0985
      4 N          -3.6611  -18.3136   22.2790 N.am    1  UNL1       -0.2443
      5 C          -3.5036  -19.7515   21.8818 C.2     1  UNL1        0.4048
      6 O          -2.1669  -20.2636   21.4333 O.2     1  UNL1       -0.2262
      7 C          -4.9288  -17.6618   22.7459 C.3     1  UNL1        0.1162
      8 N          -5.6110  -15.1975   23.5254 N.pl3   1  UNL1       -0.3175
      9 H          -5.2881  -14.3544   23.9179 H       1  UNL1        0.1482
     10 C          -7.9021  -15.6616   24.6591 C.ar    1  UNL1        0.0997
     11 C          -9.3751  -15.9234   24.5520 C.ar    1  UNL1        0.0147
     12 C         -10.0302  -15.9828   23.2038 C.ar    1  UNL1        0.0215
     13 C          -9.2122  -15.7805   21.9629 C.ar    1  UNL1        0.1003
     14 N          -7.7391  -15.5187   22.0701 N.ar    1  UNL1       -0.2287
     15 C          -7.0841  -15.4593   23.4182 C.ar    1  UNL1        0.1381
     16 N          -6.5919  -15.5427   27.3553 N.1     1  UNL1       -0.1907
     17 C          -7.2470  -15.6021   26.0072 C.1     1  UNL1        0.1032
     18 O          -4.6827  -20.6773   21.9332 O.3     1  UNL1       -0.4383
     19 C          -6.0118  -20.2293   21.4013 C.3     1  UNL1        0.1702
     20 C          -7.1909  -20.1226   22.3223 C.3     1  UNL1        0.0407
     21 C          -7.3408  -19.7813   20.8694 C.3     1  UNL1        0.0036
     22 C          -8.6698  -19.3333   20.3375 C.3     1  UNL1        0.0007
     23 C          -7.4907  -19.4400   19.4165 C.3     1  UNL1        0.0036
     24 C          -6.1617  -19.8879   19.9484 C.3     1  UNL1        0.0407
     25 C          -9.1049  -19.4325   21.3409 C.3     1  UNL1        0.0122
     26 C          -9.6990  -19.5680   22.7115 C.3     1  UNL1        0.0688
     27 C          -9.8489  -19.2267   21.2586 C.3     1  UNL1        0.0086
     28 C          -8.3700  -20.0160   23.2434 C.3     1  UNL1        0.0122
     29 C         -10.8781  -19.4613   23.6325 C.2     1  UNL1        0.2184
     30 N         -10.7943  -20.0123   25.0251 N.am    1  UNL1       -0.3288
     31 O         -12.1411  -18.8037   23.1609 O.2     1  UNL1       -0.2754
     32 H          -9.9654  -20.4439   25.3346 H       1  UNL1        0.1449
     33 H         -11.5682  -19.9423   25.6296 H       1  UNL1        0.1449
@<TRIPOS>BOND
     1    16    17    3
     2    17    10    1
     3    10    11   ar
     4    11    12   ar
     5    12    13   ar
     6    13    14   ar
     7    14    15   ar
     8    15     8    1
     9     1     8    1
    10     1     2    1
    11     2     3    1
    12     3     4    1
    13     4     5   am
    14     5     6    2
    15     5    18    1
    16    19    18    1
    17    19    20    1
    18    20    21    1
    19    21    22    1
    20    22    23    1
    21    23    24    1
    22    24    25    1
    23    25    26    1
    24    26    29    1
    25    29    30   am
    26    29    31    2
    27    26    27    1
    28    26    28    1
    29     4     7    1
    30    15    10   ar
    31     7     1    1
    32    24    19    1
    33    28    20    1
    34    27    22    1
    35     8     9    1
    36    30    32    1
    37    30    33    1
@<TRIPOS>MOLECULE
*****
 33 37 0 0 0
SMALL
GASTEIGER

@<TRIPOS>ATOM
      1 C          -8.8526  -16.9963   22.8815 C.3     1  UNL1        0.0920
      2 C          -9.0181  -15.5433   23.2154 C.3     1  UNL1        0.0429
      3 C          -7.7193  -15.0459   23.7773 C.3     1  UNL1        0.0985
      4 N          -6.7511  -16.1915   23.7906 N.am    1  UNL1       -0.2443
      5 C          -5.3316  -16.1407   24.2729 C.2     1  UNL1        0.4048
      6 O          -4.7652  -14.8570   24.8033 O.2     1  UNL1       -0.2262
      7 C          -7.4514  -17.3969   23.2370 C.3     1  UNL1        0.1162
      8 N          -9.9037  -17.8915   22.2950 N.pl3   1  UNL1       -0.3175
      9 H          -9.7123  -18.4054   21.4774 H       1  UNL1        0.1482
     10 C         -12.4587  -17.4204   22.2911 C.ar    1  UNL1        0.0997
     11 C         -13.8013  -17.5326   22.9504 C.ar    1  UNL1        0.0147
     12 C         -13.9315  -18.2282   24.2730 C.ar    1  UNL1        0.0215
     13 C         -12.7192  -18.8115   24.9363 C.ar    1  UNL1        0.1003
     14 N         -11.3765  -18.6993   24.2770 N.ar    1  UNL1       -0.2287
     15 C         -11.2463  -18.0037   22.9544 C.ar    1  UNL1        0.1381
     16 N         -12.1980  -16.0293   19.6459 N.1     1  UNL1       -0.1907
     17 C         -12.3283  -16.7248   20.9685 C.1     1  UNL1        0.1032
     18 O          -4.4786  -17.3736   24.2249 O.3     1  UNL1       -0.4383
     19 C          -4.2998  -18.1120   22.9315 C.3     1  UNL1        0.1702
     20 C          -3.1824  -17.7388   22.0031 C.3     1  UNL1        0.0407
     21 C          -4.1210  -18.8504   21.6382 C.3     1  UNL1        0.0036
     22 C          -3.9423  -19.5888   20.3449 C.3     1  UNL1        0.0007
     23 C          -5.0597  -19.9620   21.2733 C.3     1  UNL1        0.0036
     24 C          -5.2385  -19.2236   22.5666 C.3     1  UNL1        0.0407
     25 C          -3.0732  -18.9613   20.1066 C.3     1  UNL1        0.0122
     26 C          -1.8862  -18.1040   19.7813 C.3     1  UNL1        0.0688
     27 C          -2.8248  -19.2156   19.4164 C.3     1  UNL1        0.0086
     28 C          -2.0649  -17.3656   21.0746 C.3     1  UNL1        0.0122
     29 C          -0.7687  -17.7308   18.8528 C.2     1  UNL1        0.2184
     30 N           0.5523  -17.2885   19.4088 N.am    1  UNL1       -0.3288
     31 O          -0.9723  -17.7998   17.3683 O.2     1  UNL1       -0.2754
     32 H           0.6860  -17.2432   20.3831 H       1  UNL1        0.1449
     33 H           1.2857  -17.0436   18.7994 H       1  UNL1        0.1449
@<TRIPOS>BOND
     1    16    17    3
     2    17    10    1
     3    10    11   ar
     4    11    12   ar
     5    12    13   ar
     6    13    14   ar
     7    14    15   ar
     8    15     8    1
     9     1     8    1
    10     1     2    1
    11     2     3    1
    12     3     4    1
    13     4     5   am
    14     5     6    2
    15     5    18    1
    16    19    18    1
    17    19    20    1
    18    20    21    1
    19    21    22    1
    20    22    23    1
    21    23    24    1
    22    24    25    1
    23    25    26    1
    24    26    29    1
    25    29    30   am
    26    29    31    2
    27    26    27    1
    28    26    28    1
    29     4     7    1
    30    15    10   ar
    31     7     1    1
    32    24    19    1
    33    28    20    1
    34    27    22    1
    35     8     9    1
    36    30    32    1
    37    30    33    1
