@<TRIPOS>MOLECULE
*****
 31 34 0 0 0
SMALL
GASTEIGER

@<TRIPOS>ATOM
      1 C          -7.3801  -17.0239   23.4724 C.ar    1  UNL1        0.0899
      2 C          -6.1534  -17.3848   22.6882 C.ar    1  UNL1        0.1555
      3 O          -6.2858  -18.0911   21.3715 O.3     1  UNL1       -0.5039
      4 C          -4.7943  -17.0394   23.2206 C.ar    1  UNL1        0.1149
      5 N          -4.6618  -16.3332   24.5373 N.ar    1  UNL1       -0.2423
      6 C          -5.8885  -15.9722   25.3215 C.ar    1  UNL1        0.0816
      7 C          -5.7561  -15.2659   26.6382 C.ar    1  UNL1        0.0191
      8 C          -6.9827  -14.9050   27.4224 C.ar    1  UNL1        0.0015
      9 C          -8.3418  -15.2504   26.8899 C.ar    1  UNL1        0.0001
     10 C          -8.4743  -15.9567   25.5733 C.ar    1  UNL1        0.0017
     11 C          -7.2476  -16.3176   24.7891 C.ar    1  UNL1        0.0250
     12 H          -7.1348  -18.3069   21.0388 H       1  UNL1        0.2923
     13 C          -3.5676  -17.4004   22.4364 C.ar    1  UNL1        0.0206
     14 C          -3.2628  -18.8390   22.1406 C.ar    1  UNL1        0.0016
     15 C          -2.0362  -19.1999   21.3564 C.ar    1  UNL1        0.0000
     16 C          -1.1143  -18.1221   20.8679 C.ar    1  UNL1        0.0000
     17 C          -1.4190  -16.6835   21.1637 C.ar    1  UNL1        0.0000
     18 C          -2.6457  -16.3227   21.9479 C.ar    1  UNL1        0.0016
     19 N          -9.1215  -18.8050   22.7342 N.am    1  UNL1       -0.2986
     20 C          -8.7392  -17.3693   22.9399 C.2     1  UNL1        0.2491
     21 O          -9.7160  -16.2788   22.6131 O.2     1  UNL1       -0.2700
     22 H          -8.4804  -19.5207   22.9487 H       1  UNL1        0.1500
     23 C         -10.4806  -19.1504   22.2018 C.3     1  UNL1        0.0943
     24 C         -11.7076  -18.7817   22.9818 C.ar    1  UNL1       -0.0045
     25 C         -11.8043  -19.1314   24.4373 C.ar    1  UNL1       -0.0027
     26 C         -13.0314  -18.7628   25.2173 C.ar    1  UNL1       -0.0003
     27 C         -14.1617  -18.0443   24.5419 C.ar    1  UNL1       -0.0000
     28 C         -14.0650  -17.6946   23.0865 C.ar    1  UNL1       -0.0003
     29 C         -12.8380  -18.0633   22.3064 C.ar    1  UNL1       -0.0027
     30 C         -10.2509  -19.1626   19.6139 C.3     1  UNL1        0.0021
     31 C         -10.6127  -19.8645   20.8892 C.3     1  UNL1        0.0241
@<TRIPOS>BOND
     1    30    31    1
     2    23    31    1
     3    23    19    1
     4    19    20   am
     5    20    21    2
     6    20     1    1
     7     1     2   ar
     8     2     3    1
     9     2     4   ar
    10     4    13    1
    11    13    14   ar
    12    14    15   ar
    13    15    16   ar
    14    16    17   ar
    15    17    18   ar
    16     4     5   ar
    17     5     6   ar
    18     6     7   ar
    19     7     8   ar
    20     8     9   ar
    21     9    10   ar
    22    10    11   ar
    23    23    24    1
    24    24    25   ar
    25    25    26   ar
    26    26    27   ar
    27    27    28   ar
    28    28    29   ar
    29    11     1   ar
    30    29    24   ar
    31    18    13   ar
    32    11     6   ar
    33    19    22    1
    34     3    12    1
@<TRIPOS>MOLECULE
*****
 31 34 0 0 0
SMALL
GASTEIGER

@<TRIPOS>ATOM
      1 C          -7.3187  -17.6925   22.6768 C.ar    1  UNL1        0.0899
      2 C          -8.7961  -17.9510   22.6895 C.ar    1  UNL1        0.1555
      3 O          -9.4127  -18.8311   21.6428 O.3     1  UNL1       -0.5039
      4 C          -9.6572  -17.3296   23.7490 C.ar    1  UNL1        0.1149
      5 N          -9.0407  -16.4496   24.7956 N.ar    1  UNL1       -0.2423
      6 C          -7.5632  -16.1910   24.7829 C.ar    1  UNL1        0.0816
      7 C          -6.9468  -15.3110   25.8296 C.ar    1  UNL1        0.0191
      8 C          -5.4693  -15.0525   25.8168 C.ar    1  UNL1        0.0015
      9 C          -4.6083  -15.6740   24.7574 C.ar    1  UNL1        0.0001
     10 C          -5.2247  -16.5540   23.7107 C.ar    1  UNL1        0.0017
     11 C          -6.7022  -16.8125   23.7235 C.ar    1  UNL1        0.0250
     12 H          -8.8748  -19.2193   20.9810 H       1  UNL1        0.2923
     13 C         -11.1347  -17.5881   23.7617 C.ar    1  UNL1        0.0206
     14 C         -12.0267  -16.8905   22.7780 C.ar    1  UNL1        0.0016
     15 C         -13.5041  -17.1491   22.7908 C.ar    1  UNL1        0.0000
     16 C         -14.0896  -18.1053   23.7872 C.ar    1  UNL1        0.0000
     17 C         -13.1977  -18.8029   24.7709 C.ar    1  UNL1        0.0000
     18 C         -11.7202  -18.5443   24.7581 C.ar    1  UNL1        0.0016
     19 N          -5.2604  -19.1294   22.0068 N.am    1  UNL1       -0.2986
     20 C          -6.4577  -18.3140   21.6173 C.2     1  UNL1        0.2491
     21 O          -6.7939  -18.1201   20.1684 O.2     1  UNL1       -0.2700
     22 H          -5.0397  -19.2566   22.9577 H       1  UNL1        0.1500
     23 C          -4.3994  -19.7508   20.9473 C.3     1  UNL1        0.0943
     24 C          -3.1864  -19.0251   20.4455 C.ar    1  UNL1       -0.0045
     25 C          -1.9862  -18.8682   21.3315 C.ar    1  UNL1       -0.0027
     26 C          -0.7732  -18.1424   20.8297 C.ar    1  UNL1       -0.0003
     27 C          -0.7604  -17.5734   19.4419 C.ar    1  UNL1       -0.0000
     28 C          -1.9605  -17.7303   18.5558 C.ar    1  UNL1       -0.0003
     29 C          -3.1735  -18.4561   19.0576 C.ar    1  UNL1       -0.0027
     30 C          -6.1872  -21.4568   20.1450 C.3     1  UNL1        0.0021
     31 C          -4.7514  -21.0982   20.3897 C.3     1  UNL1        0.0241
@<TRIPOS>BOND
     1    30    31    1
     2    23    31    1
     3    23    19    1
     4    19    20   am
     5    20    21    2
     6    20     1    1
     7     1     2   ar
     8     2     3    1
     9     2     4   ar
    10     4    13    1
    11    13    14   ar
    12    14    15   ar
    13    15    16   ar
    14    16    17   ar
    15    17    18   ar
    16     4     5   ar
    17     5     6   ar
    18     6     7   ar
    19     7     8   ar
    20     8     9   ar
    21     9    10   ar
    22    10    11   ar
    23    23    24    1
    24    24    25   ar
    25    25    26   ar
    26    26    27   ar
    27    27    28   ar
    28    28    29   ar
    29    11     1   ar
    30    29    24   ar
    31    18    13   ar
    32    11     6   ar
    33    19    22    1
    34     3    12    1
@<TRIPOS>MOLECULE
*****
 31 34 0 0 0
SMALL
GASTEIGER

@<TRIPOS>ATOM
      1 C          -7.7626  -18.0241   21.8665 C.ar    1  UNL1        0.0899
      2 C          -7.2845  -17.3152   23.0988 C.ar    1  UNL1        0.1555
      3 O          -5.8161  -17.2316   23.3940 O.3     1  UNL1       -0.5039
      4 C          -8.2747  -16.6897   24.0360 C.ar    1  UNL1        0.1149
      5 N          -9.7429  -16.7732   23.7408 N.ar    1  UNL1       -0.2423
      6 C         -10.2211  -17.4822   22.5084 C.ar    1  UNL1        0.0816
      7 C         -11.6894  -17.5657   22.2133 C.ar    1  UNL1        0.0191
      8 C         -12.1674  -18.2747   20.9809 C.ar    1  UNL1        0.0015
      9 C         -11.1773  -18.9001   20.0437 C.ar    1  UNL1        0.0001
     10 C          -9.7090  -18.8167   20.3389 C.ar    1  UNL1        0.0017
     11 C          -9.2309  -18.1077   21.5712 C.ar    1  UNL1        0.0250
     12 H          -5.1976  -17.6224   22.8086 H       1  UNL1        0.2923
     13 C          -7.7965  -15.9807   25.2684 C.ar    1  UNL1        0.0206
     14 C          -6.3988  -15.4396   25.3277 C.ar    1  UNL1        0.0016
     15 C          -5.9207  -14.7306   26.5600 C.ar    1  UNL1        0.0000
     16 C          -6.8403  -14.5627   27.7331 C.ar    1  UNL1        0.0000
     17 C          -8.2381  -15.1038   27.6738 C.ar    1  UNL1        0.0000
     18 C          -8.7161  -15.8128   26.4415 C.ar    1  UNL1        0.0016
     19 N          -5.4985  -19.2333   21.4644 N.am    1  UNL1       -0.2986
     20 C          -6.7724  -18.6496   20.9293 C.2     1  UNL1        0.2491
     21 O          -7.0562  -18.6914   19.4569 O.2     1  UNL1       -0.2700
     22 H          -5.3122  -19.2059   22.4307 H       1  UNL1        0.1500
     23 C          -4.5083  -19.8588   20.5272 C.3     1  UNL1        0.0943
     24 C          -3.2516  -19.1246   20.1645 C.ar    1  UNL1       -0.0045
     25 C          -2.1208  -19.0426   21.1468 C.ar    1  UNL1       -0.0027
     26 C          -0.8641  -18.3083   20.7841 C.ar    1  UNL1       -0.0003
     27 C          -0.7381  -17.6561   19.4392 C.ar    1  UNL1       -0.0000
     28 C          -1.8688  -17.7381   18.4570 C.ar    1  UNL1       -0.0003
     29 C          -3.1256  -18.4724   18.8197 C.ar    1  UNL1       -0.0027
     30 C          -6.1455  -21.8197   20.0531 C.3     1  UNL1        0.0021
     31 C          -4.7749  -21.2186   19.9527 C.3     1  UNL1        0.0241
@<TRIPOS>BOND
     1    30    31    1
     2    23    31    1
     3    23    19    1
     4    19    20   am
     5    20    21    2
     6    20     1    1
     7     1     2   ar
     8     2     3    1
     9     2     4   ar
    10     4    13    1
    11    13    14   ar
    12    14    15   ar
    13    15    16   ar
    14    16    17   ar
    15    17    18   ar
    16     4     5   ar
    17     5     6   ar
    18     6     7   ar
    19     7     8   ar
    20     8     9   ar
    21     9    10   ar
    22    10    11   ar
    23    23    24    1
    24    24    25   ar
    25    25    26   ar
    26    26    27   ar
    27    27    28   ar
    28    28    29   ar
    29    11     1   ar
    30    29    24   ar
    31    18    13   ar
    32    11     6   ar
    33    19    22    1
    34     3    12    1
@<TRIPOS>MOLECULE
*****
 31 34 0 0 0
SMALL
GASTEIGER

@<TRIPOS>ATOM
      1 C           7.2364   -4.0241   25.2667 C.ar    1  UNL1        0.0899
      2 C           7.1877   -3.6845   26.7269 C.ar    1  UNL1        0.1555
      3 O           6.4371   -2.4712   27.1902 O.3     1  UNL1       -0.5039
      4 C           7.8894   -4.5583   27.7240 C.ar    1  UNL1        0.1149
      5 N           8.6400   -5.7716   27.2608 N.ar    1  UNL1       -0.2423
      6 C           8.6888   -6.1112   25.8005 C.ar    1  UNL1        0.0816
      7 C           9.4394   -7.3244   25.3373 C.ar    1  UNL1        0.0191
      8 C           9.4881   -7.6640   23.8771 C.ar    1  UNL1        0.0015
      9 C           8.7863   -6.7903   22.8801 C.ar    1  UNL1        0.0001
     10 C           8.0358   -5.5770   23.3432 C.ar    1  UNL1        0.0017
     11 C           7.9870   -5.2374   24.8035 C.ar    1  UNL1        0.0250
     12 H           5.9987   -1.9254   26.5674 H       1  UNL1        0.2923
     13 C           7.8406   -4.2187   29.1843 C.ar    1  UNL1        0.0206
     14 C           8.7136   -3.1278   29.7302 C.ar    1  UNL1        0.0016
     15 C           8.6647   -2.7883   31.1904 C.ar    1  UNL1        0.0000
     16 C           7.7430   -3.5396   32.1047 C.ar    1  UNL1        0.0000
     17 C           6.8700   -4.6304   31.5588 C.ar    1  UNL1        0.0000
     18 C           6.9189   -4.9699   30.0986 C.ar    1  UNL1        0.0016
     19 N           5.0360   -3.1369   24.2079 N.am    1  UNL1       -0.2986
     20 C           6.5347   -3.1504   24.2697 C.2     1  UNL1        0.2491
     21 O           7.3316   -2.2901   23.3343 O.2     1  UNL1       -0.2700
     22 H           4.5130   -3.7015   24.8218 H       1  UNL1        0.1500
     23 C           4.3342   -2.2632   23.2109 C.3     1  UNL1        0.0943
     24 C           4.1382   -2.7403   21.8024 C.ar    1  UNL1       -0.0045
     25 C           3.5979   -1.8046   20.7619 C.ar    1  UNL1       -0.0027
     26 C           3.4019   -2.2817   19.3534 C.ar    1  UNL1       -0.0003
     27 C           3.7461   -3.6946   18.9854 C.ar    1  UNL1       -0.0000
     28 C           4.2864   -4.6302   20.0258 C.ar    1  UNL1       -0.0003
     29 C           4.4824   -4.1531   21.4344 C.ar    1  UNL1       -0.0027
     30 C           3.5375   -0.6282   25.0663 C.3     1  UNL1        0.0021
     31 C           3.8285   -0.9122   23.6224 C.3     1  UNL1        0.0241
@<TRIPOS>BOND
     1    30    31    1
     2    23    31    1
     3    23    19    1
     4    19    20   am
     5    20    21    2
     6    20     1    1
     7     1     2   ar
     8     2     3    1
     9     2     4   ar
    10     4    13    1
    11    13    14   ar
    12    14    15   ar
    13    15    16   ar
    14    16    17   ar
    15    17    18   ar
    16     4     5   ar
    17     5     6   ar
    18     6     7   ar
    19     7     8   ar
    20     8     9   ar
    21     9    10   ar
    22    10    11   ar
    23    23    24    1
    24    24    25   ar
    25    25    26   ar
    26    26    27   ar
    27    27    28   ar
    28    28    29   ar
    29    11     1   ar
    30    29    24   ar
    31    18    13   ar
    32    11     6   ar
    33    19    22    1
    34     3    12    1
@<TRIPOS>MOLECULE
*****
 31 34 0 0 0
SMALL
GASTEIGER

@<TRIPOS>ATOM
      1 C          -7.4603  -18.5938   21.5240 C.ar    1  UNL1        0.0899
      2 C          -5.9675  -18.4755   21.4370 C.ar    1  UNL1        0.1555
      3 O          -5.2053  -17.7823   22.5273 O.3     1  UNL1       -0.5039
      4 C          -5.2369  -19.0503   20.2598 C.ar    1  UNL1        0.1149
      5 N          -5.9990  -19.7434   19.1696 N.ar    1  UNL1       -0.2423
      6 C          -7.4919  -19.8617   19.2565 C.ar    1  UNL1        0.0816
      7 C          -8.2540  -20.5549   18.1663 C.ar    1  UNL1        0.0191
      8 C          -9.7468  -20.6732   18.2533 C.ar    1  UNL1        0.0015
      9 C         -10.4774  -20.0983   19.4305 C.ar    1  UNL1        0.0001
     10 C          -9.7153  -19.4052   20.5207 C.ar    1  UNL1        0.0017
     11 C          -8.2225  -19.2869   20.4337 C.ar    1  UNL1        0.0250
     12 H          -5.6616  -17.4232   23.2627 H       1  UNL1        0.2923
     13 C          -3.7440  -18.9320   20.1729 C.ar    1  UNL1        0.0206
     14 C          -2.8763  -19.6379   21.1722 C.ar    1  UNL1        0.0016
     15 C          -1.3835  -19.5195   21.0853 C.ar    1  UNL1        0.0000
     16 C          -0.7585  -18.6953   19.9990 C.ar    1  UNL1        0.0000
     17 C          -1.6263  -17.9893   18.9997 C.ar    1  UNL1        0.0000
     18 C          -3.1190  -18.1077   19.0867 C.ar    1  UNL1        0.0016
     19 N          -8.2649  -16.5321   22.8849 N.am    1  UNL1       -0.2986
     20 C          -8.1909  -18.0189   22.7012 C.2     1  UNL1        0.2491
     21 O          -8.8475  -18.9310   23.6947 O.2     1  UNL1       -0.2700
     22 H          -7.8339  -15.9335   22.2329 H       1  UNL1        0.1500
     23 C          -8.9955  -15.9573   24.0621 C.3     1  UNL1        0.0943
     24 C          -8.2447  -15.6061   25.3123 C.ar    1  UNL1       -0.0045
     25 C          -6.7461  -15.5422   25.2942 C.ar    1  UNL1       -0.0027
     26 C          -5.9953  -15.1911   26.5444 C.ar    1  UNL1       -0.0003
     27 C          -6.7430  -14.9037   27.8126 C.ar    1  UNL1       -0.0000
     28 C          -8.2415  -14.9676   27.8307 C.ar    1  UNL1       -0.0003
     29 C          -8.9924  -15.3188   26.5805 C.ar    1  UNL1       -0.0027
     30 C         -11.2630  -16.2864   22.8373 C.3     1  UNL1        0.0021
     31 C         -10.4770  -15.7336   23.9891 C.3     1  UNL1        0.0241
@<TRIPOS>BOND
     1    30    31    1
     2    23    31    1
     3    23    19    1
     4    19    20   am
     5    20    21    2
     6    20     1    1
     7     1     2   ar
     8     2     3    1
     9     2     4   ar
    10     4    13    1
    11    13    14   ar
    12    14    15   ar
    13    15    16   ar
    14    16    17   ar
    15    17    18   ar
    16     4     5   ar
    17     5     6   ar
    18     6     7   ar
    19     7     8   ar
    20     8     9   ar
    21     9    10   ar
    22    10    11   ar
    23    23    24    1
    24    24    25   ar
    25    25    26   ar
    26    26    27   ar
    27    27    28   ar
    28    28    29   ar
    29    11     1   ar
    30    29    24   ar
    31    18    13   ar
    32    11     6   ar
    33    19    22    1
    34     3    12    1
@<TRIPOS>MOLECULE
*****
 31 34 0 0 0
SMALL
GASTEIGER

@<TRIPOS>ATOM
      1 C           6.2986   -3.6038   24.9140 C.ar    1  UNL1        0.0899
      2 C           6.2121   -3.7626   23.4250 C.ar    1  UNL1        0.1555
      3 O           7.0071   -4.8328   22.7374 O.3     1  UNL1       -0.5039
      4 C           5.3306   -2.8512   22.6235 C.ar    1  UNL1        0.1149
      5 N           4.5356   -1.7810   23.3110 N.ar    1  UNL1       -0.2423
      6 C           4.6221   -1.6222   24.8001 C.ar    1  UNL1        0.0816
      7 C           3.8272   -0.5520   25.4877 C.ar    1  UNL1        0.0191
      8 C           3.9137   -0.3932   26.9767 C.ar    1  UNL1        0.0015
      9 C           4.7952   -1.3046   27.7782 C.ar    1  UNL1        0.0001
     10 C           5.5902   -2.3748   27.0907 C.ar    1  UNL1        0.0017
     11 C           5.5036   -2.5336   25.6016 C.ar    1  UNL1        0.0250
     12 H           7.5577   -5.4021   23.2380 H       1  UNL1        0.2923
     13 C           5.2441   -3.0101   21.1344 C.ar    1  UNL1        0.0206
     14 C           4.2925   -4.0058   20.5404 C.ar    1  UNL1        0.0016
     15 C           4.2060   -4.1646   19.0514 C.ar    1  UNL1        0.0000
     16 C           5.0712   -3.3277   18.1563 C.ar    1  UNL1        0.0000
     17 C           6.0228   -2.3319   18.7503 C.ar    1  UNL1        0.0000
     18 C           6.1092   -2.1731   20.2394 C.ar    1  UNL1        0.0016
     19 N           6.6299   -5.7972   26.2664 N.am    1  UNL1       -0.2986
     20 C           7.1801   -4.5151   25.7155 C.2     1  UNL1        0.2491
     21 O           8.6118   -4.1444   25.9661 O.2     1  UNL1       -0.2700
     22 H           5.6902   -6.0406   26.1019 H       1  UNL1        0.1500
     23 C           7.5114   -6.7086   27.0679 C.3     1  UNL1        0.0943
     24 C           7.7467   -6.4350   28.5238 C.ar    1  UNL1       -0.0045
     25 C           8.9395   -7.0264   29.2149 C.ar    1  UNL1       -0.0027
     26 C           9.1748   -6.7528   30.6708 C.ar    1  UNL1       -0.0003
     27 C           8.2174   -5.8879   31.4357 C.ar    1  UNL1       -0.0000
     28 C           7.0246   -5.2965   30.7447 C.ar    1  UNL1       -0.0003
     29 C           6.7892   -5.5700   29.2887 C.ar    1  UNL1       -0.0027
     30 C           8.6539   -7.7925   25.0015 C.3     1  UNL1        0.0021
     31 C           8.1576   -7.8936   26.4134 C.3     1  UNL1        0.0241
@<TRIPOS>BOND
     1    30    31    1
     2    23    31    1
     3    23    19    1
     4    19    20   am
     5    20    21    2
     6    20     1    1
     7     1     2   ar
     8     2     3    1
     9     2     4   ar
    10     4    13    1
    11    13    14   ar
    12    14    15   ar
    13    15    16   ar
    14    16    17   ar
    15    17    18   ar
    16     4     5   ar
    17     5     6   ar
    18     6     7   ar
    19     7     8   ar
    20     8     9   ar
    21     9    10   ar
    22    10    11   ar
    23    23    24    1
    24    24    25   ar
    25    25    26   ar
    26    26    27   ar
    27    27    28   ar
    28    28    29   ar
    29    11     1   ar
    30    29    24   ar
    31    18    13   ar
    32    11     6   ar
    33    19    22    1
    34     3    12    1
@<TRIPOS>MOLECULE
*****
 31 34 0 0 0
SMALL
GASTEIGER

@<TRIPOS>ATOM
      1 C           4.1380   -1.1742   26.3232 C.ar    1  UNL1        0.0899
      2 C           3.7868   -1.3811   24.8797 C.ar    1  UNL1        0.1555
      3 O           2.5642   -0.7296   24.3044 O.3     1  UNL1       -0.5039
      4 C           4.6581   -2.2395   24.0114 C.ar    1  UNL1        0.1149
      5 N           5.8807   -2.8909   24.5866 N.ar    1  UNL1       -0.2423
      6 C           6.2319   -2.6841   26.0302 C.ar    1  UNL1        0.0816
      7 C           7.4545   -3.3356   26.6054 C.ar    1  UNL1        0.0191
      8 C           7.8057   -3.1287   28.0489 C.ar    1  UNL1        0.0015
      9 C           6.9343   -2.2703   28.9172 C.ar    1  UNL1        0.0001
     10 C           5.7118   -1.6189   28.3420 C.ar    1  UNL1        0.0017
     11 C           5.3606   -1.8257   26.8985 C.ar    1  UNL1        0.0250
     12 H           2.0199   -0.1935   24.8468 H       1  UNL1        0.2923
     13 C           4.3069   -2.4463   22.5678 C.ar    1  UNL1        0.0206
     14 C           4.5357   -3.7818   21.9241 C.ar    1  UNL1        0.0016
     15 C           4.1844   -3.9886   20.4806 C.ar    1  UNL1        0.0000
     16 C           3.6044   -2.8600   19.6807 C.ar    1  UNL1        0.0000
     17 C           3.3757   -1.5245   20.3243 C.ar    1  UNL1        0.0000
     18 C           3.7269   -1.3177   21.7679 C.ar    1  UNL1        0.0016
     19 N           2.1479   -0.9346   27.9762 N.am    1  UNL1       -0.2986
     20 C           3.2666   -0.3159   27.1915 C.2     1  UNL1        0.2491
     21 O           3.5140    1.1613   27.2751 O.2     1  UNL1       -0.2700
     22 H           1.9856   -1.9041   27.9213 H       1  UNL1        0.1500
     23 C           1.2766   -0.0763   28.8445 C.3     1  UNL1        0.0943
     24 C           1.7734    0.3852   30.1824 C.ar    1  UNL1       -0.0045
     25 C           1.2127    1.6311   30.8018 C.ar    1  UNL1       -0.0027
     26 C           1.7094    2.0926   32.1397 C.ar    1  UNL1       -0.0003
     27 C           2.7669    1.3082   32.8584 C.ar    1  UNL1       -0.0000
     28 C           3.3276    0.0624   32.2392 C.ar    1  UNL1       -0.0003
     29 C           2.8309   -0.3991   30.9012 C.ar    1  UNL1       -0.0027
     30 C          -1.2896   -0.4793   28.7933 C.3     1  UNL1        0.0021
     31 C          -0.0916    0.3206   28.3748 C.3     1  UNL1        0.0241
@<TRIPOS>BOND
     1    30    31    1
     2    23    31    1
     3    23    19    1
     4    19    20   am
     5    20    21    2
     6    20     1    1
     7     1     2   ar
     8     2     3    1
     9     2     4   ar
    10     4    13    1
    11    13    14   ar
    12    14    15   ar
    13    15    16   ar
    14    16    17   ar
    15    17    18   ar
    16     4     5   ar
    17     5     6   ar
    18     6     7   ar
    19     7     8   ar
    20     8     9   ar
    21     9    10   ar
    22    10    11   ar
    23    23    24    1
    24    24    25   ar
    25    25    26   ar
    26    26    27   ar
    27    27    28   ar
    28    28    29   ar
    29    11     1   ar
    30    29    24   ar
    31    18    13   ar
    32    11     6   ar
    33    19    22    1
    34     3    12    1
@<TRIPOS>MOLECULE
*****
 31 34 0 0 0
SMALL
GASTEIGER

@<TRIPOS>ATOM
      1 C           4.2947   -2.0404   23.5499 C.ar    1  UNL1        0.0899
      2 C           4.3674   -1.6548   24.9976 C.ar    1  UNL1        0.1555
      3 O           5.2658   -2.4109   25.9310 O.3     1  UNL1       -0.5039
      4 C           3.5417   -0.5131   25.5121 C.ar    1  UNL1        0.1149
      5 N           2.6433    0.2430   24.5788 N.ar    1  UNL1       -0.2423
      6 C           2.5705   -0.1426   23.1309 C.ar    1  UNL1        0.0816
      7 C           1.6721    0.6136   22.1976 C.ar    1  UNL1        0.0191
      8 C           1.5994    0.2280   20.7499 C.ar    1  UNL1        0.0015
      9 C           2.4252   -0.9138   20.2355 C.ar    1  UNL1        0.0001
     10 C           3.3236   -1.6699   21.1688 C.ar    1  UNL1        0.0017
     11 C           3.3963   -1.2843   22.6165 C.ar    1  UNL1        0.0250
     12 H           5.7816   -3.1242   25.6097 H       1  UNL1        0.2923
     13 C           3.6144   -0.1275   26.9599 C.ar    1  UNL1        0.0206
     14 C           4.4785    1.0216   27.3875 C.ar    1  UNL1        0.0016
     15 C           4.5512    1.4072   28.8352 C.ar    1  UNL1        0.0000
     16 C           3.7598    0.6436   29.8554 C.ar    1  UNL1        0.0000
     17 C           2.8958   -0.5055   29.4278 C.ar    1  UNL1        0.0000
     18 C           2.8231   -0.8910   27.9800 C.ar    1  UNL1        0.0016
     19 N           6.6144   -3.1453   23.1647 N.am    1  UNL1       -0.2986
     20 C           5.1204   -3.1822   23.0355 C.2     1  UNL1        0.2491
     21 O           4.4521   -4.3608   22.3918 O.2     1  UNL1       -0.2700
     22 H           7.0530   -2.3717   23.5871 H       1  UNL1        0.1500
     23 C           7.4401   -4.2870   22.6502 C.3     1  UNL1        0.0943
     24 C           7.8241   -5.4086   23.5691 C.ar    1  UNL1       -0.0045
     25 C           8.7075   -6.5151   23.0737 C.ar    1  UNL1       -0.0027
     26 C           9.0916   -7.6367   23.9926 C.ar    1  UNL1       -0.0003
     27 C           8.5923   -7.6520   25.4070 C.ar    1  UNL1       -0.0000
     28 C           7.7090   -6.5456   25.9024 C.ar    1  UNL1       -0.0003
     29 C           7.3249   -5.4239   24.9835 C.ar    1  UNL1       -0.0027
     30 C           7.3441   -3.2920   20.2521 C.3     1  UNL1        0.0021
     31 C           7.8817   -4.3071   21.2168 C.3     1  UNL1        0.0241
@<TRIPOS>BOND
     1    30    31    1
     2    23    31    1
     3    23    19    1
     4    19    20   am
     5    20    21    2
     6    20     1    1
     7     1     2   ar
     8     2     3    1
     9     2     4   ar
    10     4    13    1
    11    13    14   ar
    12    14    15   ar
    13    15    16   ar
    14    16    17   ar
    15    17    18   ar
    16     4     5   ar
    17     5     6   ar
    18     6     7   ar
    19     7     8   ar
    20     8     9   ar
    21     9    10   ar
    22    10    11   ar
    23    23    24    1
    24    24    25   ar
    25    25    26   ar
    26    26    27   ar
    27    27    28   ar
    28    28    29   ar
    29    11     1   ar
    30    29    24   ar
    31    18    13   ar
    32    11     6   ar
    33    19    22    1
    34     3    12    1
@<TRIPOS>MOLECULE
*****
 31 34 0 0 0
SMALL
GASTEIGER

@<TRIPOS>ATOM
      1 C          -6.5593  -17.3369   23.0200 C.ar    1  UNL1        0.0899
      2 C          -5.3358  -17.6606   22.2149 C.ar    1  UNL1        0.1555
      3 O          -5.4590  -18.4606   20.9519 O.3     1  UNL1       -0.5039
      4 C          -3.9891  -17.1843   22.6726 C.ar    1  UNL1        0.1149
      5 N          -3.8658  -16.3844   23.9355 N.ar    1  UNL1       -0.2423
      6 C          -5.0893  -16.0607   24.7407 C.ar    1  UNL1        0.0816
      7 C          -4.9661  -15.2607   26.0035 C.ar    1  UNL1        0.0191
      8 C          -6.1896  -14.9370   26.8086 C.ar    1  UNL1        0.0015
      9 C          -7.5363  -15.4133   26.3509 C.ar    1  UNL1        0.0001
     10 C          -7.6595  -16.2132   25.0881 C.ar    1  UNL1        0.0017
     11 C          -6.4361  -16.5369   24.2829 C.ar    1  UNL1        0.0250
     12 H          -6.3002  -18.7581   20.6660 H       1  UNL1        0.2923
     13 C          -2.7655  -17.5080   21.8674 C.ar    1  UNL1        0.0206
     14 C          -1.9271  -16.4016   21.2993 C.ar    1  UNL1        0.0016
     15 C          -0.7037  -16.7253   20.4942 C.ar    1  UNL1        0.0000
     16 C          -0.3186  -18.1556   20.2571 C.ar    1  UNL1        0.0000
     17 C          -1.1570  -19.2620   20.8252 C.ar    1  UNL1        0.0000
     18 C          -2.3805  -18.9383   21.6304 C.ar    1  UNL1        0.0016
     19 N          -8.8823  -18.3695   23.5558 N.am    1  UNL1       -0.2986
     20 C          -7.9060  -17.8132   22.5623 C.2     1  UNL1        0.2491
     21 O          -8.2764  -17.7331   21.1109 O.2     1  UNL1       -0.2700
     22 H          -8.6392  -18.4221   24.5084 H       1  UNL1        0.1500
     23 C         -10.2290  -18.8458   23.0981 C.3     1  UNL1        0.0943
     24 C         -11.0835  -17.9639   22.2367 C.ar    1  UNL1       -0.0045
     25 C         -11.8620  -16.8398   22.8536 C.ar    1  UNL1       -0.0027
     26 C         -12.7164  -15.9580   21.9922 C.ar    1  UNL1       -0.0003
     27 C         -12.7924  -16.2000   20.5138 C.ar    1  UNL1       -0.0000
     28 C         -12.0140  -17.3240   19.8968 C.ar    1  UNL1       -0.0003
     29 C         -11.1595  -18.2060   20.7583 C.ar    1  UNL1       -0.0027
     30 C          -9.9404  -21.0225   24.4869 C.3     1  UNL1        0.0021
     31 C         -10.7213  -20.2040   23.5019 C.3     1  UNL1        0.0241
@<TRIPOS>BOND
     1    30    31    1
     2    23    31    1
     3    23    19    1
     4    19    20   am
     5    20    21    2
     6    20     1    1
     7     1     2   ar
     8     2     3    1
     9     2     4   ar
    10     4    13    1
    11    13    14   ar
    12    14    15   ar
    13    15    16   ar
    14    16    17   ar
    15    17    18   ar
    16     4     5   ar
    17     5     6   ar
    18     6     7   ar
    19     7     8   ar
    20     8     9   ar
    21     9    10   ar
    22    10    11   ar
    23    23    24    1
    24    24    25   ar
    25    25    26   ar
    26    26    27   ar
    27    27    28   ar
    28    28    29   ar
    29    11     1   ar
    30    29    24   ar
    31    18    13   ar
    32    11     6   ar
    33    19    22    1
    34     3    12    1
