@<TRIPOS>MOLECULE
*****
 29 31 0 0 0
SMALL
GASTEIGER

@<TRIPOS>ATOM
      1 C          -5.8059  -16.8467   23.7636 C.ar    1  UNL1        0.1790
      2 C          -6.3381  -17.7824   22.7189 C.ar    1  UNL1        0.0406
      3 C          -7.8181  -17.9727   22.5663 C.ar    1  UNL1        0.0034
      4 C          -8.7660  -17.2273   23.4584 C.ar    1  UNL1        0.0039
      5 C          -8.2339  -16.2917   24.5031 C.ar    1  UNL1        0.0401
      6 C          -6.7538  -16.1014   24.6557 C.ar    1  UNL1        0.1730
      7 C         -10.2461  -17.4176   23.3058 C.2     1  UNL1        0.0113
      8 C         -10.9503  -16.8812   22.0949 C.2     1  UNL1        0.0873
      9 S         -10.3105  -16.1376   20.9601 S.3     1  UNL1       -0.0254
     10 C         -11.3828  -15.7911   19.9700 C.2     1  UNL1        0.2832
     11 O         -11.1870  -15.0460   18.6830 O.2     1  UNL1       -0.2622
     12 N         -12.6852  -16.3205   20.4929 N.am    1  UNL1       -0.2425
     13 C         -12.4179  -16.9943   21.8062 C.2     1  UNL1        0.2583
     14 O         -13.4390  -17.6635   22.6777 O.2     1  UNL1       -0.2692
     15 H         -13.5616  -16.2399   20.0516 H       1  UNL1        0.1587
     16 O          -6.2217  -15.1657   25.7004 O.3     1  UNL1       -0.4684
     17 C          -6.5622  -15.3827   27.1450 C.3     1  UNL1        0.2526
     18 O          -4.3259  -16.6565   23.9161 O.3     1  UNL1       -0.4496
     19 C          -1.5528  -17.7994   20.5615 C.ar    1  UNL1        0.0767
     20 C          -1.6549  -16.3672   20.9952 C.ar    1  UNL1        0.0096
     21 C          -2.5792  -15.9862   22.1134 C.ar    1  UNL1        0.0386
     22 C          -3.4015  -17.0375   22.7979 C.ar    1  UNL1        0.1559
     23 C          -3.2995  -18.4697   22.3642 C.ar    1  UNL1        0.0923
     24 CL         -4.1218  -19.5211   23.0487 Cl      1  UNL1       -0.0791
     25 C          -2.3751  -18.8507   21.2460 C.ar    1  UNL1        0.0209
     26 C          -0.6284  -18.1804   19.4433 C.2     1  UNL1        0.3414
     27 O           0.6459  -18.9138   19.7404 O.2     1  UNL1       -0.2449
     28 C          -2.3737  -17.3971   17.6853 C.3     1  UNL1        0.2560
     29 O          -0.9784  -17.8281   18.0279 O.3     1  UNL1       -0.4413
@<TRIPOS>BOND
     1    28    29    1
     2    29    26    1
     3    26    27    2
     4    26    19    1
     5    19    20   ar
     6    20    21   ar
     7    21    22   ar
     8    22    18    1
     9    18     1    1
    10     1     2   ar
    11     2     3   ar
    12     3     4   ar
    13     4     7    1
    14     7     8    2
    15     8     9    1
    16     9    10    1
    17    10    11    2
    18    10    12   am
    19    12    13   am
    20    13    14    2
    21     4     5   ar
    22     5     6   ar
    23     6    16    1
    24    16    17    1
    25    22    23   ar
    26    23    24    1
    27    23    25   ar
    28    25    19   ar
    29     6     1   ar
    30    13     8    1
    31    12    15    1
@<TRIPOS>MOLECULE
*****
 29 31 0 0 0
SMALL
GASTEIGER

@<TRIPOS>ATOM
      1 C          -6.0689  -17.1752   23.1300 C.ar    1  UNL1        0.1790
      2 C          -6.6492  -18.2270   22.2316 C.ar    1  UNL1        0.0406
      3 C          -8.0345  -18.0617   21.6806 C.ar    1  UNL1        0.0034
      4 C          -8.8395  -16.8446   22.0280 C.ar    1  UNL1        0.0039
      5 C          -8.2593  -15.7929   22.9263 C.ar    1  UNL1        0.0401
      6 C          -6.8739  -15.9582   23.4773 C.ar    1  UNL1        0.1730
      7 C         -10.2249  -16.6793   21.4770 C.2     1  UNL1        0.0113
      8 C         -11.4065  -17.1732   22.2580 C.2     1  UNL1        0.0873
      9 S         -11.3588  -17.8485   23.5966 S.3     1  UNL1       -0.0254
     10 C         -12.7661  -18.1711   24.0033 C.2     1  UNL1        0.2832
     11 O         -13.1828  -18.8504   25.2741 O.2     1  UNL1       -0.2622
     12 N         -13.6836  -17.6951   22.9162 N.am    1  UNL1       -0.2425
     13 C         -12.8433  -17.0784   21.8375 C.2     1  UNL1        0.2583
     14 O         -13.3507  -16.4731   20.5623 O.2     1  UNL1       -0.2692
     15 H         -14.6649  -17.7737   22.9115 H       1  UNL1        0.1587
     16 O          -6.2936  -14.9064   24.3756 O.3     1  UNL1       -0.4684
     17 C          -6.3016  -15.1025   25.8628 C.3     1  UNL1        0.2526
     18 O          -4.6836  -17.3406   23.6809 O.3     1  UNL1       -0.4496
     19 C          -1.1785  -17.7097   20.8830 C.ar    1  UNL1        0.0767
     20 C          -1.5690  -16.3658   21.4229 C.ar    1  UNL1        0.0096
     21 C          -2.7373  -16.2428   22.3555 C.ar    1  UNL1        0.0386
     22 C          -3.5153  -17.4636   22.7483 C.ar    1  UNL1        0.1559
     23 C          -3.1248  -18.8075   22.2084 C.ar    1  UNL1        0.0923
     24 CL         -3.9027  -20.0284   22.6012 Cl      1  UNL1       -0.0791
     25 C          -1.9565  -18.9305   21.2758 C.ar    1  UNL1        0.0209
     26 C          -0.0102  -17.8327   19.9504 C.2     1  UNL1        0.3414
     27 O           1.3883  -17.7999   20.4917 O.2     1  UNL1       -0.2449
     28 C          -1.5850  -17.6755   17.8900 C.3     1  UNL1        0.2560
     29 O          -0.2403  -17.9885   18.4764 O.3     1  UNL1       -0.4413
@<TRIPOS>BOND
     1    28    29    1
     2    29    26    1
     3    26    27    2
     4    26    19    1
     5    19    20   ar
     6    20    21   ar
     7    21    22   ar
     8    22    18    1
     9    18     1    1
    10     1     2   ar
    11     2     3   ar
    12     3     4   ar
    13     4     7    1
    14     7     8    2
    15     8     9    1
    16     9    10    1
    17    10    11    2
    18    10    12   am
    19    12    13   am
    20    13    14    2
    21     4     5   ar
    22     5     6   ar
    23     6    16    1
    24    16    17    1
    25    22    23   ar
    26    23    24    1
    27    23    25   ar
    28    25    19   ar
    29     6     1   ar
    30    13     8    1
    31    12    15    1
@<TRIPOS>MOLECULE
*****
 29 31 0 0 0
SMALL
GASTEIGER

@<TRIPOS>ATOM
      1 C           0.7614    2.0160   21.0966 C.ar    1  UNL1        0.1790
      2 C           0.2358    0.9702   20.1585 C.ar    1  UNL1        0.0406
      3 C           0.9448   -0.3453   20.0285 C.ar    1  UNL1        0.0034
      4 C           2.1794   -0.6149   20.8367 C.ar    1  UNL1        0.0039
      5 C           2.7050    0.4308   21.7748 C.ar    1  UNL1        0.0401
      6 C           1.9960    1.7463   21.9048 C.ar    1  UNL1        0.1730
      7 C           2.8884   -1.9304   20.7066 C.2     1  UNL1        0.0113
      8 C           4.0225   -2.0785   19.7361 C.2     1  UNL1        0.0873
      9 S           4.5565   -1.0057   18.8338 S.3     1  UNL1       -0.0254
     10 C           5.6858   -1.5895   18.0376 C.2     1  UNL1        0.2832
     11 O           6.5070   -0.8667   17.0114 O.2     1  UNL1       -0.2622
     12 N           5.8497   -3.0230   18.4478 N.am    1  UNL1       -0.2425
     13 C           4.8217   -3.3252   19.4975 C.2     1  UNL1        0.2583
     14 O           4.6271   -4.6428   20.1875 O.2     1  UNL1       -0.2692
     15 H           6.5151   -3.6547   18.0907 H       1  UNL1        0.1587
     16 O           2.5216    2.7921   22.8429 O.3     1  UNL1       -0.4684
     17 C           2.3988    2.5997   24.3254 C.3     1  UNL1        0.2526
     18 O           0.0524    3.3314   21.2266 O.3     1  UNL1       -0.4496
     19 C          -3.7353    3.6172   23.6393 C.ar    1  UNL1        0.0767
     20 C          -2.4082    3.5359   24.3336 C.ar    1  UNL1        0.0096
     21 C          -1.1456    3.4407   23.5294 C.ar    1  UNL1        0.0386
     22 C          -1.2102    3.4267   22.0308 C.ar    1  UNL1        0.1559
     23 C          -2.5373    3.5080   21.3366 C.ar    1  UNL1        0.0923
     24 CL         -2.6019    3.4941   19.8380 Cl      1  UNL1       -0.0791
     25 C          -3.7999    3.6033   22.1408 C.ar    1  UNL1        0.0209
     26 C          -4.9979    3.7125   24.4435 C.2     1  UNL1        0.3414
     27 O          -6.3107    3.9402   23.7545 O.2     1  UNL1       -0.2449
     28 C          -4.8069    4.8031   26.7939 C.3     1  UNL1        0.2560
     29 O          -4.9478    3.5801   25.9368 O.3     1  UNL1       -0.4413
@<TRIPOS>BOND
     1    28    29    1
     2    29    26    1
     3    26    27    2
     4    26    19    1
     5    19    20   ar
     6    20    21   ar
     7    21    22   ar
     8    22    18    1
     9    18     1    1
    10     1     2   ar
    11     2     3   ar
    12     3     4   ar
    13     4     7    1
    14     7     8    2
    15     8     9    1
    16     9    10    1
    17    10    11    2
    18    10    12   am
    19    12    13   am
    20    13    14    2
    21     4     5   ar
    22     5     6   ar
    23     6    16    1
    24    16    17    1
    25    22    23   ar
    26    23    24    1
    27    23    25   ar
    28    25    19   ar
    29     6     1   ar
    30    13     8    1
    31    12    15    1
@<TRIPOS>MOLECULE
*****
 29 31 0 0 0
SMALL
GASTEIGER

@<TRIPOS>ATOM
      1 C           0.6674    2.5540   22.1940 C.ar    1  UNL1        0.1790
      2 C           2.1554    2.3664   22.1685 C.ar    1  UNL1        0.0406
      3 C           2.8131    1.7492   20.9700 C.ar    1  UNL1        0.0034
      4 C           1.9829    1.3196   19.7970 C.ar    1  UNL1        0.0039
      5 C           0.4949    1.5071   19.8224 C.ar    1  UNL1        0.0401
      6 C          -0.1629    2.1244   21.0209 C.ar    1  UNL1        0.1730
      7 C           2.6406    0.7023   18.5985 C.2     1  UNL1        0.0113
      8 C           3.2050   -0.6848   18.6839 C.2     1  UNL1        0.0873
      9 S           3.1859   -1.5715   19.8938 S.3     1  UNL1       -0.0254
     10 C           3.8567   -2.8635   19.5321 C.2     1  UNL1        0.2832
     11 O           4.0584   -4.0375   20.4438 O.2     1  UNL1       -0.2622
     12 N           4.2904   -2.7754   18.0989 N.am    1  UNL1       -0.2425
     13 C           3.8876   -1.4289   17.5747 C.2     1  UNL1        0.2583
     14 O           4.1257   -0.9165   16.1852 O.2     1  UNL1       -0.2692
     15 H           4.7574   -3.4780   17.5914 H       1  UNL1        0.1587
     16 O          -1.6509    2.3120   21.0464 O.3     1  UNL1       -0.4684
     17 C          -2.2836    3.4008   20.2315 C.3     1  UNL1        0.2526
     18 O           0.0097    3.1713   23.3925 O.3     1  UNL1       -0.4496
     19 C           0.1916    1.0921   27.3792 C.ar    1  UNL1        0.0767
     20 C           1.3656    1.0315   26.4475 C.ar    1  UNL1        0.0096
     21 C           1.3049    1.7246   25.1186 C.ar    1  UNL1        0.0386
     22 C           0.0703    2.4782   24.7214 C.ar    1  UNL1        0.1559
     23 C          -1.1036    2.5388   25.6531 C.ar    1  UNL1        0.0923
     24 CL         -2.3383    3.2924   25.2559 Cl      1  UNL1       -0.0791
     25 C          -1.0430    1.8457   26.9820 C.ar    1  UNL1        0.0209
     26 C           0.2523    0.3990   28.7081 C.2     1  UNL1        0.3414
     27 O          -0.8399    0.6097   29.7144 O.2     1  UNL1       -0.2449
     28 C           2.2871   -0.2048   30.2064 C.3     1  UNL1        0.2560
     29 O           1.4051   -0.5047   29.0307 O.3     1  UNL1       -0.4413
@<TRIPOS>BOND
     1    28    29    1
     2    29    26    1
     3    26    27    2
     4    26    19    1
     5    19    20   ar
     6    20    21   ar
     7    21    22   ar
     8    22    18    1
     9    18     1    1
    10     1     2   ar
    11     2     3   ar
    12     3     4   ar
    13     4     7    1
    14     7     8    2
    15     8     9    1
    16     9    10    1
    17    10    11    2
    18    10    12   am
    19    12    13   am
    20    13    14    2
    21     4     5   ar
    22     5     6   ar
    23     6    16    1
    24    16    17    1
    25    22    23   ar
    26    23    24    1
    27    23    25   ar
    28    25    19   ar
    29     6     1   ar
    30    13     8    1
    31    12    15    1
@<TRIPOS>MOLECULE
*****
 29 31 0 0 0
SMALL
GASTEIGER

@<TRIPOS>ATOM
      1 C           1.4320    1.0055   22.6427 C.ar    1  UNL1        0.1790
      2 C           2.6352    0.2799   23.1679 C.ar    1  UNL1        0.0406
      3 C           3.2495   -0.8306   22.3684 C.ar    1  UNL1        0.0034
      4 C           2.6606   -1.2157   21.0436 C.ar    1  UNL1        0.0039
      5 C           1.4574   -0.4902   20.5184 C.ar    1  UNL1        0.0401
      6 C           0.8431    0.6205   21.3179 C.ar    1  UNL1        0.1730
      7 C           3.2750   -2.3263   20.2441 C.2     1  UNL1        0.0113
      8 C           4.4945   -2.0647   19.4108 C.2     1  UNL1        0.0873
      9 S           5.2069   -0.7513   19.2786 S.3     1  UNL1       -0.0254
     10 C           6.3684   -0.9455   18.3494 C.2     1  UNL1        0.2832
     11 O           7.3518    0.1086   17.9350 O.2     1  UNL1       -0.2622
     12 N           6.3737   -2.3789   17.9073 N.am    1  UNL1       -0.2425
     13 C           5.2156   -3.0706   18.5633 C.2     1  UNL1        0.2583
     14 O           4.8439   -4.5146   18.4004 O.2     1  UNL1       -0.2692
     15 H           7.0233   -2.7930   17.2943 H       1  UNL1        0.1587
     16 O          -0.3601    1.3460   20.7927 O.3     1  UNL1       -0.4684
     17 C          -0.1862    2.5406   19.9025 C.3     1  UNL1        0.2526
     18 O           0.8177    2.1160   23.4422 O.3     1  UNL1       -0.4496
     19 C           0.7606    1.8882   27.9361 C.ar    1  UNL1        0.0767
     20 C          -0.2973    1.1877   27.1361 C.ar    1  UNL1        0.0096
     21 C          -0.2783    1.2636   25.6381 C.ar    1  UNL1        0.0386
     22 C           0.7986    2.0401   24.9402 C.ar    1  UNL1        0.1559
     23 C           1.8565    2.7406   25.7401 C.ar    1  UNL1        0.0923
     24 CL          2.9336    3.5172   25.0421 Cl      1  UNL1       -0.0791
     25 C           1.8375    2.6647   27.2381 C.ar    1  UNL1        0.0209
     26 C           0.7415    1.8123   29.4340 C.2     1  UNL1        0.3414
     27 O           0.6296    3.0677   30.2473 O.2     1  UNL1       -0.2449
     28 C           2.0465   -0.3806   29.9220 C.3     1  UNL1        0.2560
     29 O           0.8345    0.4810   30.1187 O.3     1  UNL1       -0.4413
@<TRIPOS>BOND
     1    28    29    1
     2    29    26    1
     3    26    27    2
     4    26    19    1
     5    19    20   ar
     6    20    21   ar
     7    21    22   ar
     8    22    18    1
     9    18     1    1
    10     1     2   ar
    11     2     3   ar
    12     3     4   ar
    13     4     7    1
    14     7     8    2
    15     8     9    1
    16     9    10    1
    17    10    11    2
    18    10    12   am
    19    12    13   am
    20    13    14    2
    21     4     5   ar
    22     5     6   ar
    23     6    16    1
    24    16    17    1
    25    22    23   ar
    26    23    24    1
    27    23    25   ar
    28    25    19   ar
    29     6     1   ar
    30    13     8    1
    31    12    15    1
@<TRIPOS>MOLECULE
*****
 29 31 0 0 0
SMALL
GASTEIGER

@<TRIPOS>ATOM
      1 C           1.0024    2.0877   21.2275 C.ar    1  UNL1        0.1790
      2 C           1.8144    1.2674   22.1856 C.ar    1  UNL1        0.0406
      3 C           2.3728   -0.0560   21.7535 C.ar    1  UNL1        0.0034
      4 C           2.1192   -0.5592   20.3634 C.ar    1  UNL1        0.0039
      5 C           1.3072    0.2610   19.4053 C.ar    1  UNL1        0.0401
      6 C           0.7488    1.5845   19.8374 C.ar    1  UNL1        0.1730
      7 C           2.6776   -1.8827   19.9313 C.2     1  UNL1        0.0113
      8 C           3.9710   -1.9396   19.1736 C.2     1  UNL1        0.0873
      9 S           4.8136   -0.7633   18.7780 S.3     1  UNL1       -0.0254
     10 C           6.0121   -1.2796   18.0384 C.2     1  UNL1        0.2832
     11 O           7.1183   -0.4468   17.4615 O.2     1  UNL1       -0.2622
     12 N           5.9103   -2.7749   17.9769 N.am    1  UNL1       -0.2425
     13 C           4.6488   -3.1828   18.6785 C.2     1  UNL1        0.2583
     14 O           4.1522   -4.5873   18.8542 O.2     1  UNL1       -0.2692
     15 H           6.5577   -3.3820   17.5509 H       1  UNL1        0.1587
     16 O          -0.0632    2.4048   18.8793 O.3     1  UNL1       -0.4684
     17 C           0.5802    3.5281   18.1216 C.3     1  UNL1        0.2526
     18 O           0.4440    3.4111   21.6596 O.3     1  UNL1       -0.4496
     19 C          -3.6219    3.6199   23.5767 C.ar    1  UNL1        0.0767
     20 C          -3.4969    3.6133   22.0820 C.ar    1  UNL1        0.0096
     21 C          -2.1416    3.5437   21.4429 C.ar    1  UNL1        0.0386
     22 C          -0.9113    3.4807   22.2986 C.ar    1  UNL1        0.1559
     23 C          -1.0363    3.4873   23.7934 C.ar    1  UNL1        0.0923
     24 CL          0.1941    3.4243   24.6492 Cl      1  UNL1       -0.0791
     25 C          -2.3915    3.5569   24.4324 C.ar    1  UNL1        0.0209
     26 C          -4.9772    3.6895   24.2157 C.2     1  UNL1        0.3414
     27 O          -6.2020    3.8361   23.3625 O.2     1  UNL1       -0.2449
     28 C          -5.1844    4.8713   26.5201 C.3     1  UNL1        0.2560
     29 O          -5.1076    3.6125   25.7080 O.3     1  UNL1       -0.4413
@<TRIPOS>BOND
     1    28    29    1
     2    29    26    1
     3    26    27    2
     4    26    19    1
     5    19    20   ar
     6    20    21   ar
     7    21    22   ar
     8    22    18    1
     9    18     1    1
    10     1     2   ar
    11     2     3   ar
    12     3     4   ar
    13     4     7    1
    14     7     8    2
    15     8     9    1
    16     9    10    1
    17    10    11    2
    18    10    12   am
    19    12    13   am
    20    13    14    2
    21     4     5   ar
    22     5     6   ar
    23     6    16    1
    24    16    17    1
    25    22    23   ar
    26    23    24    1
    27    23    25   ar
    28    25    19   ar
    29     6     1   ar
    30    13     8    1
    31    12    15    1
@<TRIPOS>MOLECULE
*****
 29 31 0 0 0
SMALL
GASTEIGER

@<TRIPOS>ATOM
      1 C           4.4965   -0.8892   24.9828 C.ar    1  UNL1        0.1790
      2 C           3.5272   -0.7721   23.8440 C.ar    1  UNL1        0.0406
      3 C           3.5336   -1.7936   22.7457 C.ar    1  UNL1        0.0034
      4 C           4.5093   -2.9322   22.7861 C.ar    1  UNL1        0.0039
      5 C           5.4786   -3.0493   23.9248 C.ar    1  UNL1        0.0401
      6 C           5.4722   -2.0278   25.0232 C.ar    1  UNL1        0.1730
      7 C           4.5156   -3.9538   21.6876 C.2     1  UNL1        0.0113
      8 C           4.7977   -3.5346   20.2753 C.2     1  UNL1        0.0873
      9 S           5.0894   -2.1382   19.8115 S.3     1  UNL1       -0.0254
     10 C           5.3096   -2.1789   18.3283 C.2     1  UNL1        0.2832
     11 O           5.6293   -1.0042   17.4519 O.2     1  UNL1       -0.2622
     12 N           5.1541   -3.6004   17.8754 N.am    1  UNL1       -0.2425
     13 C           4.8377   -4.4383   19.0787 C.2     1  UNL1        0.2583
     14 O           4.6026   -5.9197   19.0843 O.2     1  UNL1       -0.2692
     15 H           5.2439   -3.9262   16.9507 H       1  UNL1        0.1587
     16 O           6.4415   -2.1449   26.1619 O.3     1  UNL1       -0.4684
     17 C           7.0388   -3.4775   26.5044 C.3     1  UNL1        0.2526
     18 O           4.4901    0.1323   26.0812 O.3     1  UNL1       -0.4496
     19 C           0.8548    0.6080   28.6904 C.ar    1  UNL1        0.0767
     20 C           1.7956   -0.5381   28.9167 C.ar    1  UNL1        0.0096
     21 C           3.0074   -0.6967   28.0469 C.ar    1  UNL1        0.0386
     22 C           3.2784    0.2909   26.9509 C.ar    1  UNL1        0.1559
     23 C           2.3376    1.4370   26.7247 C.ar    1  UNL1        0.0923
     24 CL          2.6085    2.4247   25.6287 Cl      1  UNL1       -0.0791
     25 C           1.1258    1.5956   27.5944 C.ar    1  UNL1        0.0209
     26 C          -0.3570    0.7666   29.5602 C.2     1  UNL1        0.3414
     27 O          -1.7083    0.3715   29.0429 O.2     1  UNL1       -0.2449
     28 C           0.4602    2.6410   31.1629 C.3     1  UNL1        0.2560
     29 O          -0.2174    1.3203   30.9472 O.3     1  UNL1       -0.4413
@<TRIPOS>BOND
     1    28    29    1
     2    29    26    1
     3    26    27    2
     4    26    19    1
     5    19    20   ar
     6    20    21   ar
     7    21    22   ar
     8    22    18    1
     9    18     1    1
    10     1     2   ar
    11     2     3   ar
    12     3     4   ar
    13     4     7    1
    14     7     8    2
    15     8     9    1
    16     9    10    1
    17    10    11    2
    18    10    12   am
    19    12    13   am
    20    13    14    2
    21     4     5   ar
    22     5     6   ar
    23     6    16    1
    24    16    17    1
    25    22    23   ar
    26    23    24    1
    27    23    25   ar
    28    25    19   ar
    29     6     1   ar
    30    13     8    1
    31    12    15    1
@<TRIPOS>MOLECULE
*****
 29 31 0 0 0
SMALL
GASTEIGER

@<TRIPOS>ATOM
      1 C           0.7494    2.0044   20.0503 C.ar    1  UNL1        0.1790
      2 C           0.0899    0.7142   20.4387 C.ar    1  UNL1        0.0406
      3 C           0.8638   -0.5695   20.3849 C.ar    1  UNL1        0.0034
      4 C           2.2972   -0.5633   19.9428 C.ar    1  UNL1        0.0039
      5 C           2.9566    0.7268   19.5544 C.ar    1  UNL1        0.0401
      6 C           2.1827    2.0106   19.6082 C.ar    1  UNL1        0.1730
      7 C           3.0711   -1.8472   19.8890 C.2     1  UNL1        0.0113
      8 C           3.7873   -2.3428   21.1102 C.2     1  UNL1        0.0873
      9 S           3.8199   -1.6663   22.4487 S.3     1  UNL1       -0.0254
     10 C           4.6494   -2.5075   23.3730 C.2     1  UNL1        0.2832
     11 O           4.9466   -2.2053   24.8119 O.2     1  UNL1       -0.2622
     12 N           5.1295   -3.7037   22.6059 N.am    1  UNL1       -0.2425
     13 C           4.5967   -3.6020   21.2074 C.2     1  UNL1        0.2583
     14 O           4.8320   -4.5865   20.1005 O.2     1  UNL1       -0.2692
     15 H           5.6950   -4.4284   22.9584 H       1  UNL1        0.1587
     16 O           2.8421    3.3007   19.2198 O.3     1  UNL1       -0.4684
     17 C           3.9540    3.3013   18.2130 C.3     1  UNL1        0.2526
     18 O          -0.0245    3.2882   20.1041 O.3     1  UNL1       -0.4496
     19 C          -3.8492    3.5126   22.4646 C.ar    1  UNL1        0.0767
     20 C          -3.8942    3.2727   20.9846 C.ar    1  UNL1        0.0096
     21 C          -2.6193    3.1979   20.1978 C.ar    1  UNL1        0.0386
     22 C          -1.2994    3.3630   20.8910 C.ar    1  UNL1        0.1559
     23 C          -1.2544    3.6029   22.3709 C.ar    1  UNL1        0.0923
     24 CL          0.0656    3.7680   23.0642 Cl      1  UNL1       -0.0791
     25 C          -2.5292    3.6777   23.1578 C.ar    1  UNL1        0.0209
     26 C          -5.1240    3.5874   23.2514 C.2     1  UNL1        0.3414
     27 O          -5.1047    3.3612   24.7341 O.2     1  UNL1       -0.2449
     28 C          -7.5726    4.4525   23.3298 C.3     1  UNL1        0.2560
     29 O          -6.4183    3.8885   22.5556 O.3     1  UNL1       -0.4413
@<TRIPOS>BOND
     1    28    29    1
     2    29    26    1
     3    26    27    2
     4    26    19    1
     5    19    20   ar
     6    20    21   ar
     7    21    22   ar
     8    22    18    1
     9    18     1    1
    10     1     2   ar
    11     2     3   ar
    12     3     4   ar
    13     4     7    1
    14     7     8    2
    15     8     9    1
    16     9    10    1
    17    10    11    2
    18    10    12   am
    19    12    13   am
    20    13    14    2
    21     4     5   ar
    22     5     6   ar
    23     6    16    1
    24    16    17    1
    25    22    23   ar
    26    23    24    1
    27    23    25   ar
    28    25    19   ar
    29     6     1   ar
    30    13     8    1
    31    12    15    1
@<TRIPOS>MOLECULE
*****
 29 31 0 0 0
SMALL
GASTEIGER

@<TRIPOS>ATOM
      1 C           1.1738    2.3035   22.6252 C.ar    1  UNL1        0.1790
      2 C           0.3973    1.3140   21.8078 C.ar    1  UNL1        0.0406
      3 C           1.0489    0.6263   20.6449 C.ar    1  UNL1        0.0034
      4 C           2.4770    0.9281   20.2992 C.ar    1  UNL1        0.0039
      5 C           3.2534    1.9176   21.1165 C.ar    1  UNL1        0.0401
      6 C           2.6018    2.6053   22.2796 C.ar    1  UNL1        0.1730
      7 C           3.1286    0.2404   19.1362 C.2     1  UNL1        0.0113
      8 C           3.6800   -1.1452   19.2971 C.2     1  UNL1        0.0873
      9 S           3.6529   -1.9645   20.5534 S.3     1  UNL1       -0.0254
     10 C           4.3115   -3.2805   20.2627 C.2     1  UNL1        0.2832
     11 O           4.5024   -4.4050   21.2369 O.2     1  UNL1       -0.2622
     12 N           4.7455   -3.2746   18.8269 N.am    1  UNL1       -0.2425
     13 C           4.3552   -1.9549   18.2302 C.2     1  UNL1        0.2583
     14 O           4.5976   -1.5211   16.8149 O.2     1  UNL1       -0.2692
     15 H           5.2057   -4.0081   18.3585 H       1  UNL1        0.1587
     16 O           3.3783    3.5947   23.0969 O.3     1  UNL1       -0.4684
     17 C           3.2786    5.0604   22.7937 C.3     1  UNL1        0.2526
     18 O           0.5221    2.9911   23.7882 O.3     1  UNL1       -0.4496
     19 C           0.2605    0.9142   27.7717 C.ar    1  UNL1        0.0767
     20 C           1.5473    0.8991   27.0010 C.ar    1  UNL1        0.0096
     21 C           1.6345    1.5914   25.6732 C.ar    1  UNL1        0.0386
     22 C           0.4349    2.2988   25.1160 C.ar    1  UNL1        0.1559
     23 C          -0.8518    2.3140   25.8866 C.ar    1  UNL1        0.0923
     24 CL         -2.0515    3.0214   25.3294 Cl      1  UNL1       -0.0791
     25 C          -0.9390    1.6217   27.2145 C.ar    1  UNL1        0.0209
     26 C           0.1733    0.2219   29.0995 C.2     1  UNL1        0.3414
     27 O          -0.9840   -0.6843   29.3982 O.2     1  UNL1       -0.2449
     28 C           2.3336   -0.5801   30.2994 C.3     1  UNL1        0.2560
     29 O           1.2434    0.4359   30.1286 O.3     1  UNL1       -0.4413
@<TRIPOS>BOND
     1    28    29    1
     2    29    26    1
     3    26    27    2
     4    26    19    1
     5    19    20   ar
     6    20    21   ar
     7    21    22   ar
     8    22    18    1
     9    18     1    1
    10     1     2   ar
    11     2     3   ar
    12     3     4   ar
    13     4     7    1
    14     7     8    2
    15     8     9    1
    16     9    10    1
    17    10    11    2
    18    10    12   am
    19    12    13   am
    20    13    14    2
    21     4     5   ar
    22     5     6   ar
    23     6    16    1
    24    16    17    1
    25    22    23   ar
    26    23    24    1
    27    23    25   ar
    28    25    19   ar
    29     6     1   ar
    30    13     8    1
    31    12    15    1
