@<TRIPOS>MOLECULE
*****
 28 30 0 0 0
SMALL
GASTEIGER

@<TRIPOS>ATOM
      1 C          -8.7617  -17.1248   22.5724 C.3     1  UNL1        0.0974
      2 C         -10.2264  -17.2043   22.2587 C.ar    1  UNL1       -0.0082
      3 C         -11.1707  -16.1847   22.8232 C.ar    1  UNL1       -0.0030
      4 C         -12.6353  -16.2643   22.5095 C.ar    1  UNL1       -0.0003
      5 C         -13.1557  -17.3633   21.6312 C.ar    1  UNL1       -0.0003
      6 C         -12.2113  -18.3828   21.0667 C.ar    1  UNL1       -0.0045
      7 C         -10.7467  -18.3033   21.3804 C.ar    1  UNL1       -0.0229
      8 C          -9.8023  -19.3229   20.8159 C.3     1  UNL1        0.0476
      9 C          -8.3376  -19.2434   21.1296 C.3     1  UNL1        0.0983
     10 N          -7.8173  -18.1443   22.0079 N.am    1  UNL1       -0.2760
     11 C          -6.3526  -18.0648   22.3216 C.2     1  UNL1        0.2420
     12 O          -5.8323  -16.9658   23.1999 O.2     1  UNL1       -0.2734
     13 C          -7.9432  -15.1967   22.2367 C.3     1  UNL1        0.0020
     14 C          -8.2413  -16.0257   23.4507 C.3     1  UNL1        0.0207
     15 C          -8.5395  -16.8547   24.6647 C.3     1  UNL1        0.0020
     16 C          -7.7210  -14.9267   24.3290 C.3     1  UNL1        0.0020
     17 C          -5.4083  -19.0844   21.7570 C.3     1  UNL1        0.1552
     18 N          -4.3862  -19.7319   22.6436 N.3     1  UNL1       -0.2879
     19 H          -4.1847  -20.6471   22.2408 H       1  UNL1        0.1238
     20 C          -3.0649  -19.0618   22.8788 C.3     1  UNL1        0.0961
     21 C          -2.1567  -18.7677   21.7218 C.3     1  UNL1        0.1027
     22 O          -2.2194  -20.2636   21.6300 O.3     1  UNL1       -0.3854
     23 C          -2.4093  -17.3741   22.2155 C.3     1  UNL1        0.0283
     24 C          -1.7756  -16.2057   21.5203 C.3     1  UNL1        0.0024
     25 C          -0.8890  -16.4311   20.3314 C.3     1  UNL1        0.0002
     26 C          -0.6364  -17.8248   19.8378 C.3     1  UNL1        0.0024
     27 C          -1.2701  -18.9931   20.5330 C.3     1  UNL1        0.0283
     28 H          -2.7885  -20.6074   22.3363 H       1  UNL1        0.2103
@<TRIPOS>BOND
     1    13    14    1
     2    14    15    1
     3    14    16    1
     4    14     1    1
     5     1     2    1
     6     2     3   ar
     7     3     4   ar
     8     4     5   ar
     9     5     6   ar
    10     6     7   ar
    11     7     8    1
    12     8     9    1
    13     9    10    1
    14    10    11   am
    15    11    12    2
    16    11    17    1
    17    17    18    1
    18    18    20    1
    19    20    21    1
    20    21    22    1
    21    21    23    1
    22    23    24    1
    23    24    25    1
    24    25    26    1
    25    26    27    1
    26    10     1    1
    27    27    21    1
    28     7     2   ar
    29    18    19    1
    30    22    28    1
@<TRIPOS>MOLECULE
*****
 28 30 0 0 0
SMALL
GASTEIGER

@<TRIPOS>ATOM
      1 C         -10.5284  -18.5191   22.1265 C.3     1  UNL1        0.0974
      2 C         -11.6781  -18.4458   23.0873 C.ar    1  UNL1       -0.0082
      3 C         -12.9429  -17.7435   22.6911 C.ar    1  UNL1       -0.0030
      4 C         -14.0925  -17.6702   23.6518 C.ar    1  UNL1       -0.0003
      5 C         -13.9774  -18.2993   25.0086 C.ar    1  UNL1       -0.0003
      6 C         -12.7126  -19.0017   25.4048 C.ar    1  UNL1       -0.0045
      7 C         -11.5630  -19.0749   24.4441 C.ar    1  UNL1       -0.0229
      8 C         -10.2981  -19.7773   24.8402 C.3     1  UNL1        0.0476
      9 C          -9.1485  -19.8506   23.8795 C.3     1  UNL1        0.0983
     10 N          -9.2636  -19.2215   22.5227 N.am    1  UNL1       -0.2760
     11 C          -8.1139  -19.2948   21.5620 C.2     1  UNL1        0.2420
     12 O          -8.2291  -18.6657   20.2052 O.2     1  UNL1       -0.2734
     13 C         -10.2017  -16.5756   21.3416 C.3     1  UNL1        0.0020
     14 C         -10.6436  -17.8900   20.7697 C.3     1  UNL1        0.0207
     15 C         -11.0855  -19.2044   20.1978 C.3     1  UNL1        0.0020
     16 C         -10.7587  -17.2609   19.4129 C.3     1  UNL1        0.0020
     17 C          -6.8492  -19.9972   21.9581 C.3     1  UNL1        0.1552
     18 N          -5.5320  -19.5376   21.4070 N.3     1  UNL1       -0.2879
     19 H          -5.7069  -18.6582   20.9209 H       1  UNL1        0.1238
     20 C          -4.3746  -19.2990   22.3310 C.3     1  UNL1        0.0961
     21 C          -3.3516  -18.2539   21.9972 C.3     1  UNL1        0.1027
     22 O          -3.6373  -17.8922   23.4247 O.3     1  UNL1       -0.3854
     23 C          -3.4212  -18.9786   20.6858 C.3     1  UNL1        0.0283
     24 C          -2.5670  -18.5326   19.5362 C.3     1  UNL1        0.0024
     25 C          -1.6432  -17.3619   19.6982 C.3     1  UNL1        0.0002
     26 C          -1.5736  -16.6373   21.0097 C.3     1  UNL1        0.0024
     27 C          -2.4278  -17.0832   22.1592 C.3     1  UNL1        0.0283
     28 H          -4.3015  -18.5001   23.7855 H       1  UNL1        0.2103
@<TRIPOS>BOND
     1    13    14    1
     2    14    15    1
     3    14    16    1
     4    14     1    1
     5     1     2    1
     6     2     3   ar
     7     3     4   ar
     8     4     5   ar
     9     5     6   ar
    10     6     7   ar
    11     7     8    1
    12     8     9    1
    13     9    10    1
    14    10    11   am
    15    11    12    2
    16    11    17    1
    17    17    18    1
    18    18    20    1
    19    20    21    1
    20    21    22    1
    21    21    23    1
    22    23    24    1
    23    24    25    1
    24    25    26    1
    25    26    27    1
    26    10     1    1
    27    27    21    1
    28     7     2   ar
    29    18    19    1
    30    22    28    1
@<TRIPOS>MOLECULE
*****
 28 30 0 0 0
SMALL
GASTEIGER

@<TRIPOS>ATOM
      1 C          -5.8804  -16.9042   23.7045 C.3     1  UNL1        0.0974
      2 C          -4.8551  -17.7432   23.0009 C.ar    1  UNL1       -0.0082
      3 C          -3.3943  -17.4782   23.2147 C.ar    1  UNL1       -0.0030
      4 C          -2.3691  -18.3172   22.5112 C.ar    1  UNL1       -0.0003
      5 C          -2.8047  -19.4212   21.5939 C.ar    1  UNL1       -0.0003
      6 C          -4.2656  -19.6862   21.3801 C.ar    1  UNL1       -0.0045
      7 C          -5.2907  -18.8472   22.0836 C.ar    1  UNL1       -0.0229
      8 C          -6.7517  -19.1121   21.8699 C.3     1  UNL1        0.0476
      9 C          -7.7768  -18.2731   22.5735 C.3     1  UNL1        0.0983
     10 N          -7.3412  -17.1691   23.4907 N.am    1  UNL1       -0.2760
     11 C          -8.3665  -16.3301   24.1943 C.2     1  UNL1        0.2420
     12 O          -7.9308  -15.2261   25.1116 O.2     1  UNL1       -0.2734
     13 C          -5.5054  -16.7438   25.7863 C.3     1  UNL1        0.0020
     14 C          -5.4447  -15.8002   24.6218 C.3     1  UNL1        0.0207
     15 C          -5.3840  -14.8566   23.4573 C.3     1  UNL1        0.0020
     16 C          -5.0091  -14.6962   25.5391 C.3     1  UNL1        0.0020
     17 C          -9.8273  -16.5951   23.9806 C.3     1  UNL1        0.1552
     18 N         -10.6104  -15.7491   23.0209 N.3     1  UNL1       -0.2879
     19 H          -9.9312  -15.2427   22.4529 H       1  UNL1        0.1238
     20 C         -11.5766  -16.3918   22.0704 C.3     1  UNL1        0.0961
     21 C         -11.0841  -17.3778   21.0529 C.3     1  UNL1        0.1027
     22 O         -10.8982  -16.1004   20.2889 O.3     1  UNL1       -0.3854
     23 C         -11.4410  -18.3127   22.1703 C.3     1  UNL1        0.0283
     24 C         -11.2409  -19.7901   22.0049 C.3     1  UNL1        0.0024
     25 C         -10.6838  -20.3325   20.7221 C.3     1  UNL1        0.0002
     26 C         -10.3269  -19.3976   19.6048 C.3     1  UNL1        0.0024
     27 C         -10.5270  -17.9202   19.7701 C.3     1  UNL1        0.0283
     28 H         -11.1830  -15.3519   20.8362 H       1  UNL1        0.2103
@<TRIPOS>BOND
     1    13    14    1
     2    14    15    1
     3    14    16    1
     4    14     1    1
     5     1     2    1
     6     2     3   ar
     7     3     4   ar
     8     4     5   ar
     9     5     6   ar
    10     6     7   ar
    11     7     8    1
    12     8     9    1
    13     9    10    1
    14    10    11   am
    15    11    12    2
    16    11    17    1
    17    17    18    1
    18    18    20    1
    19    20    21    1
    20    21    22    1
    21    21    23    1
    22    23    24    1
    23    24    25    1
    24    25    26    1
    25    26    27    1
    26    10     1    1
    27    27    21    1
    28     7     2   ar
    29    18    19    1
    30    22    28    1
@<TRIPOS>MOLECULE
*****
 28 30 0 0 0
SMALL
GASTEIGER

@<TRIPOS>ATOM
      1 C         -12.7666   -2.9452   18.3233 C.3     1  UNL1        0.0974
      2 C         -13.7164   -1.8403   18.6800 C.ar    1  UNL1       -0.0082
      3 C         -13.6206   -0.5151   17.9838 C.ar    1  UNL1       -0.0030
      4 C         -14.5703    0.5898   18.3406 C.ar    1  UNL1       -0.0003
      5 C         -15.6158    0.3695   19.3934 C.ar    1  UNL1       -0.0003
      6 C         -15.7115   -0.9557   20.0895 C.ar    1  UNL1       -0.0045
      7 C         -14.7618   -2.0606   19.7328 C.ar    1  UNL1       -0.0229
      8 C         -14.8576   -3.3859   20.4289 C.3     1  UNL1        0.0476
      9 C         -13.9079   -4.4908   20.0722 C.3     1  UNL1        0.0983
     10 N         -12.8624   -4.2704   19.0194 N.am    1  UNL1       -0.2760
     11 C         -11.9126   -5.3754   18.6627 C.2     1  UNL1        0.2420
     12 O         -10.8672   -5.1550   17.6099 O.2     1  UNL1       -0.2734
     13 C         -12.6713   -3.2238   16.2225 C.3     1  UNL1        0.0020
     14 C         -11.7212   -2.7249   17.2704 C.3     1  UNL1        0.0207
     15 C         -10.7710   -2.2260   18.3184 C.3     1  UNL1        0.0020
     16 C         -10.6757   -2.5045   16.2176 C.3     1  UNL1        0.0020
     17 C         -12.0084   -6.7006   19.3588 C.3     1  UNL1        0.1552
     18 N         -12.7672   -7.8281   18.7240 N.3     1  UNL1       -0.2879
     19 H         -12.8593   -8.5564   19.4321 H       1  UNL1        0.1238
     20 C         -14.1395   -7.5890   18.1675 C.3     1  UNL1        0.0961
     21 C         -15.3474   -8.0589   18.9225 C.3     1  UNL1        0.1027
     22 O         -14.4386   -9.2347   19.1272 O.3     1  UNL1       -0.3854
     23 C         -15.8366   -6.7200   18.4557 C.3     1  UNL1        0.0283
     24 C         -17.2181   -6.2593   18.8150 C.3     1  UNL1        0.0024
     25 C         -18.1104   -7.1376   19.6412 C.3     1  UNL1        0.0002
     26 C         -17.6212   -8.4764   20.1080 C.3     1  UNL1        0.0024
     27 C         -16.2397   -8.9372   19.7487 C.3     1  UNL1        0.0283
     28 H         -13.5926   -9.0708   18.6818 H       1  UNL1        0.2103
@<TRIPOS>BOND
     1    13    14    1
     2    14    15    1
     3    14    16    1
     4    14     1    1
     5     1     2    1
     6     2     3   ar
     7     3     4   ar
     8     4     5   ar
     9     5     6   ar
    10     6     7   ar
    11     7     8    1
    12     8     9    1
    13     9    10    1
    14    10    11   am
    15    11    12    2
    16    11    17    1
    17    17    18    1
    18    18    20    1
    19    20    21    1
    20    21    22    1
    21    21    23    1
    22    23    24    1
    23    24    25    1
    24    25    26    1
    25    26    27    1
    26    10     1    1
    27    27    21    1
    28     7     2   ar
    29    18    19    1
    30    22    28    1
@<TRIPOS>MOLECULE
*****
 28 30 0 0 0
SMALL
GASTEIGER

@<TRIPOS>ATOM
      1 C         -13.2402   -3.0782   18.7480 C.3     1  UNL1        0.0974
      2 C         -12.6579   -1.7902   18.2457 C.ar    1  UNL1       -0.0082
      3 C         -13.4364   -0.5145   18.3744 C.ar    1  UNL1       -0.0030
      4 C         -12.8540    0.7733   17.8722 C.ar    1  UNL1       -0.0003
      5 C         -11.4933    0.7855   17.2412 C.ar    1  UNL1       -0.0003
      6 C         -10.7148   -0.4902   17.1124 C.ar    1  UNL1       -0.0045
      7 C         -11.2971   -1.7780   17.6147 C.ar    1  UNL1       -0.0229
      8 C         -10.5187   -3.0538   17.4860 C.3     1  UNL1        0.0476
      9 C         -11.1010   -4.3417   17.9882 C.3     1  UNL1        0.0983
     10 N         -12.4618   -4.3538   18.6192 N.am    1  UNL1       -0.2760
     11 C         -13.0441   -5.6418   19.1215 C.2     1  UNL1        0.2420
     12 O         -14.4049   -5.6539   19.7525 O.2     1  UNL1       -0.2734
     13 C         -13.9758   -2.9111   20.7306 C.3     1  UNL1        0.0020
     14 C         -14.6010   -3.0903   19.3790 C.3     1  UNL1        0.0207
     15 C         -15.2262   -3.2696   18.0273 C.3     1  UNL1        0.0020
     16 C         -15.9618   -3.1025   20.0100 C.3     1  UNL1        0.0020
     17 C         -12.2657   -6.9174   18.9927 C.3     1  UNL1        0.1552
     18 N         -12.9742   -8.1988   18.6671 N.3     1  UNL1       -0.2879
     19 H         -13.3848   -8.5376   19.5372 H       1  UNL1        0.1238
     20 C         -14.0666   -8.2115   17.6391 C.3     1  UNL1        0.0961
     21 C         -15.3819   -8.8618   17.9503 C.3     1  UNL1        0.1027
     22 O         -14.5113   -9.5333   18.9708 O.3     1  UNL1       -0.3854
     23 C         -15.7956   -7.9645   16.8218 C.3     1  UNL1        0.0283
     24 C         -17.2223   -7.9507   16.3589 C.3     1  UNL1        0.0024
     25 C         -18.2353   -8.8343   17.0246 C.3     1  UNL1        0.0002
     26 C         -17.8216   -9.7316   18.1531 C.3     1  UNL1        0.0024
     27 C         -16.3949   -9.7454   18.6160 C.3     1  UNL1        0.0283
     28 H         -13.6030   -9.2033   18.8884 H       1  UNL1        0.2103
@<TRIPOS>BOND
     1    13    14    1
     2    14    15    1
     3    14    16    1
     4    14     1    1
     5     1     2    1
     6     2     3   ar
     7     3     4   ar
     8     4     5   ar
     9     5     6   ar
    10     6     7   ar
    11     7     8    1
    12     8     9    1
    13     9    10    1
    14    10    11   am
    15    11    12    2
    16    11    17    1
    17    17    18    1
    18    18    20    1
    19    20    21    1
    20    21    22    1
    21    21    23    1
    22    23    24    1
    23    24    25    1
    24    25    26    1
    25    26    27    1
    26    10     1    1
    27    27    21    1
    28     7     2   ar
    29    18    19    1
    30    22    28    1
@<TRIPOS>MOLECULE
*****
 28 30 0 0 0
SMALL
GASTEIGER

@<TRIPOS>ATOM
      1 C         -13.4878   -4.3212   18.7505 C.3     1  UNL1        0.0974
      2 C         -12.1904   -5.0711   18.8187 C.ar    1  UNL1       -0.0082
      3 C         -10.8993   -4.3236   18.9740 C.ar    1  UNL1       -0.0030
      4 C          -9.6021   -5.0735   19.0423 C.ar    1  UNL1       -0.0003
      5 C          -9.5959   -6.5709   18.9552 C.ar    1  UNL1       -0.0003
      6 C         -10.8870   -7.3185   18.7999 C.ar    1  UNL1       -0.0045
      7 C         -12.1843   -6.5686   18.7317 C.ar    1  UNL1       -0.0229
      8 C         -13.4755   -7.3161   18.5764 C.3     1  UNL1        0.0476
      9 C         -14.7728   -6.5662   18.5081 C.3     1  UNL1        0.0983
     10 N         -14.7789   -5.0687   18.5952 N.am    1  UNL1       -0.2760
     11 C         -16.0763   -4.3188   18.5269 C.2     1  UNL1        0.2420
     12 O         -16.0824   -2.8214   18.6140 O.2     1  UNL1       -0.2734
     13 C         -13.6189   -2.9110   20.3298 C.3     1  UNL1        0.0020
     14 C         -13.4939   -2.8237   18.8375 C.3     1  UNL1        0.0207
     15 C         -13.3690   -2.7365   17.3453 C.3     1  UNL1        0.0020
     16 C         -13.5001   -1.3263   18.9246 C.3     1  UNL1        0.0020
     17 C         -17.3674   -5.0664   18.3716 C.3     1  UNL1        0.1552
     18 N         -17.9932   -5.7368   19.5585 N.3     1  UNL1       -0.2879
     19 H         -18.3533   -4.9956   20.1595 H       1  UNL1        0.1238
     20 C         -19.1114   -6.7174   19.3629 C.3     1  UNL1        0.0961
     21 C         -18.8368   -8.0533   18.7385 C.3     1  UNL1        0.1027
     22 O         -19.9135   -7.5536   17.8214 O.3     1  UNL1       -0.3854
     23 C         -17.8556   -8.0891   19.8725 C.3     1  UNL1        0.0283
     24 C         -16.9736   -9.2872   20.0636 C.3     1  UNL1        0.0024
     25 C         -17.0729  -10.4497   19.1207 C.3     1  UNL1        0.0002
     26 C         -18.0542  -10.4139   17.9868 C.3     1  UNL1        0.0024
     27 C         -18.9361   -9.2157   17.7957 C.3     1  UNL1        0.0283
     28 H         -20.1998   -6.6725   18.1088 H       1  UNL1        0.2103
@<TRIPOS>BOND
     1    13    14    1
     2    14    15    1
     3    14    16    1
     4    14     1    1
     5     1     2    1
     6     2     3   ar
     7     3     4   ar
     8     4     5   ar
     9     5     6   ar
    10     6     7   ar
    11     7     8    1
    12     8     9    1
    13     9    10    1
    14    10    11   am
    15    11    12    2
    16    11    17    1
    17    17    18    1
    18    18    20    1
    19    20    21    1
    20    21    22    1
    21    21    23    1
    22    23    24    1
    23    24    25    1
    24    25    26    1
    25    26    27    1
    26    10     1    1
    27    27    21    1
    28     7     2   ar
    29    18    19    1
    30    22    28    1
@<TRIPOS>MOLECULE
*****
 28 30 0 0 0
SMALL
GASTEIGER

@<TRIPOS>ATOM
      1 C          -7.2341  -18.7949   21.6941 C.3     1  UNL1        0.0974
      2 C          -8.6860  -18.4641   21.5137 C.ar    1  UNL1       -0.0082
      3 C          -9.5459  -19.3189   20.6306 C.ar    1  UNL1       -0.0030
      4 C         -10.9978  -18.9881   20.4503 C.ar    1  UNL1       -0.0003
      5 C         -11.5898  -17.8025   21.1530 C.ar    1  UNL1       -0.0003
      6 C         -10.7299  -16.9477   22.0361 C.ar    1  UNL1       -0.0045
      7 C          -9.2780  -17.2785   22.2165 C.ar    1  UNL1       -0.0229
      8 C          -8.4181  -16.4237   23.0996 C.3     1  UNL1        0.0476
      9 C          -6.9662  -16.7545   23.2800 C.3     1  UNL1        0.0983
     10 N          -6.3742  -17.9401   22.5772 N.am    1  UNL1       -0.2760
     11 C          -4.9222  -18.2709   22.7576 C.2     1  UNL1        0.2420
     12 O          -4.3302  -19.4565   22.0549 O.2     1  UNL1       -0.2734
     13 C          -6.3763  -19.1318   19.7835 C.3     1  UNL1        0.0020
     14 C          -6.6421  -19.9805   20.9914 C.3     1  UNL1        0.0207
     15 C          -6.9078  -20.8292   22.1993 C.3     1  UNL1        0.0020
     16 C          -6.0501  -21.1661   20.2886 C.3     1  UNL1        0.0020
     17 C          -4.0624  -17.4162   23.6408 C.3     1  UNL1        0.1552
     18 N          -3.3457  -16.2294   23.0681 N.3     1  UNL1       -0.2879
     19 H          -2.4051  -16.2349   23.4625 H       1  UNL1        0.1238
     20 C          -3.1915  -16.0915   21.5824 C.3     1  UNL1        0.0961
     21 C          -2.0131  -16.7096   20.8901 C.3     1  UNL1        0.1027
     22 O          -1.3440  -16.1871   22.1268 O.3     1  UNL1       -0.3854
     23 C          -3.0914  -17.0174   19.8939 C.3     1  UNL1        0.0283
     24 C          -2.7590  -17.7618   18.6348 C.3     1  UNL1        0.0024
     25 C          -1.3482  -18.1985   18.3720 C.3     1  UNL1        0.0002
     26 C          -0.2699  -17.8908   19.3682 C.3     1  UNL1        0.0024
     27 C          -0.6023  -17.1463   20.6273 C.3     1  UNL1        0.0283
     28 H          -2.0013  -15.7480   22.6890 H       1  UNL1        0.2103
@<TRIPOS>BOND
     1    13    14    1
     2    14    15    1
     3    14    16    1
     4    14     1    1
     5     1     2    1
     6     2     3   ar
     7     3     4   ar
     8     4     5   ar
     9     5     6   ar
    10     6     7   ar
    11     7     8    1
    12     8     9    1
    13     9    10    1
    14    10    11   am
    15    11    12    2
    16    11    17    1
    17    17    18    1
    18    18    20    1
    19    20    21    1
    20    21    22    1
    21    21    23    1
    22    23    24    1
    23    24    25    1
    24    25    26    1
    25    26    27    1
    26    10     1    1
    27    27    21    1
    28     7     2   ar
    29    18    19    1
    30    22    28    1
@<TRIPOS>MOLECULE
*****
 28 30 0 0 0
SMALL
GASTEIGER

@<TRIPOS>ATOM
      1 C          -9.3798  -18.5878   21.2099 C.3     1  UNL1        0.0974
      2 C         -10.4856  -17.6538   21.6033 C.ar    1  UNL1       -0.0082
      3 C         -11.7848  -17.6719   20.8539 C.ar    1  UNL1       -0.0030
      4 C         -12.8906  -16.7379   21.2474 C.ar    1  UNL1       -0.0003
      5 C         -12.6972  -15.7858   22.3903 C.ar    1  UNL1       -0.0003
      6 C         -11.3980  -15.7677   23.1397 C.ar    1  UNL1       -0.0045
      7 C         -10.2922  -16.7017   22.7462 C.ar    1  UNL1       -0.0229
      8 C          -8.9929  -16.6837   23.4956 C.3     1  UNL1        0.0476
      9 C          -7.8871  -17.6177   23.1022 C.3     1  UNL1        0.0983
     10 N          -8.0805  -18.5697   21.9593 N.am    1  UNL1       -0.2760
     11 C          -6.9747  -19.5038   21.5659 C.2     1  UNL1        0.2420
     12 O          -7.1681  -20.4559   20.4230 O.2     1  UNL1       -0.2734
     13 C         -10.3736  -20.4447   20.9563 C.3     1  UNL1        0.0020
     14 C          -9.5732  -19.5399   20.0670 C.3     1  UNL1        0.0207
     15 C          -8.7728  -18.6351   19.1778 C.3     1  UNL1        0.0020
     16 C          -9.7667  -20.4920   18.9242 C.3     1  UNL1        0.0020
     17 C          -5.6755  -19.4857   22.3153 C.3     1  UNL1        0.1552
     18 N          -4.5354  -18.6464   21.8196 N.3     1  UNL1       -0.2879
     19 H          -4.5788  -17.7621   22.3260 H       1  UNL1        0.1238
     20 C          -3.1267  -19.1471   21.9423 C.3     1  UNL1        0.0961
     21 C          -2.0496  -18.5782   21.0671 C.3     1  UNL1        0.1027
     22 O          -1.2854  -18.7419   22.3474 O.3     1  UNL1       -0.3854
     23 C          -3.1878  -18.6120   20.0908 C.3     1  UNL1        0.0283
     24 C          -2.9836  -18.1338   18.6838 C.3     1  UNL1        0.0024
     25 C          -1.6411  -17.6217   18.2531 C.3     1  UNL1        0.0002
     26 C          -0.5028  -17.5878   19.2294 C.3     1  UNL1        0.0024
     27 C          -0.7070  -18.0661   20.6364 C.3     1  UNL1        0.0283
     28 H          -1.8696  -19.1118   23.0276 H       1  UNL1        0.2103
@<TRIPOS>BOND
     1    13    14    1
     2    14    15    1
     3    14    16    1
     4    14     1    1
     5     1     2    1
     6     2     3   ar
     7     3     4   ar
     8     4     5   ar
     9     5     6   ar
    10     6     7   ar
    11     7     8    1
    12     8     9    1
    13     9    10    1
    14    10    11   am
    15    11    12    2
    16    11    17    1
    17    17    18    1
    18    18    20    1
    19    20    21    1
    20    21    22    1
    21    21    23    1
    22    23    24    1
    23    24    25    1
    24    25    26    1
    25    26    27    1
    26    10     1    1
    27    27    21    1
    28     7     2   ar
    29    18    19    1
    30    22    28    1
@<TRIPOS>MOLECULE
*****
 28 30 0 0 0
SMALL
GASTEIGER

@<TRIPOS>ATOM
      1 C         -14.5787   -3.5994   18.9155 C.3     1  UNL1        0.0974
      2 C         -15.7640   -2.7794   19.3311 C.ar    1  UNL1       -0.0082
      3 C         -15.5799   -1.3477   19.7387 C.ar    1  UNL1       -0.0030
      4 C         -16.7652   -0.5278   20.1542 C.ar    1  UNL1       -0.0003
      5 C         -18.1347   -1.1397   20.1622 C.ar    1  UNL1       -0.0003
      6 C         -18.3189   -2.5714   19.7547 C.ar    1  UNL1       -0.0045
      7 C         -17.1336   -3.3913   19.3391 C.ar    1  UNL1       -0.0229
      8 C         -17.3177   -4.8231   18.9315 C.3     1  UNL1        0.0476
      9 C         -16.1324   -5.6430   18.5159 C.3     1  UNL1        0.0983
     10 N         -14.7628   -5.0311   18.5079 N.am    1  UNL1       -0.2760
     11 C         -13.5775   -5.8511   18.0923 C.2     1  UNL1        0.2420
     12 O         -12.2080   -5.2392   18.0843 O.2     1  UNL1       -0.2734
     13 C         -13.0392   -3.3491   20.3533 C.3     1  UNL1        0.0020
     14 C         -13.2092   -2.9875   18.9075 C.3     1  UNL1        0.0207
     15 C         -13.3792   -2.6259   17.4617 C.3     1  UNL1        0.0020
     16 C         -11.8397   -2.3756   18.8995 C.3     1  UNL1        0.0020
     17 C         -13.7616   -7.2828   17.6847 C.3     1  UNL1        0.1552
     18 N         -14.0443   -8.3277   18.7231 N.3     1  UNL1       -0.2879
     19 H         -14.2613   -7.8323   19.5879 H       1  UNL1        0.1238
     20 C         -15.1459   -9.3224   18.5057 C.3     1  UNL1        0.0961
     21 C         -16.5128   -9.0619   19.0656 C.3     1  UNL1        0.1027
     22 O         -15.7225   -9.1479   20.3376 O.3     1  UNL1       -0.3854
     23 C         -16.8284   -9.0663   17.5992 C.3     1  UNL1        0.0283
     24 C         -18.2365   -8.8401   17.1344 C.3     1  UNL1        0.0024
     25 C         -19.3290   -8.6095   18.1360 C.3     1  UNL1        0.0002
     26 C         -19.0135   -8.6050   19.6024 C.3     1  UNL1        0.0024
     27 C         -17.6054   -8.8312   20.0672 C.3     1  UNL1        0.0283
     28 H         -14.7908   -9.3185   20.1285 H       1  UNL1        0.2103
@<TRIPOS>BOND
     1    13    14    1
     2    14    15    1
     3    14    16    1
     4    14     1    1
     5     1     2    1
     6     2     3   ar
     7     3     4   ar
     8     4     5   ar
     9     5     6   ar
    10     6     7   ar
    11     7     8    1
    12     8     9    1
    13     9    10    1
    14    10    11   am
    15    11    12    2
    16    11    17    1
    17    17    18    1
    18    18    20    1
    19    20    21    1
    20    21    22    1
    21    21    23    1
    22    23    24    1
    23    24    25    1
    24    25    26    1
    25    26    27    1
    26    10     1    1
    27    27    21    1
    28     7     2   ar
    29    18    19    1
    30    22    28    1
