@<TRIPOS>MOLECULE
*****
 28 31 0 0 0
SMALL
GASTEIGER

@<TRIPOS>ATOM
      1 C          -7.1456  -17.1970   22.4378 C.ar    1  UNL1        0.2490
      2 N          -7.5166  -15.9997   23.2616 N.ar    1  UNL1       -0.1863
      3 C          -6.5016  -15.3699   24.1690 C.ar    1  UNL1        0.2225
      4 N          -5.1157  -15.9374   24.2525 N.ar    1  UNL1       -0.1420
      5 N          -4.7447  -17.1348   23.4287 N.ar    1  UNL1       -0.2193
      6 C          -3.4663  -17.9093   23.3026 C.ar    1  UNL1        0.1371
      7 C          -3.6912  -19.0177   22.3173 C.ar    1  UNL1        0.1553
      8 C          -5.1085  -18.9283   21.8345 C.ar    1  UNL1        0.0359
      9 C          -5.7603  -19.8421   20.8395 C.3     1  UNL1        0.0360
     10 C          -5.7596  -17.7645   22.5214 C.ar    1  UNL1        0.1353
     11 O          -8.1605  -17.8268   21.5305 O.3     1  UNL1       -0.4328
     12 C         -14.8097  -18.6031   25.6304 C.3     1  UNL1        0.0521
     13 C         -13.7115  -18.3541   24.6394 C.2     1  UNL1        0.0591
     14 C         -12.2506  -18.6144   24.8584 C.2     1  UNL1        0.0182
     15 C         -11.5176  -18.2223   23.6098 C.2     1  UNL1        0.0455
     16 C         -10.0626  -18.2580   23.2469 C.2     1  UNL1        0.1752
     17 F          -9.0547  -18.7607   24.2376 F       1  UNL1       -0.2009
     18 C          -9.6155  -17.7911   21.8934 C.2     1  UNL1        0.1706
     19 C         -10.6234  -17.2884   20.9027 C.2     1  UNL1        0.0201
     20 C         -12.0785  -17.2527   21.2656 C.3     1  UNL1        0.0751
     21 C         -12.5255  -17.7196   22.6191 C.2     1  UNL1        0.0653
     22 N         -13.8814  -17.8011   23.2555 N.2     1  UNL1       -0.2536
     23 O          -2.6768  -20.0367   21.8899 O.3     1  UNL1       -0.4715
     24 C          -2.0118  -19.9171   20.5507 C.3     1  UNL1        0.2344
     25 C          -1.4380  -18.6021   20.1130 C.3     1  UNL1        0.1541
     26 C          -2.0996  -17.8234   19.0148 C.3     1  UNL1        0.0357
     27 O          -0.2027  -18.0659   20.7735 O.3     1  UNL1       -0.3806
     28 H           0.0327  -17.2133   20.3752 H       1  UNL1        0.2105
@<TRIPOS>BOND
     1    12    13    1
     2    13    14    2
     3    14    15    1
     4    15    16    2
     5    16    17    1
     6    16    18    1
     7    18    11    1
     8    11     1    1
     9     1     2   ar
    10     2     3   ar
    11     3     4   ar
    12     4     5   ar
    13     5     6   ar
    14     6     7   ar
    15     7    23    1
    16    23    24    1
    17    24    25    1
    18    25    26    1
    19    25    27    1
    20     7     8   ar
    21     8     9    1
    22     8    10   ar
    23    18    19    2
    24    19    20    1
    25    20    21    1
    26    21    22    2
    27    22    13    1
    28    21    15    1
    29    10     1   ar
    30    10     5   ar
    31    27    28    1
@<TRIPOS>MOLECULE
*****
 28 31 0 0 0
SMALL
GASTEIGER

@<TRIPOS>ATOM
      1 C          -6.2169  -19.3266   20.8275 C.ar    1  UNL1        0.2490
      2 N          -5.5455  -20.4617   20.1129 N.ar    1  UNL1       -0.1863
      3 C          -4.1106  -20.7875   20.4042 C.ar    1  UNL1        0.2225
      4 N          -3.3470  -19.9781   21.4101 N.ar    1  UNL1       -0.1420
      5 N          -4.0184  -18.8430   22.1247 N.ar    1  UNL1       -0.2193
      6 C          -3.5244  -17.8759   23.1595 C.ar    1  UNL1        0.1371
      7 C          -4.6540  -16.9525   23.5077 C.ar    1  UNL1        0.1553
      8 C          -5.8462  -17.3489   22.6881 C.ar    1  UNL1        0.0359
      9 C          -7.1944  -16.6921   22.7180 C.3     1  UNL1        0.0360
     10 C          -5.4534  -18.5173   21.8334 C.ar    1  UNL1        0.1353
     11 O          -7.6518  -19.0009   20.5362 O.3     1  UNL1       -0.4328
     12 C         -14.3017  -18.0867   24.6065 C.3     1  UNL1        0.0521
     13 C         -12.9564  -18.4380   24.0436 C.2     1  UNL1        0.0591
     14 C         -12.3766  -17.9243   22.7591 C.2     1  UNL1        0.0182
     15 C         -11.0166  -18.5334   22.5880 C.2     1  UNL1        0.0455
     16 C          -9.9820  -18.3925   21.5111 C.2     1  UNL1        0.1752
     17 F         -10.2428  -17.5023   20.3323 F       1  UNL1       -0.2009
     18 C          -8.6864  -19.1418   21.6130 C.2     1  UNL1        0.1706
     19 C          -8.4256  -20.0319   22.7918 C.2     1  UNL1        0.0201
     20 C          -9.4603  -20.1728   23.8687 C.3     1  UNL1        0.0751
     21 C         -10.7558  -19.4236   23.7668 C.2     1  UNL1        0.0653
     22 N         -11.9546  -19.3646   24.6664 N.2     1  UNL1       -0.2536
     23 O          -4.6008  -15.8298   24.5011 O.3     1  UNL1       -0.4715
     24 C          -5.3610  -15.9322   25.7901 C.3     1  UNL1        0.2344
     25 C          -6.6896  -15.2508   25.9334 C.3     1  UNL1        0.1541
     26 C          -7.5384  -15.5093   27.1429 C.3     1  UNL1        0.0357
     27 O          -7.1694  -14.3110   24.8674 O.3     1  UNL1       -0.3806
     28 H          -8.0392  -13.9595   25.1138 H       1  UNL1        0.2105
@<TRIPOS>BOND
     1    12    13    1
     2    13    14    2
     3    14    15    1
     4    15    16    2
     5    16    17    1
     6    16    18    1
     7    18    11    1
     8    11     1    1
     9     1     2   ar
    10     2     3   ar
    11     3     4   ar
    12     4     5   ar
    13     5     6   ar
    14     6     7   ar
    15     7    23    1
    16    23    24    1
    17    24    25    1
    18    25    26    1
    19    25    27    1
    20     7     8   ar
    21     8     9    1
    22     8    10   ar
    23    18    19    2
    24    19    20    1
    25    20    21    1
    26    21    22    2
    27    22    13    1
    28    21    15    1
    29    10     1   ar
    30    10     5   ar
    31    27    28    1
@<TRIPOS>MOLECULE
*****
 28 31 0 0 0
SMALL
GASTEIGER

@<TRIPOS>ATOM
      1 C          -6.7360  -17.5001   23.1926 C.ar    1  UNL1        0.2490
      2 N          -5.8634  -16.4013   23.7229 N.ar    1  UNL1       -0.1863
      3 C          -6.4820  -15.1406   24.2500 C.ar    1  UNL1        0.2225
      4 N          -7.9732  -14.9785   24.2468 N.ar    1  UNL1       -0.1420
      5 N          -8.8458  -16.0773   23.7165 N.ar    1  UNL1       -0.2193
      6 C         -10.3349  -16.2021   23.5865 C.ar    1  UNL1        0.1371
      7 C         -10.6367  -17.5400   22.9790 C.ar    1  UNL1        0.1553
      8 C          -9.3340  -18.2420   22.7336 C.ar    1  UNL1        0.0359
      9 C          -9.1675  -19.6082   22.1372 C.3     1  UNL1        0.0360
     10 C          -8.2272  -17.3381   23.1894 C.ar    1  UNL1        0.1353
     11 O          -6.1174  -18.7609   22.6655 O.3     1  UNL1       -0.4328
     12 C           1.1085  -17.5492   19.8475 C.3     1  UNL1        0.0521
     13 C          -0.3336  -17.8620   20.1166 C.2     1  UNL1        0.0591
     14 C          -1.0340  -17.7261   21.4361 C.2     1  UNL1        0.0182
     15 C          -2.4618  -18.1458   21.2485 C.2     1  UNL1        0.0455
     16 C          -3.6196  -18.2190   22.1993 C.2     1  UNL1        0.1752
     17 F          -3.4374  -17.8237   23.6348 F       1  UNL1       -0.2009
     18 C          -4.9596  -18.6876   21.7147 C.2     1  UNL1        0.1706
     19 C          -5.1418  -19.0829   20.2793 C.2     1  UNL1        0.0201
     20 C          -3.9839  -19.0097   19.3284 C.3     1  UNL1        0.0751
     21 C          -2.6439  -18.5411   19.8131 C.2     1  UNL1        0.0653
     22 N          -1.3287  -18.3657   19.1135 N.2     1  UNL1       -0.2536
     23 O         -12.0015  -18.0808   22.6710 O.3     1  UNL1       -0.4715
     24 C         -12.6403  -17.7935   21.3446 C.3     1  UNL1        0.2344
     25 C         -11.7915  -17.3945   20.1741 C.3     1  UNL1        0.1541
     26 C         -11.7702  -15.9665   19.7153 C.3     1  UNL1        0.0357
     27 O         -10.9639  -18.4233   19.4623 O.3     1  UNL1       -0.3806
     28 H         -10.4793  -18.0019   18.7354 H       1  UNL1        0.2105
@<TRIPOS>BOND
     1    12    13    1
     2    13    14    2
     3    14    15    1
     4    15    16    2
     5    16    17    1
     6    16    18    1
     7    18    11    1
     8    11     1    1
     9     1     2   ar
    10     2     3   ar
    11     3     4   ar
    12     4     5   ar
    13     5     6   ar
    14     6     7   ar
    15     7    23    1
    16    23    24    1
    17    24    25    1
    18    25    26    1
    19    25    27    1
    20     7     8   ar
    21     8     9    1
    22     8    10   ar
    23    18    19    2
    24    19    20    1
    25    20    21    1
    26    21    22    2
    27    22    13    1
    28    21    15    1
    29    10     1   ar
    30    10     5   ar
    31    27    28    1
@<TRIPOS>MOLECULE
*****
 28 31 0 0 0
SMALL
GASTEIGER

@<TRIPOS>ATOM
      1 C          -7.7551  -19.6922   21.0930 C.ar    1  UNL1        0.2490
      2 N          -7.4757  -20.3763   19.7877 N.ar    1  UNL1       -0.1863
      3 C          -8.4713  -20.2926   18.6688 C.ar    1  UNL1        0.2225
      4 N          -9.7463  -19.5247   18.8553 N.ar    1  UNL1       -0.1420
      5 N         -10.0257  -18.8406   20.1606 N.ar    1  UNL1       -0.2193
      6 C         -11.1868  -18.0175   20.6341 C.ar    1  UNL1        0.1371
      7 C         -10.9089  -17.5925   22.0455 C.ar    1  UNL1        0.1553
      8 C          -9.5760  -18.1530   22.4444 C.ar    1  UNL1        0.0359
      9 C          -8.9064  -17.9736   23.7746 C.3     1  UNL1        0.0360
     10 C          -9.0301  -18.9244   21.2795 C.ar    1  UNL1        0.1353
     11 O          -6.7595  -19.7759   22.2118 O.3     1  UNL1       -0.4328
     12 C           0.4065  -17.4784   19.9776 C.3     1  UNL1        0.0521
     13 C          -0.9457  -17.6969   20.5890 C.2     1  UNL1        0.0591
     14 C          -1.9184  -18.7757   20.2150 C.2     1  UNL1        0.0182
     15 C          -3.1365  -18.6207   21.0766 C.2     1  UNL1        0.0455
     16 C          -4.4175  -19.3973   21.1528 C.2     1  UNL1        0.1752
     17 F          -4.6375  -20.5720   20.2463 F       1  UNL1       -0.2009
     18 C          -5.4786  -18.9993   22.1356 C.2     1  UNL1        0.1706
     19 C          -5.2586  -17.8246   23.0421 C.2     1  UNL1        0.0201
     20 C          -3.9775  -17.0480   22.9659 C.3     1  UNL1        0.0751
     21 C          -2.9165  -17.4460   21.9831 C.2     1  UNL1        0.0653
     22 N          -1.5625  -16.8751   21.6817 N.2     1  UNL1       -0.2536
     23 O         -11.8064  -16.7542   22.9068 O.3     1  UNL1       -0.4715
     24 C         -13.1739  -17.2509   23.2715 C.3     1  UNL1        0.2344
     25 C         -13.3455  -18.1999   24.4205 C.3     1  UNL1        0.1541
     26 C         -14.7117  -18.4554   24.9846 C.3     1  UNL1        0.0357
     27 O         -12.1509  -18.8933   25.0053 O.3     1  UNL1       -0.3806
     28 H         -12.4347  -19.4667   25.7343 H       1  UNL1        0.2105
@<TRIPOS>BOND
     1    12    13    1
     2    13    14    2
     3    14    15    1
     4    15    16    2
     5    16    17    1
     6    16    18    1
     7    18    11    1
     8    11     1    1
     9     1     2   ar
    10     2     3   ar
    11     3     4   ar
    12     4     5   ar
    13     5     6   ar
    14     6     7   ar
    15     7    23    1
    16    23    24    1
    17    24    25    1
    18    25    26    1
    19    25    27    1
    20     7     8   ar
    21     8     9    1
    22     8    10   ar
    23    18    19    2
    24    19    20    1
    25    20    21    1
    26    21    22    2
    27    22    13    1
    28    21    15    1
    29    10     1   ar
    30    10     5   ar
    31    27    28    1
@<TRIPOS>MOLECULE
*****
 28 31 0 0 0
SMALL
GASTEIGER

@<TRIPOS>ATOM
      1 C          -9.0808  -20.0768   22.9608 C.ar    1  UNL1        0.2490
      2 N          -9.1878  -20.3736   24.4272 N.ar    1  UNL1       -0.1863
      3 C         -10.3454  -19.8402   25.2179 C.ar    1  UNL1        0.2225
      4 N         -11.3961  -19.0098   24.5423 N.ar    1  UNL1       -0.1420
      5 N         -11.2892  -18.7129   23.0759 N.ar    1  UNL1       -0.2193
      6 C         -12.1651  -17.9291   22.1441 C.ar    1  UNL1        0.1371
      7 C         -11.5489  -17.9781   20.7774 C.ar    1  UNL1        0.1553
      8 C         -10.2921  -18.7923   20.8646 C.ar    1  UNL1        0.0359
      9 C          -9.3595  -19.0985   19.7303 C.3     1  UNL1        0.0360
     10 C         -10.1315  -19.2464   22.2851 C.ar    1  UNL1        0.1353
     11 O          -7.9232  -20.6102   22.1700 O.3     1  UNL1       -0.4328
     12 C          -0.8064  -18.2798   19.8156 C.3     1  UNL1        0.0521
     13 C          -2.1604  -18.4869   20.4271 C.2     1  UNL1        0.0591
     14 C          -3.0870  -19.6334   20.1500 C.2     1  UNL1        0.0182
     15 C          -4.3247  -19.4389   20.9747 C.2     1  UNL1        0.0455
     16 C          -5.5781  -20.2516   21.1108 C.2     1  UNL1        0.1752
     17 F          -5.7397  -21.5184   20.3240 F       1  UNL1       -0.2009
     18 C          -6.6699  -19.7975   22.0338 C.2     1  UNL1        0.1706
     19 C          -6.5083  -18.5307   22.8206 C.2     1  UNL1        0.0201
     20 C          -5.2548  -17.7180   22.6844 C.3     1  UNL1        0.0751
     21 C          -4.1631  -18.1721   21.7615 C.2     1  UNL1        0.0653
     22 N          -2.8255  -17.5837   21.4230 N.2     1  UNL1       -0.2536
     23 O         -12.0938  -17.3273   19.5406 O.3     1  UNL1       -0.4715
     24 C         -12.0440  -15.8354   19.3942 C.3     1  UNL1        0.2344
     25 C         -10.7374  -15.1114   19.5316 C.3     1  UNL1        0.1541
     26 C          -9.9743  -15.1795   20.8213 C.3     1  UNL1        0.0357
     27 O         -10.1940  -14.3195   18.3795 O.3     1  UNL1       -0.3806
     28 H          -9.3483  -13.9180   18.6334 H       1  UNL1        0.2105
@<TRIPOS>BOND
     1    12    13    1
     2    13    14    2
     3    14    15    1
     4    15    16    2
     5    16    17    1
     6    16    18    1
     7    18    11    1
     8    11     1    1
     9     1     2   ar
    10     2     3   ar
    11     3     4   ar
    12     4     5   ar
    13     5     6   ar
    14     6     7   ar
    15     7    23    1
    16    23    24    1
    17    24    25    1
    18    25    26    1
    19    25    27    1
    20     7     8   ar
    21     8     9    1
    22     8    10   ar
    23    18    19    2
    24    19    20    1
    25    20    21    1
    26    21    22    2
    27    22    13    1
    28    21    15    1
    29    10     1   ar
    30    10     5   ar
    31    27    28    1
@<TRIPOS>MOLECULE
*****
 28 31 0 0 0
SMALL
GASTEIGER

@<TRIPOS>ATOM
      1 C         -11.7896   -5.1223   19.0523 C.ar    1  UNL1        0.2490
      2 N         -10.3262   -5.4489   19.0101 N.ar    1  UNL1       -0.1863
      3 C          -9.8630   -6.7395   18.4020 C.ar    1  UNL1        0.2225
      4 N         -10.8632   -7.7035   17.8360 N.ar    1  UNL1       -0.1420
      5 N         -12.3266   -7.3769   17.8782 N.ar    1  UNL1       -0.2193
      6 C         -13.5362   -8.1257   17.4027 C.ar    1  UNL1        0.1371
      7 C         -14.7470   -7.2980   17.7169 C.ar    1  UNL1        0.1553
      8 C         -14.2857   -6.0376   18.3867 C.ar    1  UNL1        0.0359
      9 C         -15.1657   -4.9238   18.8716 C.3     1  UNL1        0.0360
     10 C         -12.7898   -6.0863   18.4864 C.ar    1  UNL1        0.1353
     11 O         -12.2528   -3.8318   19.6604 O.3     1  UNL1       -0.4328
     12 C         -13.7942    3.3048   16.7765 C.3     1  UNL1        0.0521
     13 C         -13.2561    1.9626   17.1754 C.2     1  UNL1        0.0591
     14 C         -13.9289    0.9779   18.0851 C.2     1  UNL1        0.0182
     15 C         -13.0394   -0.2238   18.2066 C.2     1  UNL1        0.0455
     16 C         -13.1848   -1.5071   18.9695 C.2     1  UNL1        0.1752
     17 F         -14.4074   -1.7491   19.8041 F       1  UNL1       -0.2009
     18 C         -12.1075   -2.5485   18.8976 C.2     1  UNL1        0.1706
     19 C         -10.8849   -2.3064   18.0629 C.2     1  UNL1        0.0201
     20 C         -10.7396   -1.0230   17.3001 C.3     1  UNL1        0.0751
     21 C         -11.8168    0.0183   17.3720 C.2     1  UNL1        0.0653
     22 N         -11.9508    1.3695   16.7346 N.2     1  UNL1       -0.2536
     23 O         -16.1694   -7.6660   17.4145 O.3     1  UNL1       -0.4715
     24 C         -17.0582   -8.1844   18.5059 C.3     1  UNL1        0.2344
     25 C         -16.7171   -9.4667   19.2055 C.3     1  UNL1        0.1541
     26 C         -17.0993  -10.7807   18.5912 C.3     1  UNL1        0.0357
     27 O         -15.9938   -9.4349   20.5191 O.3     1  UNL1       -0.3806
     28 H         -15.8523  -10.3420   20.8323 H       1  UNL1        0.2105
@<TRIPOS>BOND
     1    12    13    1
     2    13    14    2
     3    14    15    1
     4    15    16    2
     5    16    17    1
     6    16    18    1
     7    18    11    1
     8    11     1    1
     9     1     2   ar
    10     2     3   ar
    11     3     4   ar
    12     4     5   ar
    13     5     6   ar
    14     6     7   ar
    15     7    23    1
    16    23    24    1
    17    24    25    1
    18    25    26    1
    19    25    27    1
    20     7     8   ar
    21     8     9    1
    22     8    10   ar
    23    18    19    2
    24    19    20    1
    25    20    21    1
    26    21    22    2
    27    22    13    1
    28    21    15    1
    29    10     1   ar
    30    10     5   ar
    31    27    28    1
@<TRIPOS>MOLECULE
*****
 28 31 0 0 0
SMALL
GASTEIGER

@<TRIPOS>ATOM
      1 C         -10.6574   -4.4164   18.2125 C.ar    1  UNL1        0.2490
      2 N          -9.5706   -5.0498   17.3953 N.ar    1  UNL1       -0.1863
      3 C          -8.8490   -4.2455   16.3550 C.ar    1  UNL1        0.2225
      4 N          -9.2141   -2.8079   16.1317 N.ar    1  UNL1       -0.1420
      5 N         -10.3009   -2.1746   16.9488 N.ar    1  UNL1       -0.2193
      6 C         -10.8752   -0.7889   16.9534 C.ar    1  UNL1        0.1371
      7 C         -11.9518   -0.7367   17.9966 C.ar    1  UNL1        0.1553
      8 C         -12.0428   -2.0902   18.6368 C.ar    1  UNL1        0.0359
      9 C         -12.9881   -2.4856   19.7322 C.3     1  UNL1        0.0360
     10 C         -11.0225   -2.9788   17.9892 C.ar    1  UNL1        0.1353
     11 O         -11.3790   -5.2207   19.2529 O.3     1  UNL1       -0.4328
     12 C         -18.2823   -8.9554   19.1125 C.3     1  UNL1        0.0521
     13 C         -16.8986   -8.4109   18.9154 C.2     1  UNL1        0.0591
     14 C         -16.2509   -7.3323   19.7321 C.2     1  UNL1        0.0182
     15 C         -14.8716   -7.1041   19.1885 C.2     1  UNL1        0.0455
     16 C         -13.7757   -6.1638   19.5942 C.2     1  UNL1        0.1752
     17 F         -13.9804   -5.2262   20.7470 F       1  UNL1       -0.2009
     18 C         -12.4749   -6.1610   18.8471 C.2     1  UNL1        0.1706
     19 C         -12.2701   -7.0987   17.6943 C.2     1  UNL1        0.0201
     20 C         -13.3662   -8.0390   17.2886 C.3     1  UNL1        0.0751
     21 C         -14.6668   -8.0418   18.0357 C.2     1  UNL1        0.0653
     22 N         -15.9196   -8.8493   17.8669 N.2     1  UNL1       -0.2536
     23 O         -12.7901    0.4590   18.3395 O.3     1  UNL1       -0.4715
     24 C         -14.1643    0.6037   17.7559 C.3     1  UNL1        0.2344
     25 C         -15.3598    0.1239   18.5244 C.3     1  UNL1        0.1541
     26 C         -15.9642    0.9905   19.5892 C.3     1  UNL1        0.0357
     27 O         -15.9509   -1.2225   18.2280 O.3     1  UNL1       -0.3806
     28 H         -16.7119   -1.3766   18.8094 H       1  UNL1        0.2105
@<TRIPOS>BOND
     1    12    13    1
     2    13    14    2
     3    14    15    1
     4    15    16    2
     5    16    17    1
     6    16    18    1
     7    18    11    1
     8    11     1    1
     9     1     2   ar
    10     2     3   ar
    11     3     4   ar
    12     4     5   ar
    13     5     6   ar
    14     6     7   ar
    15     7    23    1
    16    23    24    1
    17    24    25    1
    18    25    26    1
    19    25    27    1
    20     7     8   ar
    21     8     9    1
    22     8    10   ar
    23    18    19    2
    24    19    20    1
    25    20    21    1
    26    21    22    2
    27    22    13    1
    28    21    15    1
    29    10     1   ar
    30    10     5   ar
    31    27    28    1
@<TRIPOS>MOLECULE
*****
 28 31 0 0 0
SMALL
GASTEIGER

@<TRIPOS>ATOM
      1 C          -6.6274  -15.6993   25.1548 C.ar    1  UNL1        0.2490
      2 N          -6.3066  -15.4510   26.5989 N.ar    1  UNL1       -0.1863
      3 C          -7.2393  -15.9368   27.6685 C.ar    1  UNL1        0.2225
      4 N          -8.4927  -16.6708   27.2941 N.ar    1  UNL1       -0.1420
      5 N          -8.8134  -16.9190   25.8500 N.ar    1  UNL1       -0.2193
      6 C          -9.9660  -17.6084   25.1820 C.ar    1  UNL1        0.1371
      7 C          -9.7457  -17.5488   23.6995 C.ar    1  UNL1        0.1553
      8 C          -8.4570  -16.8225   23.4513 C.ar    1  UNL1        0.0359
      9 C          -7.8508  -16.5358   22.1095 C.3     1  UNL1        0.0360
     10 C          -7.8808  -16.4333   24.7804 C.ar    1  UNL1        0.1353
     11 O          -5.6947  -15.2135   24.0851 O.3     1  UNL1       -0.4328
     12 C           0.3624  -17.9124   19.8837 C.3     1  UNL1        0.0521
     13 C          -0.8339  -17.6733   20.7565 C.2     1  UNL1        0.0591
     14 C          -1.4658  -16.3430   21.0413 C.2     1  UNL1        0.0182
     15 C          -2.6308  -16.5700   21.9586 C.2     1  UNL1        0.0455
     16 C          -3.6227  -15.6277   22.5734 C.2     1  UNL1        0.1752
     17 F          -3.5346  -14.1571   22.2912 F       1  UNL1       -0.2009
     18 C          -4.7028  -16.1559   23.4703 C.2     1  UNL1        0.1706
     19 C          -4.7909  -17.6265   23.7524 C.2     1  UNL1        0.0201
     20 C          -3.7989  -18.5689   23.1376 C.3     1  UNL1        0.0751
     21 C          -2.7189  -18.0406   22.2407 C.2     1  UNL1        0.0653
     22 N          -1.6083  -18.7224   21.4978 N.2     1  UNL1       -0.2536
     23 O         -10.6546  -18.1159   22.6495 O.3     1  UNL1       -0.4715
     24 C         -11.4680  -17.1978   21.7863 C.3     1  UNL1        0.2344
     25 C         -11.1145  -17.0196   20.3394 C.3     1  UNL1        0.1541
     26 C         -11.6685  -15.8575   19.5696 C.3     1  UNL1        0.0357
     27 O         -10.2071  -18.0036   19.6624 O.3     1  UNL1       -0.3806
     28 H         -10.0820  -17.7439   18.7362 H       1  UNL1        0.2105
@<TRIPOS>BOND
     1    12    13    1
     2    13    14    2
     3    14    15    1
     4    15    16    2
     5    16    17    1
     6    16    18    1
     7    18    11    1
     8    11     1    1
     9     1     2   ar
    10     2     3   ar
    11     3     4   ar
    12     4     5   ar
    13     5     6   ar
    14     6     7   ar
    15     7    23    1
    16    23    24    1
    17    24    25    1
    18    25    26    1
    19    25    27    1
    20     7     8   ar
    21     8     9    1
    22     8    10   ar
    23    18    19    2
    24    19    20    1
    25    20    21    1
    26    21    22    2
    27    22    13    1
    28    21    15    1
    29    10     1   ar
    30    10     5   ar
    31    27    28    1
@<TRIPOS>MOLECULE
*****
 28 31 0 0 0
SMALL
GASTEIGER

@<TRIPOS>ATOM
      1 C           7.8962   -4.8582   23.6595 C.ar    1  UNL1        0.2490
      2 N           8.5274   -5.8036   22.6810 N.ar    1  UNL1       -0.1863
      3 C           8.7579   -7.2356   23.0636 C.ar    1  UNL1        0.2225
      4 N           8.3571   -7.7221   24.4247 N.ar    1  UNL1       -0.1420
      5 N           7.7259   -6.7766   25.4032 N.ar    1  UNL1       -0.2193
      6 C           7.2305   -6.9670   26.8062 C.ar    1  UNL1        0.1371
      7 C           6.6938   -5.6527   27.2907 C.ar    1  UNL1        0.1553
      8 C           6.8575   -4.6501   26.1871 C.ar    1  UNL1        0.0359
      9 C           6.4542   -3.2063   26.2406 C.3     1  UNL1        0.0360
     10 C           7.4954   -5.3446   25.0206 C.ar    1  UNL1        0.1353
     11 O           7.6657   -3.4262   23.2769 O.3     1  UNL1       -0.4328
     12 C           3.8256   -0.8925   16.9163 C.3     1  UNL1        0.0521
     13 C           4.2960   -1.4274   18.2364 C.2     1  UNL1        0.0591
     14 C           5.7243   -1.5687   18.6720 C.2     1  UNL1        0.0182
     15 C           5.7317   -2.1435   20.0575 C.2     1  UNL1        0.0455
     16 C           6.8510   -2.4997   20.9904 C.2     1  UNL1        0.1752
     17 F           8.2748   -2.2857   20.5698 F       1  UNL1       -0.2009
     18 C           6.5464   -3.0700   22.3440 C.2     1  UNL1        0.1706
     19 C           5.1226   -3.2840   22.7646 C.2     1  UNL1        0.0201
     20 C           4.0033   -2.9277   21.8317 C.3     1  UNL1        0.0751
     21 C           4.3079   -2.3575   20.4781 C.2     1  UNL1        0.0653
     22 N           3.4206   -1.9149   19.3526 N.2     1  UNL1       -0.2536
     23 O           6.0979   -5.3877   28.6415 O.3     1  UNL1       -0.4715
     24 C           6.9604   -4.8662   29.7524 C.3     1  UNL1        0.2344
     25 C           7.4247   -5.7906   30.8386 C.3     1  UNL1        0.1541
     26 C           8.7777   -6.4322   30.7500 C.3     1  UNL1        0.0357
     27 O           6.5360   -6.0735   32.0134 O.3     1  UNL1       -0.3806
     28 H           6.9842   -6.6857   32.6178 H       1  UNL1        0.2105
@<TRIPOS>BOND
     1    12    13    1
     2    13    14    2
     3    14    15    1
     4    15    16    2
     5    16    17    1
     6    16    18    1
     7    18    11    1
     8    11     1    1
     9     1     2   ar
    10     2     3   ar
    11     3     4   ar
    12     4     5   ar
    13     5     6   ar
    14     6     7   ar
    15     7    23    1
    16    23    24    1
    17    24    25    1
    18    25    26    1
    19    25    27    1
    20     7     8   ar
    21     8     9    1
    22     8    10   ar
    23    18    19    2
    24    19    20    1
    25    20    21    1
    26    21    22    2
    27    22    13    1
    28    21    15    1
    29    10     1   ar
    30    10     5   ar
    31    27    28    1
