@<TRIPOS>MOLECULE
*****
 32 35 0 0 0
SMALL
GASTEIGER

@<TRIPOS>ATOM
      1 N           1.1927    1.2130   25.1773 N.ar    1  UNL1       -0.2286
      2 C           0.1258    1.2585   24.1240 C.ar    1  UNL1        0.0990
      3 C           0.7856    1.0838   22.7882 C.ar    1  UNL1        0.0338
      4 C           2.2602    0.9302   23.0161 C.ar    1  UNL1        0.0981
      5 N           2.5118    1.0100   24.4927 N.ar    1  UNL1       -0.1680
      6 C           2.9199    0.7554   21.6804 C.3     1  UNL1        0.1414
      7 N           1.8530    0.8010   20.6269 N.am    1  UNL1       -0.2660
      8 C           2.0676    0.6671   19.1484 C.2     1  UNL1        0.2525
      9 O           0.8978    0.7332   18.2117 O.2     1  UNL1       -0.2698
     10 C           0.5339    1.0039   21.3116 C.3     1  UNL1        0.1236
     11 C          -1.6793    0.2943   29.4091 C.3     1  UNL1        0.0521
     12 C          -0.4578    0.8875   28.7718 C.ar    1  UNL1        0.0609
     13 C          -0.2432    0.7537   27.2933 C.ar    1  UNL1        0.0339
     14 C           0.9782    1.3468   26.6559 C.ar    1  UNL1        0.0855
     15 C           1.9851    2.0738   27.4970 C.ar    1  UNL1        0.0398
     16 C           1.7705    2.2077   28.9756 C.ar    1  UNL1        0.1000
     17 N           0.5491    1.6145   29.6130 N.ar    1  UNL1       -0.2480
     18 C           3.4519    0.4672   18.6065 C.ar    1  UNL1        0.0881
     19 C           4.2283    1.6385   18.0820 C.ar    1  UNL1        0.0178
     20 C           5.6127    1.4386   17.5400 C.ar    1  UNL1        0.0688
     21 C           6.2205    0.0674   17.5225 C.ar    1  UNL1        0.0134
     22 C           5.4441   -1.1039   18.0471 C.ar    1  UNL1        0.0377
     23 C           4.0598   -0.9040   18.5890 C.ar    1  UNL1        0.1431
     24 C           6.3891    2.6100   17.0155 C.1     1  UNL1        0.1004
     25 N           7.1656    3.7813   16.4911 N.1     1  UNL1       -0.1908
     26 O           3.2833   -2.0753   19.1135 O.3     1  UNL1       -0.4702
     27 C           3.9878   -3.1675   19.8624 C.3     1  UNL1        0.2599
     28 C           4.3153   -2.9901   21.3154 C.3     1  UNL1        0.0566
     29 C           4.3649   -4.4371   19.1581 C.3     1  UNL1        0.4340
     30 F           4.7419   -5.7067   18.4539 F       1  UNL1       -0.1664
     31 F           5.7963   -4.2336   19.5578 F       1  UNL1       -0.1664
     32 F           2.9335   -4.6405   18.7584 F       1  UNL1       -0.1664
@<TRIPOS>BOND
     1    11    12    1
     2    12    13   ar
     3    13    14   ar
     4    14     1    1
     5     1     2   ar
     6     2     3   ar
     7     3     4   ar
     8     4     5   ar
     9     4     6    1
    10     6     7    1
    11     7     8   am
    12     8     9    2
    13     8    18    1
    14    18    19   ar
    15    19    20   ar
    16    20    24    1
    17    24    25    3
    18    20    21   ar
    19    21    22   ar
    20    22    23   ar
    21    23    26    1
    22    26    27    1
    23    27    28    1
    24    27    29    1
    25    29    30    1
    26    29    31    1
    27    29    32    1
    28     7    10    1
    29    14    15   ar
    30    15    16   ar
    31    16    17   ar
    32    17    12   ar
    33     5     1   ar
    34    23    18   ar
    35    10     3    1
@<TRIPOS>MOLECULE
*****
 32 35 0 0 0
SMALL
GASTEIGER

@<TRIPOS>ATOM
      1 N           3.9205   -0.4890   21.1568 N.ar    1  UNL1       -0.2286
      2 C           3.8995    1.0046   21.2941 C.ar    1  UNL1        0.0990
      3 C           3.1937    1.3424   22.5738 C.ar    1  UNL1        0.0338
      4 C           2.7785    0.0577   23.2274 C.ar    1  UNL1        0.0981
      5 N           3.2277   -1.0742   22.3516 N.ar    1  UNL1       -0.1680
      6 C           2.0727    0.3955   24.5071 C.3     1  UNL1        0.1414
      7 N           2.0516    1.8891   24.6445 N.am    1  UNL1       -0.2660
      8 C           1.4444    2.6618   25.7776 C.2     1  UNL1        0.2525
      9 O           1.5003    4.1608   25.7783 O.2     1  UNL1       -0.2698
     10 C           2.7445    2.4743   23.4496 C.3     1  UNL1        0.1236
     11 C           4.6233   -4.9798   18.6391 C.3     1  UNL1        0.0521
     12 C           4.8792   -3.5072   18.7647 C.ar    1  UNL1        0.0609
     13 C           4.2719   -2.7344   19.8979 C.ar    1  UNL1        0.0339
     14 C           4.5278   -1.2617   20.0235 C.ar    1  UNL1        0.0855
     15 C           5.3909   -0.5618   19.0160 C.ar    1  UNL1        0.0398
     16 C           5.9981   -1.3346   17.8828 C.ar    1  UNL1        0.1000
     17 N           5.7422   -2.8073   17.7571 N.ar    1  UNL1       -0.2480
     18 C           0.7812    1.9356   26.9102 C.ar    1  UNL1        0.0881
     19 C           1.6148    1.2492   27.9514 C.ar    1  UNL1        0.0178
     20 C           0.9516    0.5230   29.0841 C.ar    1  UNL1        0.0688
     21 C          -0.5450    0.4831   29.1755 C.ar    1  UNL1        0.0134
     22 C          -1.3786    1.1695   28.1343 C.ar    1  UNL1        0.0377
     23 C          -0.7155    1.8957   27.0017 C.ar    1  UNL1        0.1431
     24 C           1.7852   -0.1634   30.1253 C.1     1  UNL1        0.1004
     25 N           2.6187   -0.8497   31.1665 N.1     1  UNL1       -0.1908
     26 O          -1.5490    2.5820   25.9605 O.3     1  UNL1       -0.4702
     27 C          -2.3965    3.7614   26.3358 C.3     1  UNL1        0.2599
     28 C          -1.7806    4.9335   27.0408 C.3     1  UNL1        0.0566
     29 C          -3.8598    3.7687   26.0063 C.3     1  UNL1        0.4340
     30 F          -5.3231    3.7760   25.6768 F       1  UNL1       -0.1664
     31 F          -3.5619    3.1554   24.6702 F       1  UNL1       -0.1664
     32 F          -4.1576    4.3820   27.3425 F       1  UNL1       -0.1664
@<TRIPOS>BOND
     1    11    12    1
     2    12    13   ar
     3    13    14   ar
     4    14     1    1
     5     1     2   ar
     6     2     3   ar
     7     3     4   ar
     8     4     5   ar
     9     4     6    1
    10     6     7    1
    11     7     8   am
    12     8     9    2
    13     8    18    1
    14    18    19   ar
    15    19    20   ar
    16    20    24    1
    17    24    25    3
    18    20    21   ar
    19    21    22   ar
    20    22    23   ar
    21    23    26    1
    22    26    27    1
    23    27    28    1
    24    27    29    1
    25    29    30    1
    26    29    31    1
    27    29    32    1
    28     7    10    1
    29    14    15   ar
    30    15    16   ar
    31    16    17   ar
    32    17    12   ar
    33     5     1   ar
    34    23    18   ar
    35    10     3    1
@<TRIPOS>MOLECULE
*****
 32 35 0 0 0
SMALL
GASTEIGER

@<TRIPOS>ATOM
      1 N           2.8838    0.4160   19.0589 N.ar    1  UNL1       -0.2286
      2 C           2.8476    1.8680   18.6841 C.ar    1  UNL1        0.0990
      3 C           1.6172    2.4731   19.2923 C.ar    1  UNL1        0.0338
      4 C           0.8930    1.3951   20.0430 C.ar    1  UNL1        0.0981
      5 N           1.6758    0.1237   19.8987 N.ar    1  UNL1       -0.1680
      6 C          -0.3375    2.0002   20.6511 C.3     1  UNL1        0.1414
      7 N          -0.3737    3.4522   20.2763 N.am    1  UNL1       -0.2660
      8 C          -1.4321    4.4387   20.6719 C.2     1  UNL1        0.2525
      9 O          -1.3342    5.8656   20.2196 O.2     1  UNL1       -0.2698
     10 C           0.8344    3.7444   19.4365 C.3     1  UNL1        0.1236
     11 C           4.6059   -4.4804   18.8145 C.3     1  UNL1        0.0521
     12 C           4.8033   -3.0188   18.5411 C.ar    1  UNL1        0.0609
     13 C           3.7449   -2.0322   18.9367 C.ar    1  UNL1        0.0339
     14 C           3.9423   -0.5706   18.6634 C.ar    1  UNL1        0.0855
     15 C           5.1980   -0.0955   17.9945 C.ar    1  UNL1        0.0398
     16 C           6.2564   -1.0822   17.5990 C.ar    1  UNL1        0.1000
     17 N           6.0591   -2.5438   17.8723 N.ar    1  UNL1       -0.2480
     18 C          -2.5885    3.9985   21.5197 C.ar    1  UNL1        0.0881
     19 C          -2.4942    4.0748   23.0148 C.ar    1  UNL1        0.0178
     20 C          -3.6507    3.6346   23.8628 C.ar    1  UNL1        0.0688
     21 C          -4.9013    3.1180   23.2156 C.ar    1  UNL1        0.0134
     22 C          -4.9956    3.0416   21.7205 C.ar    1  UNL1        0.0377
     23 C          -3.8392    3.4818   20.8726 C.ar    1  UNL1        0.1431
     24 C          -3.5562    3.7110   25.3578 C.1     1  UNL1        0.1004
     25 N          -3.4619    3.7873   26.8529 N.1     1  UNL1       -0.1908
     26 O          -3.9335    3.4054   19.3775 O.3     1  UNL1       -0.4702
     27 C          -4.7542    4.4109   18.6254 C.3     1  UNL1        0.2599
     28 C          -4.0776    5.5054   17.8546 C.3     1  UNL1        0.0566
     29 C          -6.2514    4.3218   18.6442 C.3     1  UNL1        0.4340
     30 F          -7.7486    4.2325   18.6629 F       1  UNL1       -0.1664
     31 F          -6.3389    5.8151   18.7541 F       1  UNL1       -0.1664
     32 F          -6.1639    2.8283   18.5342 F       1  UNL1       -0.1664
@<TRIPOS>BOND
     1    11    12    1
     2    12    13   ar
     3    13    14   ar
     4    14     1    1
     5     1     2   ar
     6     2     3   ar
     7     3     4   ar
     8     4     5   ar
     9     4     6    1
    10     6     7    1
    11     7     8   am
    12     8     9    2
    13     8    18    1
    14    18    19   ar
    15    19    20   ar
    16    20    24    1
    17    24    25    3
    18    20    21   ar
    19    21    22   ar
    20    22    23   ar
    21    23    26    1
    22    26    27    1
    23    27    28    1
    24    27    29    1
    25    29    30    1
    26    29    31    1
    27    29    32    1
    28     7    10    1
    29    14    15   ar
    30    15    16   ar
    31    16    17   ar
    32    17    12   ar
    33     5     1   ar
    34    23    18   ar
    35    10     3    1
@<TRIPOS>MOLECULE
*****
 32 35 0 0 0
SMALL
GASTEIGER

@<TRIPOS>ATOM
      1 N           2.8698   -1.2737   19.6117 N.ar    1  UNL1       -0.2286
      2 C           3.1546    0.0016   18.8752 C.ar    1  UNL1        0.0990
      3 C           1.9997    0.9328   19.0970 C.ar    1  UNL1        0.0338
      4 C           1.0012    0.2330   19.9706 C.ar    1  UNL1        0.0981
      5 N           1.5390   -1.1307   20.2887 N.ar    1  UNL1       -0.1680
      6 C          -0.1537    1.1641   20.1925 C.3     1  UNL1        0.1414
      7 N           0.1311    2.4395   19.4559 N.am    1  UNL1       -0.2660
      8 C          -0.7587    3.6459   19.4053 C.2     1  UNL1        0.2525
      9 O          -0.3389    4.8553   18.6234 O.2     1  UNL1       -0.2698
     10 C           1.4620    2.2964   18.7789 C.3     1  UNL1        0.1236
     11 C           7.3413   -3.5111   21.0258 C.3     1  UNL1        0.0521
     12 C           5.9954   -3.5990   20.3694 C.ar    1  UNL1        0.0609
     13 C           5.1055   -2.3925   20.3187 C.ar    1  UNL1        0.0339
     14 C           3.7596   -2.4802   19.6623 C.ar    1  UNL1        0.0855
     15 C           3.3036   -3.7744   19.0565 C.ar    1  UNL1        0.0398
     16 C           4.1935   -4.9809   19.1072 C.ar    1  UNL1        0.1000
     17 N           5.5394   -4.8932   19.7636 N.ar    1  UNL1       -0.2480
     18 C          -2.0683    3.6431   20.1366 C.ar    1  UNL1        0.0881
     19 C          -3.3564    3.6590   19.3681 C.ar    1  UNL1        0.0178
     20 C          -4.6662    3.6562   20.0994 C.ar    1  UNL1        0.0688
     21 C          -4.6878    3.6376   21.5990 C.ar    1  UNL1        0.0134
     22 C          -3.3997    3.6217   22.3676 C.ar    1  UNL1        0.0377
     23 C          -2.0900    3.6244   21.6364 C.ar    1  UNL1        0.1431
     24 C          -5.9542    3.6721   19.3308 C.1     1  UNL1        0.1004
     25 N          -7.2422    3.6879   18.5622 N.1     1  UNL1       -0.1908
     26 O          -0.8019    3.6085   22.4048 O.3     1  UNL1       -0.4702
     27 C          -0.8194    3.7227   23.9004 C.3     1  UNL1        0.2599
     28 C          -0.9333    5.0706   24.5484 C.3     1  UNL1        0.0566
     29 C          -0.7229    2.4888   24.7479 C.3     1  UNL1        0.4340
     30 F          -0.6265    1.2550   25.5954 F       1  UNL1       -0.1664
     31 F           0.6383    2.2079   24.1839 F       1  UNL1       -0.1664
     32 F          -2.0842    2.7698   25.3119 F       1  UNL1       -0.1664
@<TRIPOS>BOND
     1    11    12    1
     2    12    13   ar
     3    13    14   ar
     4    14     1    1
     5     1     2   ar
     6     2     3   ar
     7     3     4   ar
     8     4     5   ar
     9     4     6    1
    10     6     7    1
    11     7     8   am
    12     8     9    2
    13     8    18    1
    14    18    19   ar
    15    19    20   ar
    16    20    24    1
    17    24    25    3
    18    20    21   ar
    19    21    22   ar
    20    22    23   ar
    21    23    26    1
    22    26    27    1
    23    27    28    1
    24    27    29    1
    25    29    30    1
    26    29    31    1
    27    29    32    1
    28     7    10    1
    29    14    15   ar
    30    15    16   ar
    31    16    17   ar
    32    17    12   ar
    33     5     1   ar
    34    23    18   ar
    35    10     3    1
@<TRIPOS>MOLECULE
*****
 32 35 0 0 0
SMALL
GASTEIGER

@<TRIPOS>ATOM
      1 N           5.6973   -1.9122   27.8556 N.ar    1  UNL1       -0.2286
      2 C           6.7177   -1.3485   26.9118 C.ar    1  UNL1        0.0990
      3 C           6.0128   -0.9566   25.6470 C.ar    1  UNL1        0.0338
      4 C           4.5567   -1.2782   25.8092 C.ar    1  UNL1        0.0981
      5 N           4.3616   -1.8688   27.1742 N.ar    1  UNL1       -0.1680
      6 C           3.8517   -0.8864   24.5445 C.3     1  UNL1        0.1414
      7 N           4.8722   -0.3226   23.6006 N.am    1  UNL1       -0.2660
      8 C           4.6042    0.1939   22.2181 C.2     1  UNL1        0.2525
      9 O           5.7312    0.7307   21.3863 O.2     1  UNL1       -0.2698
     10 C           6.2078   -0.3660   24.2821 C.3     1  UNL1        0.1236
     11 C           7.3527   -5.7026   31.0009 C.3     1  UNL1        0.0521
     12 C           6.7930   -4.3239   30.8108 C.ar    1  UNL1        0.0609
     13 C           6.5250   -3.8073   29.4283 C.ar    1  UNL1        0.0339
     14 C           5.9653   -2.4287   29.2381 C.ar    1  UNL1        0.0855
     15 C           5.6737   -1.5666   30.4305 C.ar    1  UNL1        0.0398
     16 C           5.9417   -2.0832   31.8130 C.ar    1  UNL1        0.1000
     17 N           6.5014   -3.4618   32.0032 N.ar    1  UNL1       -0.2480
     18 C           3.2091    0.1736   21.6673 C.ar    1  UNL1        0.0881
     19 C           2.2742    1.3118   21.9510 C.ar    1  UNL1        0.0178
     20 C           0.8791    1.2916   21.4001 C.ar    1  UNL1        0.0688
     21 C           0.4189    0.1332   20.5657 C.ar    1  UNL1        0.0134
     22 C           1.3539   -1.0050   20.2820 C.ar    1  UNL1        0.0377
     23 C           2.7489   -0.9848   20.8328 C.ar    1  UNL1        0.1431
     24 C          -0.0558    2.4298   21.6839 C.1     1  UNL1        0.1004
     25 N          -0.9906    3.5681   21.9675 N.1     1  UNL1       -0.1908
     26 O           3.6838   -2.1230   20.5491 O.3     1  UNL1       -0.4702
     27 C           4.1323   -2.3926   19.1434 C.3     1  UNL1        0.2599
     28 C           4.3085   -1.2555   18.1812 C.3     1  UNL1        0.0566
     29 C           4.4046   -3.7994   18.6999 C.3     1  UNL1        0.4340
     30 F           4.6768   -5.2063   18.2564 F       1  UNL1       -0.1664
     31 F           5.6560   -3.3404   18.0120 F       1  UNL1       -0.1664
     32 F           3.1531   -4.2585   19.3878 F       1  UNL1       -0.1664
@<TRIPOS>BOND
     1    11    12    1
     2    12    13   ar
     3    13    14   ar
     4    14     1    1
     5     1     2   ar
     6     2     3   ar
     7     3     4   ar
     8     4     5   ar
     9     4     6    1
    10     6     7    1
    11     7     8   am
    12     8     9    2
    13     8    18    1
    14    18    19   ar
    15    19    20   ar
    16    20    24    1
    17    24    25    3
    18    20    21   ar
    19    21    22   ar
    20    22    23   ar
    21    23    26    1
    22    26    27    1
    23    27    28    1
    24    27    29    1
    25    29    30    1
    26    29    31    1
    27    29    32    1
    28     7    10    1
    29    14    15   ar
    30    15    16   ar
    31    16    17   ar
    32    17    12   ar
    33     5     1   ar
    34    23    18   ar
    35    10     3    1
@<TRIPOS>MOLECULE
*****
 32 35 0 0 0
SMALL
GASTEIGER

@<TRIPOS>ATOM
      1 N           5.9001   -1.9525   27.9770 N.ar    1  UNL1       -0.2286
      2 C           6.9403   -1.2992   27.1162 C.ar    1  UNL1        0.0990
      3 C           6.3040   -0.9520   25.8031 C.ar    1  UNL1        0.0338
      4 C           4.8704   -1.3908   25.8522 C.ar    1  UNL1        0.0981
      5 N           4.6208   -2.0091   27.1958 N.ar    1  UNL1       -0.1680
      6 C           4.2341   -1.0436   24.5390 C.3     1  UNL1        0.1414
      7 N           5.2744   -0.3902   23.6782 N.am    1  UNL1       -0.2660
      8 C           5.0711    0.1174   22.2815 C.2     1  UNL1        0.2525
      9 O           6.2109    0.7513   21.5404 O.2     1  UNL1       -0.2698
     10 C           6.5536   -0.3336   24.4594 C.3     1  UNL1        0.1236
     11 C           7.3391   -5.7485   31.2205 C.3     1  UNL1        0.0521
     12 C           6.8229   -4.3582   30.9956 C.ar    1  UNL1        0.0609
     13 C           6.6196   -3.8505   29.5988 C.ar    1  UNL1        0.0339
     14 C           6.1033   -2.4602   29.3738 C.ar    1  UNL1        0.0855
     15 C           5.7904   -1.5776   30.5456 C.ar    1  UNL1        0.0398
     16 C           5.9937   -2.0853   31.9423 C.ar    1  UNL1        0.1000
     17 N           6.5099   -3.4756   32.1673 N.ar    1  UNL1       -0.2480
     18 C           3.7279   -0.0087   21.6257 C.ar    1  UNL1        0.0881
     19 C           2.6127    0.9151   22.0166 C.ar    1  UNL1        0.0178
     20 C           1.2695    0.7890   21.3607 C.ar    1  UNL1        0.0688
     21 C           1.0416   -0.2609   20.3141 C.ar    1  UNL1        0.0134
     22 C           2.1568   -1.1848   19.9231 C.ar    1  UNL1        0.0377
     23 C           3.4999   -1.0587   20.5789 C.ar    1  UNL1        0.1431
     24 C           0.1544    1.7129   21.7518 C.1     1  UNL1        0.1004
     25 N          -0.9607    2.6368   22.1429 N.1     1  UNL1       -0.1908
     26 O           4.6151   -1.9825   20.1880 O.3     1  UNL1       -0.4702
     27 C           4.5282   -3.4437   20.5155 C.3     1  UNL1        0.2599
     28 C           4.3484   -3.8841   21.9381 C.3     1  UNL1        0.0566
     29 C           4.6212   -4.4646   19.4204 C.3     1  UNL1        0.4340
     30 F           4.7142   -5.4854   18.3254 F       1  UNL1       -0.1664
     31 F           3.1784   -4.2328   19.0819 F       1  UNL1       -0.1664
     32 F           6.0641   -4.6964   19.7590 F       1  UNL1       -0.1664
@<TRIPOS>BOND
     1    11    12    1
     2    12    13   ar
     3    13    14   ar
     4    14     1    1
     5     1     2   ar
     6     2     3   ar
     7     3     4   ar
     8     4     5   ar
     9     4     6    1
    10     6     7    1
    11     7     8   am
    12     8     9    2
    13     8    18    1
    14    18    19   ar
    15    19    20   ar
    16    20    24    1
    17    24    25    3
    18    20    21   ar
    19    21    22   ar
    20    22    23   ar
    21    23    26    1
    22    26    27    1
    23    27    28    1
    24    27    29    1
    25    29    30    1
    26    29    31    1
    27    29    32    1
    28     7    10    1
    29    14    15   ar
    30    15    16   ar
    31    16    17   ar
    32    17    12   ar
    33     5     1   ar
    34    23    18   ar
    35    10     3    1
@<TRIPOS>MOLECULE
*****
 32 35 0 0 0
SMALL
GASTEIGER

@<TRIPOS>ATOM
      1 N           2.6415    0.0951   19.5465 N.ar    1  UNL1       -0.2286
      2 C           3.0016    1.5454   19.6761 C.ar    1  UNL1        0.0990
      3 C           1.7758    2.2897   20.1160 C.ar    1  UNL1        0.0338
      4 C           0.6582    1.2994   20.2582 C.ar    1  UNL1        0.0981
      5 N           1.1933   -0.0570   19.9063 N.ar    1  UNL1       -0.1680
      6 C          -0.5676    2.0437   20.6981 C.3     1  UNL1        0.1414
      7 N          -0.2076    3.4941   20.8278 N.am    1  UNL1       -0.2660
      8 C          -1.1332    4.5985   21.2441 C.2     1  UNL1        0.2525
      9 O          -0.6282    6.0085   21.3291 O.2     1  UNL1       -0.2698
     10 C           1.2407    3.6461   20.4680 C.3     1  UNL1        0.1236
     11 C           3.8501   -4.9571   19.4231 C.3     1  UNL1        0.0521
     12 C           4.1715   -3.5355   19.0685 C.ar    1  UNL1        0.0609
     13 C           3.2459   -2.4310   19.4848 C.ar    1  UNL1        0.0339
     14 C           3.5672   -1.0094   19.1302 C.ar    1  UNL1        0.0855
     15 C           4.8142   -0.6922   18.3593 C.ar    1  UNL1        0.0398
     16 C           5.7399   -1.7967   17.9430 C.ar    1  UNL1        0.1000
     17 N           5.4186   -3.2183   18.2976 N.ar    1  UNL1       -0.2480
     18 C          -2.5639    4.2931   21.5754 C.ar    1  UNL1        0.0881
     19 C          -3.5665    4.1118   20.4745 C.ar    1  UNL1        0.0178
     20 C          -4.9973    3.8064   20.8058 C.ar    1  UNL1        0.0688
     21 C          -5.4254    3.6822   22.2380 C.ar    1  UNL1        0.0134
     22 C          -4.4228    3.8635   23.3390 C.ar    1  UNL1        0.0377
     23 C          -2.9921    4.1689   23.0076 C.ar    1  UNL1        0.1431
     24 C          -5.9997    3.6251   19.7048 C.1     1  UNL1        0.1004
     25 N          -7.0023    3.4439   18.6039 N.1     1  UNL1       -0.1908
     26 O          -1.9896    4.3502   24.1085 O.3     1  UNL1       -0.4702
     27 C          -2.0366    3.4655   25.3190 C.3     1  UNL1        0.2599
     28 C          -3.0209    3.7463   26.4154 C.3     1  UNL1        0.0566
     29 C          -1.0993    2.3000   25.4329 C.3     1  UNL1        0.4340
     30 F          -0.1621    1.1344   25.5470 F       1  UNL1       -0.1664
     31 F          -0.6887    2.4903   24.0028 F       1  UNL1       -0.1664
     32 F          -1.5099    2.1096   26.8631 F       1  UNL1       -0.1664
@<TRIPOS>BOND
     1    11    12    1
     2    12    13   ar
     3    13    14   ar
     4    14     1    1
     5     1     2   ar
     6     2     3   ar
     7     3     4   ar
     8     4     5   ar
     9     4     6    1
    10     6     7    1
    11     7     8   am
    12     8     9    2
    13     8    18    1
    14    18    19   ar
    15    19    20   ar
    16    20    24    1
    17    24    25    3
    18    20    21   ar
    19    21    22   ar
    20    22    23   ar
    21    23    26    1
    22    26    27    1
    23    27    28    1
    24    27    29    1
    25    29    30    1
    26    29    31    1
    27    29    32    1
    28     7    10    1
    29    14    15   ar
    30    15    16   ar
    31    16    17   ar
    32    17    12   ar
    33     5     1   ar
    34    23    18   ar
    35    10     3    1
@<TRIPOS>MOLECULE
*****
 32 35 0 0 0
SMALL
GASTEIGER

@<TRIPOS>ATOM
      1 N           5.1492   -1.9164   26.7775 N.ar    1  UNL1       -0.2286
      2 C           3.7877   -1.3253   26.5604 C.ar    1  UNL1        0.0990
      3 C           3.6756   -0.9382   25.1156 C.ar    1  UNL1        0.0338
      4 C           4.9677   -1.2899   24.4398 C.ar    1  UNL1        0.0981
      5 N           5.8785   -1.8945   25.4669 N.ar    1  UNL1       -0.1680
      6 C           4.8556   -0.9028   22.9949 C.3     1  UNL1        0.1414
      7 N           3.4941   -0.3117   22.7777 N.am    1  UNL1       -0.2660
      8 C           2.9564    0.2096   21.4782 C.2     1  UNL1        0.2525
      9 O           1.5684    0.7750   21.4136 O.2     1  UNL1       -0.2698
     10 C           2.7649   -0.3336   24.0884 C.3     1  UNL1        0.1236
     11 C           7.1934   -5.7919   29.5707 C.3     1  UNL1        0.0521
     12 C           6.7091   -4.3756   29.4737 C.ar    1  UNL1        0.0609
     13 C           6.1713   -3.8541   28.1742 C.ar    1  UNL1        0.0339
     14 C           5.6869   -2.4377   28.0771 C.ar    1  UNL1        0.0855
     15 C           5.7404   -1.5428   29.2797 C.ar    1  UNL1        0.0398
     16 C           6.2782   -2.0643   30.5793 C.ar    1  UNL1        0.1000
     17 N           6.7625   -3.4806   30.6763 N.ar    1  UNL1       -0.2480
     18 C           3.8065    0.1657   20.2431 C.ar    1  UNL1        0.0881
     19 C           4.5300    1.3978   19.7865 C.ar    1  UNL1        0.0178
     20 C           5.3802    1.3539   18.5513 C.ar    1  UNL1        0.0688
     21 C           5.5068    0.0780   17.7730 C.ar    1  UNL1        0.0134
     22 C           4.7833   -1.1541   18.2296 C.ar    1  UNL1        0.0377
     23 C           3.9332   -1.1102   19.4647 C.ar    1  UNL1        0.1431
     24 C           6.1036    2.5860   18.0948 C.1     1  UNL1        0.1004
     25 N           6.8271    3.8181   17.6381 N.1     1  UNL1       -0.1908
     26 O           3.2096   -2.3423   19.9213 O.3     1  UNL1       -0.4702
     27 C           3.9819   -3.5813   20.2655 C.3     1  UNL1        0.2599
     28 C           4.3858   -3.8429   21.6862 C.3     1  UNL1        0.0566
     29 C           4.3502   -4.5588   19.1890 C.3     1  UNL1        0.4340
     30 F           4.7184   -5.5362   18.1125 F       1  UNL1       -0.1664
     31 F           5.8037   -4.2804   19.4336 F       1  UNL1       -0.1664
     32 F           2.8966   -4.8371   18.9444 F       1  UNL1       -0.1664
@<TRIPOS>BOND
     1    11    12    1
     2    12    13   ar
     3    13    14   ar
     4    14     1    1
     5     1     2   ar
     6     2     3   ar
     7     3     4   ar
     8     4     5   ar
     9     4     6    1
    10     6     7    1
    11     7     8   am
    12     8     9    2
    13     8    18    1
    14    18    19   ar
    15    19    20   ar
    16    20    24    1
    17    24    25    3
    18    20    21   ar
    19    21    22   ar
    20    22    23   ar
    21    23    26    1
    22    26    27    1
    23    27    28    1
    24    27    29    1
    25    29    30    1
    26    29    31    1
    27    29    32    1
    28     7    10    1
    29    14    15   ar
    30    15    16   ar
    31    16    17   ar
    32    17    12   ar
    33     5     1   ar
    34    23    18   ar
    35    10     3    1
@<TRIPOS>MOLECULE
*****
 32 35 0 0 0
SMALL
GASTEIGER

@<TRIPOS>ATOM
      1 N          -1.5578    3.0505   19.8004 N.ar    1  UNL1       -0.2286
      2 C          -0.4271    3.1727   18.8224 C.ar    1  UNL1        0.0990
      3 C           0.7066    2.3237   19.3163 C.ar    1  UNL1        0.0338
      4 C           0.2766    1.6769   20.5995 C.ar    1  UNL1        0.0981
      5 N          -1.1229    2.1262   20.8988 N.ar    1  UNL1       -0.1680
      6 C           1.4104    0.8280   21.0934 C.3     1  UNL1        0.1414
      7 N           2.5412    0.9501   20.1154 N.am    1  UNL1       -0.2660
      8 C           3.8729    0.2677   20.2177 C.2     1  UNL1        0.2525
      9 O           4.9113    0.4865   19.1575 O.2     1  UNL1       -0.2698
     10 C           2.1062    1.8745   19.0170 C.3     1  UNL1        0.1236
     11 C          -6.2088    4.1687   21.8296 C.3     1  UNL1        0.0521
     12 C          -5.2152    4.2921   20.7127 C.ar    1  UNL1        0.0609
     13 C          -3.8833    3.6097   20.8149 C.ar    1  UNL1        0.0339
     14 C          -2.8896    3.7330   19.6981 C.ar    1  UNL1        0.0855
     15 C          -3.2278    4.5388   18.4790 C.ar    1  UNL1        0.0398
     16 C          -4.5597    5.2212   18.3767 C.ar    1  UNL1        0.1000
     17 N          -5.5534    5.0979   19.4936 N.ar    1  UNL1       -0.2480
     18 C           4.1665   -0.6337   21.3802 C.ar    1  UNL1        0.0881
     19 C           4.6153   -0.0501   22.6871 C.ar    1  UNL1        0.0178
     20 C           4.9088   -0.9515   23.8496 C.ar    1  UNL1        0.0688
     21 C           4.7536   -2.4363   23.7053 C.ar    1  UNL1        0.0134
     22 C           4.3048   -3.0200   22.3983 C.ar    1  UNL1        0.0377
     23 C           4.0112   -2.1187   21.2358 C.ar    1  UNL1        0.1431
     24 C           5.3576   -0.3677   25.1565 C.1     1  UNL1        0.1004
     25 N           5.8065    0.2161   26.4632 N.1     1  UNL1       -0.1908
     26 O           3.5624   -2.7023   19.9290 O.3     1  UNL1       -0.4702
     27 C           4.5203   -3.5014   19.0960 C.3     1  UNL1        0.2599
     28 C           4.3106   -4.9761   18.9190 C.3     1  UNL1        0.0566
     29 C           5.6880   -2.8259   18.4401 C.3     1  UNL1        0.4340
     30 F           6.8557   -2.1504   17.7842 F       1  UNL1       -0.1664
     31 F           4.7608   -2.1830   17.4517 F       1  UNL1       -0.1664
     32 F           6.6152   -3.4688   19.4286 F       1  UNL1       -0.1664
@<TRIPOS>BOND
     1    11    12    1
     2    12    13   ar
     3    13    14   ar
     4    14     1    1
     5     1     2   ar
     6     2     3   ar
     7     3     4   ar
     8     4     5   ar
     9     4     6    1
    10     6     7    1
    11     7     8   am
    12     8     9    2
    13     8    18    1
    14    18    19   ar
    15    19    20   ar
    16    20    24    1
    17    24    25    3
    18    20    21   ar
    19    21    22   ar
    20    22    23   ar
    21    23    26    1
    22    26    27    1
    23    27    28    1
    24    27    29    1
    25    29    30    1
    26    29    31    1
    27    29    32    1
    28     7    10    1
    29    14    15   ar
    30    15    16   ar
    31    16    17   ar
    32    17    12   ar
    33     5     1   ar
    34    23    18   ar
    35    10     3    1
