@<TRIPOS>MOLECULE
*****
 29 33 0 0 0
SMALL
GASTEIGER

@<TRIPOS>ATOM
      1 C         -13.5857   -4.7007   18.5348 C.2     1  UNL1        0.0020
      2 C         -14.7422   -5.6305   18.3160 C.2     1  UNL1        0.0130
      3 C         -14.5172   -7.1133   18.2863 C.3     1  UNL1        0.1542
      4 C         -15.8987   -6.5604   18.0973 C.3     1  UNL1        0.0614
      5 C         -17.0551   -7.4903   17.8785 C.3     1  UNL1        0.0725
      6 N         -16.8301   -8.9730   17.8488 N.3     1  UNL1       -0.2972
      7 C         -15.4486   -9.5259   18.0379 C.3     1  UNL1        0.0725
      8 C         -14.2922   -8.5960   18.2566 C.3     1  UNL1        0.0614
      9 O         -13.1356   -7.6661   18.4754 O.3     1  UNL1       -0.4785
     10 C         -11.9791   -6.7362   18.6942 C.ar    1  UNL1        0.1386
     11 C         -10.5976   -7.2891   18.8833 C.ar    1  UNL1        0.0369
     12 C          -9.4411   -6.3592   19.1020 C.ar    1  UNL1        0.0031
     13 C          -9.6661   -4.8765   19.1317 C.ar    1  UNL1        0.0002
     14 C         -11.0476   -4.3236   18.9426 C.ar    1  UNL1        0.0030
     15 C         -12.2042   -5.2535   18.7239 C.ar    1  UNL1        0.0338
     16 H         -17.1573   -9.3023   16.9406 H       1  UNL1        0.1233
     17 N         -15.6039    1.8029   19.4733 N.am    1  UNL1       -0.2757
     18 C         -16.4969    0.8928   20.2633 C.3     1  UNL1        0.0984
     19 C         -16.2719   -0.5899   20.2336 C.3     1  UNL1        0.0480
     20 C         -15.1539   -1.1626   19.4139 C.ar    1  UNL1       -0.0161
     21 C         -14.9288   -2.6453   19.3842 C.ar    1  UNL1       -0.0041
     22 C         -13.8107   -3.2179   18.5645 C.ar    1  UNL1       -0.0004
     23 C         -12.9176   -2.3078   17.7745 C.ar    1  UNL1        0.0001
     24 C         -13.1427   -0.8251   17.8042 C.ar    1  UNL1        0.0042
     25 C         -14.2607   -0.2525   18.6239 C.ar    1  UNL1        0.0497
     26 C         -14.4858    1.2303   18.6535 C.2     1  UNL1        0.2487
     27 O         -13.5927    2.1403   17.8635 O.2     1  UNL1       -0.2699
     28 C         -15.5555    4.0607   20.7578 C.3     1  UNL1        0.0233
     29 C         -15.8289    3.2856   19.5030 C.3     1  UNL1        0.0938
@<TRIPOS>BOND
     1    28    29    1
     2    29    17    1
     3    17    18    1
     4    18    19    1
     5    19    20    1
     6    20    21   ar
     7    21    22   ar
     8    22     1    1
     9     1     2    2
    10     2     3    1
    11     3     4    1
    12     4     5    1
    13     5     6    1
    14     6     7    1
    15     7     8    1
    16     3     9    1
    17     9    10    1
    18    10    11   ar
    19    11    12   ar
    20    12    13   ar
    21    13    14   ar
    22    14    15   ar
    23    22    23   ar
    24    23    24   ar
    25    24    25   ar
    26    25    26    1
    27    26    27    2
    28    26    17   am
    29    25    20   ar
    30    15     1    1
    31     8     3    1
    32    15    10   ar
    33     6    16    1
@<TRIPOS>MOLECULE
*****
 29 33 0 0 0
SMALL
GASTEIGER

@<TRIPOS>ATOM
      1 C          -1.6430    3.5702   26.6914 C.2     1  UNL1        0.0020
      2 C          -1.2827    2.2342   27.2706 C.2     1  UNL1        0.0130
      3 C          -0.2193    2.1356   28.3240 C.3     1  UNL1        0.1542
      4 C          -0.9223    0.8983   27.8498 C.3     1  UNL1        0.0614
      5 C          -0.5620   -0.4376   28.4290 C.3     1  UNL1        0.0725
      6 N           0.5013   -0.5362   29.4823 N.3     1  UNL1       -0.2972
      7 C           1.2043    0.7010   29.9565 C.3     1  UNL1        0.0725
      8 C           0.8440    2.0369   29.3773 C.3     1  UNL1        0.0614
      9 O           0.4837    3.3729   28.7981 O.3     1  UNL1       -0.4785
     10 C           0.1234    4.7088   28.2189 C.ar    1  UNL1        0.1386
     11 C           0.8264    5.9462   28.6931 C.ar    1  UNL1        0.0369
     12 C           0.4661    7.2821   28.1139 C.ar    1  UNL1        0.0031
     13 C          -0.5972    7.3807   27.0605 C.ar    1  UNL1        0.0002
     14 C          -1.3003    6.1434   26.5864 C.ar    1  UNL1        0.0030
     15 C          -0.9399    4.8074   27.1656 C.ar    1  UNL1        0.0338
     16 H           1.2198   -1.1617   29.1178 H       1  UNL1        0.1233
     17 N          -5.5256    3.8742   21.0272 N.am    1  UNL1       -0.2757
     18 C          -4.0916    3.6851   20.6299 C.3     1  UNL1        0.0984
     19 C          -3.0282    3.5865   21.6833 C.3     1  UNL1        0.0480
     20 C          -3.3989    3.6769   23.1339 C.ar    1  UNL1       -0.0161
     21 C          -2.3356    3.5783   24.1873 C.ar    1  UNL1       -0.0041
     22 C          -2.7063    3.6688   25.6380 C.ar    1  UNL1       -0.0004
     23 C          -4.1403    3.8579   26.0353 C.ar    1  UNL1        0.0001
     24 C          -5.2036    3.9565   24.9819 C.ar    1  UNL1        0.0042
     25 C          -4.8330    3.8660   23.5313 C.ar    1  UNL1        0.0497
     26 C          -5.8963    3.9647   22.4779 C.2     1  UNL1        0.2487
     27 O          -7.3303    4.1538   22.8751 O.2     1  UNL1       -0.2699
     28 C          -6.4339    3.2301   18.6798 C.3     1  UNL1        0.0233
     29 C          -6.5889    3.9728   19.9738 C.3     1  UNL1        0.0938
@<TRIPOS>BOND
     1    28    29    1
     2    29    17    1
     3    17    18    1
     4    18    19    1
     5    19    20    1
     6    20    21   ar
     7    21    22   ar
     8    22     1    1
     9     1     2    2
    10     2     3    1
    11     3     4    1
    12     4     5    1
    13     5     6    1
    14     6     7    1
    15     7     8    1
    16     3     9    1
    17     9    10    1
    18    10    11   ar
    19    11    12   ar
    20    12    13   ar
    21    13    14   ar
    22    14    15   ar
    23    22    23   ar
    24    23    24   ar
    25    24    25   ar
    26    25    26    1
    27    26    27    2
    28    26    17   am
    29    25    20   ar
    30    15     1    1
    31     8     3    1
    32    15    10   ar
    33     6    16    1
@<TRIPOS>MOLECULE
*****
 29 33 0 0 0
SMALL
GASTEIGER

@<TRIPOS>ATOM
      1 C          -1.5302    3.3939   26.2847 C.2     1  UNL1        0.0020
      2 C          -1.3415    2.2024   27.1763 C.2     1  UNL1        0.0130
      3 C           0.0333    1.8248   27.6426 C.3     1  UNL1        0.1542
      4 C          -1.1528    1.0110   28.0679 C.3     1  UNL1        0.0614
      5 C          -0.9640   -0.1804   28.9594 C.3     1  UNL1        0.0725
      6 N           0.4107   -0.5580   29.4256 N.3     1  UNL1       -0.2972
      7 C           1.5968    0.2559   29.0004 C.3     1  UNL1        0.0725
      8 C           1.4081    1.4473   28.1088 C.3     1  UNL1        0.0614
      9 O           1.2193    2.6388   27.2172 O.3     1  UNL1       -0.4785
     10 C           1.0306    3.8302   26.3257 C.ar    1  UNL1        0.1386
     11 C           2.2167    4.6441   25.9004 C.ar    1  UNL1        0.0369
     12 C           2.0279    5.8355   25.0088 C.ar    1  UNL1        0.0031
     13 C           0.6531    6.2130   24.5426 C.ar    1  UNL1        0.0002
     14 C          -0.5329    5.3992   24.9679 C.ar    1  UNL1        0.0030
     15 C          -0.3442    4.2077   25.8594 C.ar    1  UNL1        0.0338
     16 H           0.5784   -1.5120   29.1060 H       1  UNL1        0.1233
     17 N          -7.8988    5.7761   25.2764 N.am    1  UNL1       -0.2757
     18 C          -7.3934    6.2705   26.5993 C.3     1  UNL1        0.0984
     19 C          -6.0186    5.8929   27.0656 C.3     1  UNL1        0.0480
     20 C          -5.1492    5.0210   26.2089 C.ar    1  UNL1       -0.0161
     21 C          -3.7744    4.6434   26.6752 C.ar    1  UNL1       -0.0041
     22 C          -2.9050    3.7714   25.8185 C.ar    1  UNL1       -0.0004
     23 C          -3.4105    3.2771   24.4956 C.ar    1  UNL1        0.0001
     24 C          -4.7852    3.6546   24.0293 C.ar    1  UNL1        0.0042
     25 C          -5.6546    4.5266   24.8860 C.ar    1  UNL1        0.0497
     26 C          -7.0294    4.9041   24.4197 C.2     1  UNL1        0.2487
     27 O          -7.5348    4.4098   23.0968 O.2     1  UNL1       -0.2699
     28 C          -9.4807    7.4205   24.0339 C.3     1  UNL1        0.0233
     29 C          -9.2736    6.1537   24.8102 C.3     1  UNL1        0.0938
@<TRIPOS>BOND
     1    28    29    1
     2    29    17    1
     3    17    18    1
     4    18    19    1
     5    19    20    1
     6    20    21   ar
     7    21    22   ar
     8    22     1    1
     9     1     2    2
    10     2     3    1
    11     3     4    1
    12     4     5    1
    13     5     6    1
    14     6     7    1
    15     7     8    1
    16     3     9    1
    17     9    10    1
    18    10    11   ar
    19    11    12   ar
    20    12    13   ar
    21    13    14   ar
    22    14    15   ar
    23    22    23   ar
    24    23    24   ar
    25    24    25   ar
    26    25    26    1
    27    26    27    2
    28    26    17   am
    29    25    20   ar
    30    15     1    1
    31     8     3    1
    32    15    10   ar
    33     6    16    1
@<TRIPOS>MOLECULE
*****
 29 33 0 0 0
SMALL
GASTEIGER

@<TRIPOS>ATOM
      1 C           7.0002   -4.0241   24.9424 C.2     1  UNL1        0.0020
      2 C           6.5967   -3.3463   26.2183 C.2     1  UNL1        0.0130
      3 C           6.9164   -3.9819   27.5388 C.3     1  UNL1        0.1542
      4 C           6.1932   -2.6686   27.4941 C.3     1  UNL1        0.0614
      5 C           5.7897   -1.9909   28.7700 C.3     1  UNL1        0.0725
      6 N           6.1095   -2.6265   30.0905 N.3     1  UNL1       -0.2972
      7 C           6.8327   -3.9398   30.1351 C.3     1  UNL1        0.0725
      8 C           7.2362   -4.6176   28.8593 C.3     1  UNL1        0.0614
      9 O           7.6397   -5.2954   27.5834 O.3     1  UNL1       -0.4785
     10 C           8.0432   -5.9731   26.3076 C.ar    1  UNL1        0.1386
     11 C           8.7664   -7.2865   26.3522 C.ar    1  UNL1        0.0369
     12 C           9.1699   -7.9642   25.0763 C.ar    1  UNL1        0.0031
     13 C           8.8502   -7.3286   23.7558 C.ar    1  UNL1        0.0002
     14 C           8.1269   -6.0153   23.7111 C.ar    1  UNL1        0.0030
     15 C           7.7234   -5.3375   24.9870 C.ar    1  UNL1        0.0338
     16 H           5.2219   -2.7625   30.5744 H       1  UNL1        0.1233
     17 N           4.5774   -1.9964   18.8376 N.am    1  UNL1       -0.2757
     18 C           3.7533   -3.1466   19.3354 C.3     1  UNL1        0.0984
     19 C           4.0731   -3.7822   20.6559 C.3     1  UNL1        0.0480
     20 C           5.2169   -3.2676   21.4786 C.ar    1  UNL1       -0.0161
     21 C           5.5366   -3.9032   22.7991 C.ar    1  UNL1       -0.0041
     22 C           6.6805   -3.3885   23.6219 C.ar    1  UNL1       -0.0004
     23 C           7.5045   -2.2383   23.1240 C.ar    1  UNL1        0.0001
     24 C           7.1848   -1.6027   21.8035 C.ar    1  UNL1        0.0042
     25 C           6.0410   -2.1173   20.9808 C.ar    1  UNL1        0.0497
     26 C           5.7212   -1.4817   19.6603 C.2     1  UNL1        0.2487
     27 O           6.5453   -0.3315   19.1625 O.2     1  UNL1       -0.2699
     28 C           3.3187   -0.1926   17.4548 C.3     1  UNL1        0.0233
     29 C           4.2576   -1.3608   17.5171 C.3     1  UNL1        0.0938
@<TRIPOS>BOND
     1    28    29    1
     2    29    17    1
     3    17    18    1
     4    18    19    1
     5    19    20    1
     6    20    21   ar
     7    21    22   ar
     8    22     1    1
     9     1     2    2
    10     2     3    1
    11     3     4    1
    12     4     5    1
    13     5     6    1
    14     6     7    1
    15     7     8    1
    16     3     9    1
    17     9    10    1
    18    10    11   ar
    19    11    12   ar
    20    12    13   ar
    21    13    14   ar
    22    14    15   ar
    23    22    23   ar
    24    23    24   ar
    25    24    25   ar
    26    25    26    1
    27    26    27    2
    28    26    17   am
    29    25    20   ar
    30    15     1    1
    31     8     3    1
    32    15    10   ar
    33     6    16    1
@<TRIPOS>MOLECULE
*****
 29 33 0 0 0
SMALL
GASTEIGER

@<TRIPOS>ATOM
      1 C           2.5436    0.1001   22.1542 C.2     1  UNL1        0.0020
      2 C           3.2806   -1.2045   22.0847 C.2     1  UNL1        0.0130
      3 C           3.4056   -1.9265   20.7758 C.3     1  UNL1        0.1542
      4 C           4.0176   -2.5091   22.0151 C.3     1  UNL1        0.0614
      5 C           4.7545   -3.8137   21.9455 C.3     1  UNL1        0.0725
      6 N           4.8795   -4.5356   20.6366 N.3     1  UNL1       -0.2972
      7 C           4.2674   -3.9530   19.3973 C.3     1  UNL1        0.0725
      8 C           3.5305   -2.6484   19.4669 C.3     1  UNL1        0.0614
      9 O           2.7935   -1.3438   19.5365 O.3     1  UNL1       -0.4785
     10 C           2.0565   -0.0392   19.6061 C.ar    1  UNL1        0.1386
     11 C           1.4444    0.5435   18.3667 C.ar    1  UNL1        0.0369
     12 C           0.7075    1.8481   18.4363 C.ar    1  UNL1        0.0031
     13 C           0.5825    2.5701   19.7452 C.ar    1  UNL1        0.0002
     14 C           1.1946    1.9874   20.9845 C.ar    1  UNL1        0.0030
     15 C           1.9316    0.6828   20.9149 C.ar    1  UNL1        0.0338
     16 H           4.4604   -5.4564   20.7670 H       1  UNL1        0.1233
     17 N           0.7453    2.9610   28.1402 N.am    1  UNL1       -0.2757
     18 C          -0.4283    2.2122   27.5817 C.3     1  UNL1        0.0984
     19 C          -0.3033    1.4902   26.2728 C.3     1  UNL1        0.0480
     20 C           0.9952    1.5171   25.5224 C.ar    1  UNL1       -0.0161
     21 C           1.1201    0.7952   24.2135 C.ar    1  UNL1       -0.0041
     22 C           2.4187    0.8221   23.4631 C.ar    1  UNL1       -0.0004
     23 C           3.5922    1.5709   24.0216 C.ar    1  UNL1        0.0001
     24 C           3.4673    2.2929   25.3305 C.ar    1  UNL1        0.0042
     25 C           2.1688    2.2660   26.0809 C.ar    1  UNL1        0.0497
     26 C           2.0439    2.9879   27.3898 C.2     1  UNL1        0.2487
     27 O           3.2174    3.7367   27.9483 O.2     1  UNL1       -0.2699
     28 C           0.9383    2.9719   30.7311 C.3     1  UNL1        0.0233
     29 C           0.6204    3.6829   29.4491 C.3     1  UNL1        0.0938
@<TRIPOS>BOND
     1    28    29    1
     2    29    17    1
     3    17    18    1
     4    18    19    1
     5    19    20    1
     6    20    21   ar
     7    21    22   ar
     8    22     1    1
     9     1     2    2
    10     2     3    1
    11     3     4    1
    12     4     5    1
    13     5     6    1
    14     6     7    1
    15     7     8    1
    16     3     9    1
    17     9    10    1
    18    10    11   ar
    19    11    12   ar
    20    12    13   ar
    21    13    14   ar
    22    14    15   ar
    23    22    23   ar
    24    23    24   ar
    25    24    25   ar
    26    25    26    1
    27    26    27    2
    28    26    17   am
    29    25    20   ar
    30    15     1    1
    31     8     3    1
    32    15    10   ar
    33     6    16    1
@<TRIPOS>MOLECULE
*****
 29 33 0 0 0
SMALL
GASTEIGER

@<TRIPOS>ATOM
      1 C           4.0041   -0.1005   20.1346 C.2     1  UNL1        0.0020
      2 C           4.5619    0.9984   19.2794 C.2     1  UNL1        0.0130
      3 C           5.3662    0.6635   18.0583 C.3     1  UNL1        0.1542
      4 C           5.1197    2.0972   18.4241 C.3     1  UNL1        0.0614
      5 C           5.6776    3.1960   17.5689 C.3     1  UNL1        0.0725
      6 N           6.4819    2.8611   16.3479 N.3     1  UNL1       -0.2972
      7 C           6.7283    1.4275   15.9820 C.3     1  UNL1        0.0725
      8 C           6.1705    0.3287   16.8372 C.3     1  UNL1        0.0614
      9 O           5.6127   -0.7702   17.6924 O.3     1  UNL1       -0.4785
     10 C           5.0548   -1.8690   18.5476 C.ar    1  UNL1        0.1386
     11 C           5.3013   -3.3027   18.1818 C.ar    1  UNL1        0.0369
     12 C           4.7435   -4.4015   19.0370 C.ar    1  UNL1        0.0031
     13 C           3.9392   -4.0667   20.2581 C.ar    1  UNL1        0.0002
     14 C           3.6927   -2.6331   20.6239 C.ar    1  UNL1        0.0030
     15 C           4.2505   -1.5342   19.7687 C.ar    1  UNL1        0.0338
     16 H           7.3967    3.2954   16.4697 H       1  UNL1        0.1233
     17 N           1.3765    1.0382   26.3835 N.am    1  UNL1       -0.2757
     18 C           2.7703    0.5028   26.5271 C.3     1  UNL1        0.0984
     19 C           3.5746    0.1679   25.3060 C.3     1  UNL1        0.0480
     20 C           2.9851    0.3685   23.9414 C.ar    1  UNL1       -0.0161
     21 C           3.7894    0.0337   22.7203 C.ar    1  UNL1       -0.0041
     22 C           3.1998    0.2343   21.3556 C.ar    1  UNL1       -0.0004
     23 C           1.8060    0.7697   21.2121 C.ar    1  UNL1        0.0001
     24 C           1.0017    1.1046   22.4332 C.ar    1  UNL1        0.0042
     25 C           1.5912    0.9040   23.7978 C.ar    1  UNL1        0.0497
     26 C           0.7869    1.2388   25.0189 C.2     1  UNL1        0.2487
     27 O          -0.6068    1.7742   24.8753 O.2     1  UNL1       -0.2699
     28 C          -0.5450    0.4705   28.0376 C.3     1  UNL1        0.0233
     29 C           0.5722    1.3730   27.6046 C.3     1  UNL1        0.0938
@<TRIPOS>BOND
     1    28    29    1
     2    29    17    1
     3    17    18    1
     4    18    19    1
     5    19    20    1
     6    20    21   ar
     7    21    22   ar
     8    22     1    1
     9     1     2    2
    10     2     3    1
    11     3     4    1
    12     4     5    1
    13     5     6    1
    14     6     7    1
    15     7     8    1
    16     3     9    1
    17     9    10    1
    18    10    11   ar
    19    11    12   ar
    20    12    13   ar
    21    13    14   ar
    22    14    15   ar
    23    22    23   ar
    24    23    24   ar
    25    24    25   ar
    26    25    26    1
    27    26    27    2
    28    26    17   am
    29    25    20   ar
    30    15     1    1
    31     8     3    1
    32    15    10   ar
    33     6    16    1
@<TRIPOS>MOLECULE
*****
 29 33 0 0 0
SMALL
GASTEIGER

@<TRIPOS>ATOM
      1 C          -3.4172    4.3961   25.7457 C.2     1  UNL1        0.0020
      2 C          -4.5901    4.9824   26.4744 C.2     1  UNL1        0.0130
      3 C          -5.7967    5.4386   25.7089 C.3     1  UNL1        0.1542
      4 C          -5.7629    5.5686   27.2029 C.3     1  UNL1        0.0614
      5 C          -6.9357    6.1548   27.9314 C.3     1  UNL1        0.0725
      6 N          -8.1423    6.6110   27.1660 N.3     1  UNL1       -0.2972
      7 C          -8.1762    6.4810   25.6720 C.3     1  UNL1        0.0725
      8 C          -7.0034    5.8948   24.9435 C.3     1  UNL1        0.0614
      9 O          -5.8305    5.3085   24.2149 O.3     1  UNL1       -0.4785
     10 C          -4.6577    4.7223   23.4864 C.ar    1  UNL1        0.1386
     11 C          -4.6915    4.5922   21.9924 C.ar    1  UNL1        0.0369
     12 C          -3.5187    4.0060   21.2638 C.ar    1  UNL1        0.0031
     13 C          -2.3120    3.5498   22.0293 C.ar    1  UNL1        0.0002
     14 C          -2.2782    3.6798   23.5232 C.ar    1  UNL1        0.0030
     15 C          -3.4510    4.2661   24.2518 C.ar    1  UNL1        0.0338
     16 H          -8.2689    7.6006   27.3784 H       1  UNL1        0.1233
     17 N           1.5764    1.1203   29.1491 N.am    1  UNL1       -0.2757
     18 C           0.5367    0.1255   28.7255 C.3     1  UNL1        0.0984
     19 C          -0.6699    0.5817   27.9601 C.3     1  UNL1        0.0480
     20 C          -0.8369    2.0327   27.6183 C.ar    1  UNL1       -0.0161
     21 C          -2.0436    2.4889   26.8529 C.ar    1  UNL1       -0.0041
     22 C          -2.2105    3.9399   26.5112 C.ar    1  UNL1       -0.0004
     23 C          -1.1709    4.9347   26.9348 C.ar    1  UNL1        0.0001
     24 C           0.0358    4.4785   27.7002 C.ar    1  UNL1        0.0042
     25 C           0.2028    3.0275   28.0420 C.ar    1  UNL1        0.0497
     26 C           1.4094    2.5713   28.8074 C.2     1  UNL1        0.2487
     27 O           2.4491    3.5661   29.2311 O.2     1  UNL1       -0.2699
     28 C           2.7217   -0.5918   30.7326 C.3     1  UNL1        0.0233
     29 C           2.7831    0.6641   29.9146 C.3     1  UNL1        0.0938
@<TRIPOS>BOND
     1    28    29    1
     2    29    17    1
     3    17    18    1
     4    18    19    1
     5    19    20    1
     6    20    21   ar
     7    21    22   ar
     8    22     1    1
     9     1     2    2
    10     2     3    1
    11     3     4    1
    12     4     5    1
    13     5     6    1
    14     6     7    1
    15     7     8    1
    16     3     9    1
    17     9    10    1
    18    10    11   ar
    19    11    12   ar
    20    12    13   ar
    21    13    14   ar
    22    14    15   ar
    23    22    23   ar
    24    23    24   ar
    25    24    25   ar
    26    25    26    1
    27    26    27    2
    28    26    17   am
    29    25    20   ar
    30    15     1    1
    31     8     3    1
    32    15    10   ar
    33     6    16    1
@<TRIPOS>MOLECULE
*****
 29 33 0 0 0
SMALL
GASTEIGER

@<TRIPOS>ATOM
      1 C           2.0383    2.9827   33.4493 C.2     1  UNL1        0.0020
      2 C           2.9099    1.9266   34.0618 C.2     1  UNL1        0.0130
      3 C           3.2079    1.9596   35.5315 C.3     1  UNL1        0.1542
      4 C           3.7815    0.8706   34.6743 C.3     1  UNL1        0.0614
      5 C           4.6531   -0.1854   35.2867 C.3     1  UNL1        0.0725
      6 N           4.9510   -0.1524   36.7565 N.3     1  UNL1       -0.2972
      7 C           4.3774    0.9366   37.6137 C.3     1  UNL1        0.0725
      8 C           3.5058    1.9926   37.0013 C.3     1  UNL1        0.0614
      9 O           2.6342    3.0487   36.3888 O.3     1  UNL1       -0.4785
     10 C           1.7626    4.1047   35.7764 C.ar    1  UNL1        0.1386
     11 C           1.1889    5.1937   36.6337 C.ar    1  UNL1        0.0369
     12 C           0.3173    6.2497   36.0212 C.ar    1  UNL1        0.0031
     13 C           0.0194    6.2167   34.5514 C.ar    1  UNL1        0.0002
     14 C           0.5930    5.1277   33.6942 C.ar    1  UNL1        0.0030
     15 C           1.4646    4.0717   34.3066 C.ar    1  UNL1        0.0338
     16 H           5.9652   -0.0975   36.8501 H       1  UNL1        0.1233
     17 N          -0.1261    1.8475   27.0246 N.am    1  UNL1       -0.2757
     18 C          -0.8007    0.8774   27.9486 C.3     1  UNL1        0.0984
     19 C          -0.5028    0.9104   29.4183 C.3     1  UNL1        0.0480
     20 C           0.4698    1.9135   29.9641 C.ar    1  UNL1       -0.0161
     21 C           0.7677    1.9465   31.4339 C.ar    1  UNL1       -0.0041
     22 C           1.7403    2.9497   31.9796 C.ar    1  UNL1       -0.0004
     23 C           2.4149    3.9198   31.0556 C.ar    1  UNL1        0.0001
     24 C           2.1170    3.8868   29.5859 C.ar    1  UNL1        0.0042
     25 C           1.1444    2.8837   29.0401 C.ar    1  UNL1        0.0497
     26 C           0.8465    2.8507   27.5704 C.2     1  UNL1        0.2487
     27 O           1.5211    3.8208   26.6464 O.2     1  UNL1       -0.2699
     28 C           0.5006    1.0950   24.6182 C.3     1  UNL1        0.0233
     29 C          -0.4241    1.8145   25.5549 C.3     1  UNL1        0.0938
@<TRIPOS>BOND
     1    28    29    1
     2    29    17    1
     3    17    18    1
     4    18    19    1
     5    19    20    1
     6    20    21   ar
     7    21    22   ar
     8    22     1    1
     9     1     2    2
    10     2     3    1
    11     3     4    1
    12     4     5    1
    13     5     6    1
    14     6     7    1
    15     7     8    1
    16     3     9    1
    17     9    10    1
    18    10    11   ar
    19    11    12   ar
    20    12    13   ar
    21    13    14   ar
    22    14    15   ar
    23    22    23   ar
    24    23    24   ar
    25    24    25   ar
    26    25    26    1
    27    26    27    2
    28    26    17   am
    29    25    20   ar
    30    15     1    1
    31     8     3    1
    32    15    10   ar
    33     6    16    1
@<TRIPOS>MOLECULE
*****
 29 33 0 0 0
SMALL
GASTEIGER

@<TRIPOS>ATOM
      1 C          -2.4726    3.5462   21.5557 C.2     1  UNL1        0.0020
      2 C          -2.4792    3.6494   23.0522 C.2     1  UNL1        0.0130
      3 C          -3.7594    3.9386   23.7784 C.3     1  UNL1        0.1542
      4 C          -2.4858    3.7526   24.5486 C.3     1  UNL1        0.0614
      5 C          -2.4925    3.8558   26.0450 C.3     1  UNL1        0.0725
      6 N          -3.7727    4.1451   26.7711 N.3     1  UNL1       -0.2972
      7 C          -5.0463    4.3311   26.0009 C.3     1  UNL1        0.0725
      8 C          -5.0396    4.2279   24.5045 C.3     1  UNL1        0.0614
      9 O          -5.0330    4.1247   23.0080 O.3     1  UNL1       -0.4785
     10 C          -5.0264    4.0215   21.5116 C.ar    1  UNL1        0.1386
     11 C          -6.3000    4.2075   20.7413 C.ar    1  UNL1        0.0369
     12 C          -6.2934    4.1043   19.2449 C.ar    1  UNL1        0.0031
     13 C          -5.0132    3.8150   18.5188 C.ar    1  UNL1        0.0002
     14 C          -3.7396    3.6290   19.2890 C.ar    1  UNL1        0.0030
     15 C          -3.7462    3.7322   20.7855 C.ar    1  UNL1        0.0338
     16 H          -3.6223    5.0024   27.3030 H       1  UNL1        0.1233
     17 N           3.1349    0.9760   18.5224 N.am    1  UNL1       -0.2757
     18 C           2.3411   -0.1478   19.1198 C.3     1  UNL1        0.0984
     19 C           1.0609    0.1415   19.8460 C.3     1  UNL1        0.0480
     20 C           0.5744    1.5545   19.9747 C.ar    1  UNL1       -0.0161
     21 C          -0.7059    1.8438   20.7009 C.ar    1  UNL1       -0.0041
     22 C          -1.1923    3.2569   20.8295 C.ar    1  UNL1       -0.0004
     23 C          -0.3986    4.3807   20.2321 C.ar    1  UNL1        0.0001
     24 C           0.8817    4.0914   19.5059 C.ar    1  UNL1        0.0042
     25 C           1.3681    2.6784   19.3772 C.ar    1  UNL1        0.0497
     26 C           2.6484    2.3891   18.6510 C.2     1  UNL1        0.2487
     27 O           3.4421    3.5129   18.0536 O.2     1  UNL1       -0.2699
     28 C           4.5336   -0.5434   16.9459 C.3     1  UNL1        0.0233
     29 C           4.4151    0.6867   17.7962 C.3     1  UNL1        0.0938
@<TRIPOS>BOND
     1    28    29    1
     2    29    17    1
     3    17    18    1
     4    18    19    1
     5    19    20    1
     6    20    21   ar
     7    21    22   ar
     8    22     1    1
     9     1     2    2
    10     2     3    1
    11     3     4    1
    12     4     5    1
    13     5     6    1
    14     6     7    1
    15     7     8    1
    16     3     9    1
    17     9    10    1
    18    10    11   ar
    19    11    12   ar
    20    12    13   ar
    21    13    14   ar
    22    14    15   ar
    23    22    23   ar
    24    23    24   ar
    25    24    25   ar
    26    25    26    1
    27    26    27    2
    28    26    17   am
    29    25    20   ar
    30    15     1    1
    31     8     3    1
    32    15    10   ar
    33     6    16    1
