@<TRIPOS>MOLECULE
*****
 22 23 0 0 0
SMALL
GASTEIGER

@<TRIPOS>ATOM
      1 C           5.7835   -3.5398   23.7117 C.2     1  UNL1        0.0428
      2 C           6.2147   -3.3894   22.2829 C.2     1  UNL1       -0.0145
      3 C           7.3545   -4.1097   21.6254 C.3     1  UNL1        0.0459
      4 C           7.4260   -3.6576   20.1969 C.3     1  UNL1        0.0997
      5 N           6.3306   -2.6581   19.9715 N.am    1  UNL1       -0.2599
      6 C           6.0356   -1.9489   18.6832 C.2     1  UNL1        0.3074
      7 O           6.8750   -2.2180   17.4696 O.2     1  UNL1       -0.2523
      8 N           4.9010   -0.9705   18.6084 N.am    1  UNL1       -0.2639
      9 C           4.6059   -0.2612   17.3201 C.3     1  UNL1        0.1164
     10 C           5.5820   -2.4923   21.2608 C.3     1  UNL1        0.1181
     11 C           4.0615   -0.7014   19.8220 C.3     1  UNL1        0.0770
     12 C           2.8448   -1.5359   20.0925 C.3     1  UNL1        0.0216
     13 C           4.4387    0.4023   20.7652 C.3     1  UNL1        0.0216
     14 C           7.2498   -5.4216   25.5308 C.1     1  UNL1       -0.0405
     15 C           6.5167   -4.4807   24.6213 C.1     1  UNL1       -0.0582
     16 C           9.0403   -6.6328   30.2560 C.3     1  UNL1        0.0521
     17 C           8.8781   -6.9681   28.8030 C.ar    1  UNL1        0.0600
     18 C           9.4491   -8.2442   28.2595 C.ar    1  UNL1        0.0148
     19 C           9.2870   -8.5795   26.8064 C.ar    1  UNL1        0.0034
     20 C           8.5539   -7.6387   25.8969 C.ar    1  UNL1        0.0276
     21 C           7.9829   -6.3626   26.4404 C.ar    1  UNL1        0.1224
     22 N           8.1450   -6.0273   27.8934 N.ar    1  UNL1       -0.2414
@<TRIPOS>BOND
     1    16    17    1
     2    17    18   ar
     3    18    19   ar
     4    19    20   ar
     5    20    21   ar
     6    21    14    1
     7    14    15    3
     8    15     1    1
     9     1     2    2
    10     2     3    1
    11     3     4    1
    12     4     5    1
    13     5     6   am
    14     6     7    2
    15     6     8   am
    16     8     9    1
    17     8    11    1
    18    11    12    1
    19    11    13    1
    20     5    10    1
    21    21    22   ar
    22    22    17   ar
    23    10     2    1
@<TRIPOS>MOLECULE
*****
 22 23 0 0 0
SMALL
GASTEIGER

@<TRIPOS>ATOM
      1 C           6.5557   -4.3039   23.3226 C.2     1  UNL1        0.0428
      2 C           5.5712   -3.2882   22.8237 C.2     1  UNL1       -0.0145
      3 C           4.6985   -2.4140   23.6748 C.3     1  UNL1        0.0459
      4 C           3.8744   -1.5538   22.7632 C.3     1  UNL1        0.0997
      5 N           4.2377   -1.8964   21.3487 N.am    1  UNL1       -0.2599
      6 C           3.6548   -1.2760   20.1138 C.2     1  UNL1        0.3074
      7 O           2.6075   -0.2087   20.2333 O.2     1  UNL1       -0.2523
      8 N           4.1190   -1.7228   18.7592 N.am    1  UNL1       -0.2639
      9 C           3.5361   -1.1024   17.5242 C.3     1  UNL1        0.1164
     10 C           5.2864   -2.9682   21.3862 C.3     1  UNL1        0.1181
     11 C           5.1663   -2.7900   18.6397 C.3     1  UNL1        0.0770
     12 C           6.6154   -2.4125   18.5529 C.3     1  UNL1        0.0216
     13 C           4.7644   -4.2348   18.6070 C.3     1  UNL1        0.0216
     14 C           6.9109   -4.7264   26.2714 C.1     1  UNL1       -0.0405
     15 C           6.7333   -4.5151   24.7970 C.1     1  UNL1       -0.0582
     16 C           6.1615   -3.1499   31.1656 C.3     1  UNL1        0.0521
     17 C           6.7138   -4.1493   30.1929 C.ar    1  UNL1        0.0600
     18 C           7.4436   -5.3599   30.6946 C.ar    1  UNL1        0.0148
     19 C           7.9959   -6.3594   29.7219 C.ar    1  UNL1        0.0034
     20 C           7.8183   -6.1482   28.2475 C.ar    1  UNL1        0.0276
     21 C           7.0885   -4.9376   27.7459 C.ar    1  UNL1        0.1224
     22 N           6.5362   -3.9382   28.7185 N.ar    1  UNL1       -0.2414
@<TRIPOS>BOND
     1    16    17    1
     2    17    18   ar
     3    18    19   ar
     4    19    20   ar
     5    20    21   ar
     6    21    14    1
     7    14    15    3
     8    15     1    1
     9     1     2    2
    10     2     3    1
    11     3     4    1
    12     4     5    1
    13     5     6   am
    14     6     7    2
    15     6     8   am
    16     8     9    1
    17     8    11    1
    18    11    12    1
    19    11    13    1
    20     5    10    1
    21    21    22   ar
    22    22    17   ar
    23    10     2    1
@<TRIPOS>MOLECULE
*****
 22 23 0 0 0
SMALL
GASTEIGER

@<TRIPOS>ATOM
      1 C          -0.2127    2.2616   25.4516 C.2     1  UNL1        0.0428
      2 C           0.0785    1.5708   26.7508 C.2     1  UNL1       -0.0145
      3 C          -0.8988    1.3403   27.8653 C.3     1  UNL1        0.0459
      4 C          -0.1832    0.6162   28.9669 C.3     1  UNL1        0.0997
      5 N           1.2363    0.3992   28.5334 N.am    1  UNL1       -0.2599
      6 C           2.3061   -0.2873   29.3296 C.2     1  UNL1        0.3074
      7 O           1.9948   -0.8301   30.6929 O.2     1  UNL1       -0.2523
      8 N           3.6874   -0.4310   28.7626 N.am    1  UNL1       -0.2639
      9 C           4.7574   -1.1174   29.5588 C.3     1  UNL1        0.1164
     10 C           1.3980    0.9891   27.1637 C.3     1  UNL1        0.1181
     11 C           3.9987    0.1118   27.3994 C.3     1  UNL1        0.0770
     12 C           4.5112    1.5136   27.2493 C.3     1  UNL1        0.0216
     13 C           3.7976   -0.7471   26.1862 C.3     1  UNL1        0.0216
     14 C          -2.9626    3.3283   24.9034 C.1     1  UNL1       -0.0405
     15 C          -1.5877    2.7950   25.1775 C.1     1  UNL1       -0.0582
     16 C          -7.0360    6.2191   26.3354 C.3     1  UNL1        0.0521
     17 C          -6.3742    5.3071   25.3453 C.ar    1  UNL1        0.0600
     18 C          -7.0873    4.9286   24.0812 C.ar    1  UNL1        0.0148
     19 C          -6.4255    4.0166   23.0910 C.ar    1  UNL1        0.0034
     20 C          -5.0506    3.4832   23.3651 C.ar    1  UNL1        0.0276
     21 C          -4.3375    3.8617   24.6293 C.ar    1  UNL1        0.1224
     22 N          -4.9993    4.7737   25.6194 N.ar    1  UNL1       -0.2414
@<TRIPOS>BOND
     1    16    17    1
     2    17    18   ar
     3    18    19   ar
     4    19    20   ar
     5    20    21   ar
     6    21    14    1
     7    14    15    3
     8    15     1    1
     9     1     2    2
    10     2     3    1
    11     3     4    1
    12     4     5    1
    13     5     6   am
    14     6     7    2
    15     6     8   am
    16     8     9    1
    17     8    11    1
    18    11    12    1
    19    11    13    1
    20     5    10    1
    21    21    22   ar
    22    22    17   ar
    23    10     2    1
@<TRIPOS>MOLECULE
*****
 22 23 0 0 0
SMALL
GASTEIGER

@<TRIPOS>ATOM
      1 C           6.3937   -3.3418   26.0830 C.2     1  UNL1        0.0428
      2 C           7.0637   -4.6010   26.5471 C.2     1  UNL1       -0.0145
      3 C           7.3303   -5.8176   25.7111 C.3     1  UNL1        0.0459
      4 C           8.0162   -6.8332   26.5761 C.3     1  UNL1        0.0997
      5 N           8.1735   -6.2443   27.9467 N.am    1  UNL1       -0.2599
      6 C           8.8079   -6.9169   29.1277 C.2     1  UNL1        0.3074
      7 O           9.3561   -8.3068   28.9942 O.2     1  UNL1       -0.2523
      8 N           8.8943   -6.1997   30.4423 N.am    1  UNL1       -0.2639
      9 C           9.5288   -6.8723   31.6234 C.3     1  UNL1        0.1164
     10 C           7.5848   -4.8648   27.9288 C.3     1  UNL1        0.1181
     11 C           8.3461   -4.8098   30.5757 C.3     1  UNL1        0.0770
     12 C           9.2250   -3.6269   30.2959 C.3     1  UNL1        0.0216
     13 C           6.9191   -4.6029   30.9890 C.3     1  UNL1        0.0216
     14 C           5.4513   -3.1025   23.2449 C.1     1  UNL1       -0.0405
     15 C           5.9225   -3.2221   24.6639 C.1     1  UNL1       -0.0582
     16 C           4.5192   -5.2694   18.6151 C.3     1  UNL1        0.0521
     17 C           4.5140   -4.0663   19.5109 C.ar    1  UNL1        0.0600
     18 C           4.0377   -2.7437   18.9878 C.ar    1  UNL1        0.0148
     19 C           4.0326   -1.5406   19.8837 C.ar    1  UNL1        0.0034
     20 C           4.5037   -1.6602   21.3027 C.ar    1  UNL1        0.0276
     21 C           4.9801   -2.9828   21.8258 C.ar    1  UNL1        0.1224
     22 N           4.9852   -4.1859   20.9300 N.ar    1  UNL1       -0.2414
@<TRIPOS>BOND
     1    16    17    1
     2    17    18   ar
     3    18    19   ar
     4    19    20   ar
     5    20    21   ar
     6    21    14    1
     7    14    15    3
     8    15     1    1
     9     1     2    2
    10     2     3    1
    11     3     4    1
    12     4     5    1
    13     5     6   am
    14     6     7    2
    15     6     8   am
    16     8     9    1
    17     8    11    1
    18    11    12    1
    19    11    13    1
    20     5    10    1
    21    21    22   ar
    22    22    17   ar
    23    10     2    1
@<TRIPOS>MOLECULE
*****
 22 23 0 0 0
SMALL
GASTEIGER

@<TRIPOS>ATOM
      1 C           6.4151   -2.4288   32.5676 C.2     1  UNL1        0.0428
      2 C           5.2676   -1.4647   32.5077 C.2     1  UNL1       -0.0145
      3 C           4.2729   -1.3462   31.3911 C.3     1  UNL1        0.0459
      4 C           3.3039   -0.2579   31.7472 C.3     1  UNL1        0.0997
      5 N           3.6997    0.2962   33.0837 N.am    1  UNL1       -0.2599
      6 C           3.0040    1.4019   33.8207 C.2     1  UNL1        0.3074
      7 O           1.7947    2.0573   33.2224 O.2     1  UNL1       -0.2523
      8 N           3.5175    1.8522   35.1562 N.am    1  UNL1       -0.2639
      9 C           2.8219    2.9579   35.8933 C.3     1  UNL1        0.1164
     10 C           4.9133   -0.4496   33.5537 C.3     1  UNL1        0.1181
     11 C           4.7268    1.1967   35.7546 C.3     1  UNL1        0.0770
     12 C           6.0923    1.7586   35.4906 C.3     1  UNL1        0.0216
     13 C           4.5705   -0.0206   36.6169 C.3     1  UNL1        0.0216
     14 C           6.8770   -4.3528   30.3126 C.1     1  UNL1       -0.0405
     15 C           6.6461   -3.3908   31.4400 C.1     1  UNL1       -0.0582
     16 C           9.4045   -8.4357   28.3271 C.3     1  UNL1        0.0521
     17 C           8.3717   -7.3562   28.1923 C.ar    1  UNL1        0.0600
     18 C           7.5699   -7.2387   26.9301 C.ar    1  UNL1        0.0148
     19 C           6.5372   -6.1593   26.7953 C.ar    1  UNL1        0.0034
     20 C           6.3062   -5.1973   27.9228 C.ar    1  UNL1        0.0276
     21 C           7.1079   -5.3148   29.1850 C.ar    1  UNL1        0.1224
     22 N           8.1407   -6.3943   29.3198 N.ar    1  UNL1       -0.2414
@<TRIPOS>BOND
     1    16    17    1
     2    17    18   ar
     3    18    19   ar
     4    19    20   ar
     5    20    21   ar
     6    21    14    1
     7    14    15    3
     8    15     1    1
     9     1     2    2
    10     2     3    1
    11     3     4    1
    12     4     5    1
    13     5     6   am
    14     6     7    2
    15     6     8   am
    16     8     9    1
    17     8    11    1
    18    11    12    1
    19    11    13    1
    20     5    10    1
    21    21    22   ar
    22    22    17   ar
    23    10     2    1
@<TRIPOS>MOLECULE
*****
 22 23 0 0 0
SMALL
GASTEIGER

@<TRIPOS>ATOM
      1 C           0.2809    0.5782   20.8132 C.2     1  UNL1        0.0428
      2 C           0.0177    1.7506   19.9153 C.2     1  UNL1       -0.0145
      3 C           0.7563    2.0762   18.6509 C.3     1  UNL1        0.0459
      4 C           0.1647    3.3301   18.0784 C.3     1  UNL1        0.0997
      5 N          -0.9395    3.7795   18.9888 N.am    1  UNL1       -0.2599
      6 C          -1.8014    4.9920   18.7975 C.2     1  UNL1        0.3074
      7 O          -1.5927    5.8803   17.6069 O.2     1  UNL1       -0.2523
      8 N          -2.8721    5.3164   19.7967 N.am    1  UNL1       -0.2639
      9 C          -3.7340    6.5290   19.6055 C.3     1  UNL1        0.1164
     10 C          -1.0304    2.8033   20.1240 C.3     1  UNL1        0.1181
     11 C          -3.0807    4.4281   20.9873 C.3     1  UNL1        0.0770
     12 C          -2.3311    4.6909   22.2597 C.3     1  UNL1        0.0216
     13 C          -4.0390    3.2770   20.9054 C.3     1  UNL1        0.0216
     14 C           2.4566   -1.3724   20.1342 C.1     1  UNL1       -0.0405
     15 C           1.3688   -0.3971   20.4736 C.1     1  UNL1       -0.0582
     16 C           7.5090   -2.5258   19.7550 C.3     1  UNL1        0.0521
     17 C           6.0707   -2.9244   19.6051 C.ar    1  UNL1        0.0600
     18 C           5.7203   -4.2983   19.1157 C.ar    1  UNL1        0.0148
     19 C           4.2821   -4.6969   18.9657 C.ar    1  UNL1        0.0034
     20 C           3.1942   -3.7217   19.3052 C.ar    1  UNL1        0.0276
     21 C           3.5446   -2.3478   19.7947 C.ar    1  UNL1        0.1224
     22 N           4.9828   -1.9491   19.9446 N.ar    1  UNL1       -0.2414
@<TRIPOS>BOND
     1    16    17    1
     2    17    18   ar
     3    18    19   ar
     4    19    20   ar
     5    20    21   ar
     6    21    14    1
     7    14    15    3
     8    15     1    1
     9     1     2    2
    10     2     3    1
    11     3     4    1
    12     4     5    1
    13     5     6   am
    14     6     7    2
    15     6     8   am
    16     8     9    1
    17     8    11    1
    18    11    12    1
    19    11    13    1
    20     5    10    1
    21    21    22   ar
    22    22    17   ar
    23    10     2    1
@<TRIPOS>MOLECULE
*****
 22 23 0 0 0
SMALL
GASTEIGER

@<TRIPOS>ATOM
      1 C           1.1043    1.6745   23.9584 C.2     1  UNL1        0.0428
      2 C           0.5913    1.5855   25.3652 C.2     1  UNL1       -0.0145
      3 C          -0.7887    1.9515   25.8252 C.3     1  UNL1        0.0459
      4 C          -0.8646    1.7071   27.3033 C.3     1  UNL1        0.0997
      5 N           0.4685    1.1901   27.7567 N.am    1  UNL1       -0.2599
      6 C           0.8370    0.8142   29.1612 C.2     1  UNL1        0.3074
      7 O          -0.1738    0.9432   30.2619 O.2     1  UNL1       -0.2523
      8 N           2.2165    0.3093   29.4651 N.am    1  UNL1       -0.2639
      9 C           2.5851   -0.0666   30.8696 C.3     1  UNL1        0.1164
     10 C           1.3683    1.1149   26.5589 C.3     1  UNL1        0.1181
     11 C           3.2273    0.1803   28.3643 C.3     1  UNL1        0.0770
     12 C           3.3509   -1.1085   27.6068 C.3     1  UNL1        0.0216
     13 C           4.1145    1.3401   28.0211 C.3     1  UNL1        0.0216
     14 C          -0.6918    2.6590   21.7664 C.1     1  UNL1       -0.0405
     15 C           0.2062    2.1668   22.8624 C.1     1  UNL1       -0.0582
     16 C          -5.4642    3.3785   19.8412 C.3     1  UNL1        0.0521
     17 C          -3.9761    3.5110   19.7078 C.ar    1  UNL1        0.0600
     18 C          -3.3859    4.1357   18.4784 C.ar    1  UNL1        0.0148
     19 C          -1.8978    4.2682   18.3450 C.ar    1  UNL1        0.0034
     20 C          -0.9997    3.7760   19.4409 C.ar    1  UNL1        0.0276
     21 C          -1.5898    3.1513   20.6703 C.ar    1  UNL1        0.1224
     22 N          -3.0780    3.0188   20.8038 N.ar    1  UNL1       -0.2414
@<TRIPOS>BOND
     1    16    17    1
     2    17    18   ar
     3    18    19   ar
     4    19    20   ar
     5    20    21   ar
     6    21    14    1
     7    14    15    3
     8    15     1    1
     9     1     2    2
    10     2     3    1
    11     3     4    1
    12     4     5    1
    13     5     6   am
    14     6     7    2
    15     6     8   am
    16     8     9    1
    17     8    11    1
    18    11    12    1
    19    11    13    1
    20     5    10    1
    21    21    22   ar
    22    22    17   ar
    23    10     2    1
@<TRIPOS>MOLECULE
*****
 22 23 0 0 0
SMALL
GASTEIGER

@<TRIPOS>ATOM
      1 C           2.2446    0.5644   24.0239 C.2     1  UNL1        0.0428
      2 C           2.6208    0.1638   25.4196 C.2     1  UNL1       -0.0145
      3 C           3.6136   -0.8961   25.7954 C.3     1  UNL1        0.0459
      4 C           3.6766   -0.9621   27.2927 C.3     1  UNL1        0.0997
      5 N           2.7228    0.0569   27.8422 N.am    1  UNL1       -0.2599
      6 C           2.4666    0.3317   29.2943 C.2     1  UNL1        0.3074
      7 O           3.1982   -0.4487   30.3458 O.2     1  UNL1       -0.2523
      8 N           1.4787    1.3870   29.6949 N.am    1  UNL1       -0.2639
      9 C           1.2224    1.6619   31.1470 C.3     1  UNL1        0.1164
     10 C           2.0703    0.7527   26.6846 C.3     1  UNL1        0.1181
     11 C           0.7471    2.1674   28.6434 C.3     1  UNL1        0.0770
     12 C          -0.5309    1.6342   28.0669 C.3     1  UNL1        0.0216
     13 C           1.2936    3.4810   28.1683 C.3     1  UNL1        0.0216
     14 C           3.5205   -0.8000   21.6764 C.1     1  UNL1       -0.0405
     15 C           2.8826   -0.1179   22.8501 C.1     1  UNL1       -0.0582
     16 C           4.3930   -5.1065   18.9028 C.3     1  UNL1        0.0521
     17 C           4.5946   -3.6355   19.1158 C.ar    1  UNL1        0.0600
     18 C           5.4342   -2.8467   18.1552 C.ar    1  UNL1        0.0148
     19 C           5.6358   -1.3757   18.3682 C.ar    1  UNL1        0.0034
     20 C           4.9979   -0.6934   19.5419 C.ar    1  UNL1        0.0276
     21 C           4.1584   -1.4822   20.5026 C.ar    1  UNL1        0.1224
     22 N           3.9567   -2.9533   20.2895 N.ar    1  UNL1       -0.2414
@<TRIPOS>BOND
     1    16    17    1
     2    17    18   ar
     3    18    19   ar
     4    19    20   ar
     5    20    21   ar
     6    21    14    1
     7    14    15    3
     8    15     1    1
     9     1     2    2
    10     2     3    1
    11     3     4    1
    12     4     5    1
    13     5     6   am
    14     6     7    2
    15     6     8   am
    16     8     9    1
    17     8    11    1
    18    11    12    1
    19    11    13    1
    20     5    10    1
    21    21    22   ar
    22    22    17   ar
    23    10     2    1
@<TRIPOS>MOLECULE
*****
 22 23 0 0 0
SMALL
GASTEIGER

@<TRIPOS>ATOM
      1 C           4.5891   -1.7393   23.9605 C.2     1  UNL1        0.0428
      2 C           3.7871   -1.4749   22.7208 C.2     1  UNL1       -0.0145
      3 C           3.8075   -2.2960   21.4656 C.3     1  UNL1        0.0459
      4 C           2.8568   -1.6716   20.4877 C.3     1  UNL1        0.0997
      5 N           2.2488   -0.4646   21.1385 N.am    1  UNL1       -0.2599
      6 C           1.2426    0.4587   20.5181 C.2     1  UNL1        0.3074
      7 O           0.7572    0.2093   19.1209 O.2     1  UNL1       -0.2523
      8 N           0.7218    1.6314   21.2949 N.am    1  UNL1       -0.2639
      9 C          -0.2845    2.5548   20.6745 C.3     1  UNL1        0.1164
     10 C           2.8237   -0.3431   22.5186 C.3     1  UNL1        0.1181
     11 C           1.2072    1.8808   22.6921 C.3     1  UNL1        0.0770
     12 C           0.5022    1.2480   23.8552 C.3     1  UNL1        0.0216
     13 C           2.3975    2.7630   22.9262 C.3     1  UNL1        0.0216
     14 C           6.4442   -4.0943   24.0729 C.1     1  UNL1       -0.0405
     15 C           5.5167   -2.9168   24.0167 C.1     1  UNL1       -0.0582
     16 C           8.2740   -8.2662   26.5725 C.3     1  UNL1        0.0521
     17 C           8.2867   -7.3577   25.3790 C.ar    1  UNL1        0.0600
     18 C           9.2269   -7.6268   24.2417 C.ar    1  UNL1        0.0148
     19 C           9.2396   -6.7183   23.0481 C.ar    1  UNL1        0.0034
     20 C           8.3121   -5.5409   22.9918 C.ar    1  UNL1        0.0276
     21 C           7.3718   -5.2718   24.1291 C.ar    1  UNL1        0.1224
     22 N           7.3591   -6.1803   25.3227 N.ar    1  UNL1       -0.2414
@<TRIPOS>BOND
     1    16    17    1
     2    17    18   ar
     3    18    19   ar
     4    19    20   ar
     5    20    21   ar
     6    21    14    1
     7    14    15    3
     8    15     1    1
     9     1     2    2
    10     2     3    1
    11     3     4    1
    12     4     5    1
    13     5     6   am
    14     6     7    2
    15     6     8   am
    16     8     9    1
    17     8    11    1
    18    11    12    1
    19    11    13    1
    20     5    10    1
    21    21    22   ar
    22    22    17   ar
    23    10     2    1
