@<TRIPOS>MOLECULE
*****
 23 27 0 0 0
SMALL
GASTEIGER

@<TRIPOS>ATOM
      1 O          -7.0591  -21.5847   19.3461 O.2     1  UNL1       -0.2258
      2 C          -6.3014  -20.6276   20.2178 C.2     1  UNL1        0.4086
      3 O          -4.8132  -20.5914   20.4016 O.3     1  UNL1       -0.4384
      4 C          -4.4908  -19.4801   21.3561 C.3     1  UNL1        0.1706
      5 C          -3.2880  -20.2272   20.8611 C.3     1  UNL1        0.1145
      6 N          -1.9173  -19.8354   21.3276 N.3     1  UNL1       -0.2697
      7 C          -1.7494  -18.6964   22.2891 C.3     1  UNL1        0.0723
      8 C          -2.9522  -17.9493   22.7841 C.3     1  UNL1        0.0209
      9 C          -4.3229  -18.3412   22.3176 C.3     1  UNL1        0.0427
     10 C          -3.8512  -19.2973   21.5738 C.3     1  UNL1        0.0209
     11 C          -3.2097  -19.6957   21.3098 C.3     1  UNL1        0.0723
     12 C          -5.7799  -18.8295   21.7623 C.3     1  UNL1        0.1428
     13 N          -6.8989  -19.5387   21.0588 N.am    1  UNL1       -0.2214
     14 C          -8.3590  -19.2156   21.1757 C.ar    1  UNL1        0.0571
     15 C          -9.2018  -19.0949   19.9407 C.ar    1  UNL1        0.0155
     16 C         -10.6618  -18.7718   20.0577 C.ar    1  UNL1        0.0078
     17 C         -11.2792  -18.5695   21.4097 C.ar    1  UNL1        0.0304
     18 S         -12.6804  -18.2436   21.8347 S.2     1  UNL1       -0.0755
     19 C         -12.7037  -18.1629   23.3323 C.ar    1  UNL1        0.0870
     20 CL        -13.9031  -17.8596   24.1803 Cl      1  UNL1       -0.0752
     21 C         -11.3169  -18.4389   23.8329 C.ar    1  UNL1        0.0185
     22 C         -10.4365  -18.6901   22.6446 C.ar    1  UNL1        0.0086
     23 C          -8.9764  -19.0132   22.5277 C.ar    1  UNL1        0.0155
@<TRIPOS>BOND
     1     1     2    2
     2     2     3    1
     3     3     4    1
     4     4     5    1
     5     5     6    1
     6     6     7    1
     7     7     8    1
     8     8     9    1
     9     9    10    1
    10    10    11    1
    11     4    12    1
    12    12    13    1
    13    13    14    1
    14    14    15   ar
    15    15    16   ar
    16    16    17   ar
    17    17    18   ar
    18    18    19   ar
    19    19    20    1
    20    19    21   ar
    21    21    22   ar
    22    22    23   ar
    23    13     2   am
    24    23    14   ar
    25     9     4    1
    26    22    17   ar
    27    11     6    1
@<TRIPOS>MOLECULE
*****
 23 27 0 0 0
SMALL
GASTEIGER

@<TRIPOS>ATOM
      1 O         -10.3664  -17.4979   19.4056 O.2     1  UNL1       -0.2258
      2 C         -10.6280  -17.9060   20.8251 C.2     1  UNL1        0.4086
      3 O         -11.9302  -17.7675   21.5565 O.3     1  UNL1       -0.4384
      4 C         -11.7405  -18.3001   22.9459 C.3     1  UNL1        0.1706
      5 C         -13.1249  -17.7924   22.6710 C.3     1  UNL1        0.1145
      6 N         -14.1709  -17.8477   23.7446 N.3     1  UNL1       -0.2697
      7 C         -13.8326  -18.4107   25.0931 C.3     1  UNL1        0.0723
      8 C         -12.4482  -18.9184   25.3680 C.3     1  UNL1        0.0209
      9 C         -11.4021  -18.8631   24.2944 C.3     1  UNL1        0.0427
     10 C         -12.2286  -18.3259   23.4469 C.3     1  UNL1        0.0209
     11 C         -12.9670  -18.0552   23.3003 C.3     1  UNL1        0.0723
     12 C         -10.3209  -18.7678   23.0731 C.3     1  UNL1        0.1428
     13 N          -9.6334  -18.5242   21.7624 N.am    1  UNL1       -0.2214
     14 C          -8.2024  -18.8428   21.4448 C.ar    1  UNL1        0.0571
     15 C          -7.8682  -19.6721   20.2403 C.ar    1  UNL1        0.0155
     16 C          -6.4373  -19.9907   19.9228 C.ar    1  UNL1        0.0078
     17 C          -5.3406  -19.4801   20.8096 C.ar    1  UNL1        0.0304
     18 S          -3.8493  -19.6309   20.7501 S.2     1  UNL1       -0.0755
     19 C          -3.2619  -18.8949   21.9176 C.ar    1  UNL1        0.0870
     20 CL         -1.8027  -18.7841   22.2463 Cl      1  UNL1       -0.0752
     21 C          -4.3901  -18.2892   22.6988 C.ar    1  UNL1        0.0185
     22 C          -5.6748  -18.6509   22.0140 C.ar    1  UNL1        0.0086
     23 C          -7.1057  -18.3322   22.3316 C.ar    1  UNL1        0.0155
@<TRIPOS>BOND
     1     1     2    2
     2     2     3    1
     3     3     4    1
     4     4     5    1
     5     5     6    1
     6     6     7    1
     7     7     8    1
     8     8     9    1
     9     9    10    1
    10    10    11    1
    11     4    12    1
    12    12    13    1
    13    13    14    1
    14    14    15   ar
    15    15    16   ar
    16    16    17   ar
    17    17    18   ar
    18    18    19   ar
    19    19    20    1
    20    19    21   ar
    21    21    22   ar
    22    22    23   ar
    23    13     2   am
    24    23    14   ar
    25     9     4    1
    26    22    17   ar
    27    11     6    1
@<TRIPOS>MOLECULE
*****
 23 27 0 0 0
SMALL
GASTEIGER

@<TRIPOS>ATOM
      1 O          -8.1815  -20.5353   18.8456 O.2     1  UNL1       -0.2258
      2 C          -8.6840  -19.5393   19.8484 C.2     1  UNL1        0.4086
      3 O         -10.1086  -19.1019   20.0190 O.3     1  UNL1       -0.4384
      4 C         -10.1552  -18.0982   21.1327 C.3     1  UNL1        0.1706
      5 C         -11.4908  -18.3841   20.5129 C.3     1  UNL1        0.1145
      6 N         -12.7178  -17.6859   21.0198 N.3     1  UNL1       -0.2697
      7 C         -12.6092  -16.7017   22.1465 C.3     1  UNL1        0.0723
      8 C         -11.2735  -16.4157   22.7663 C.3     1  UNL1        0.0209
      9 C         -10.0465  -17.1140   22.2594 C.3     1  UNL1        0.0427
     10 C         -10.7278  -17.7723   21.3692 C.3     1  UNL1        0.0209
     11 C         -11.4401  -17.9249   21.0387 C.3     1  UNL1        0.0723
     12 C          -8.7593  -17.9153   21.6505 C.3     1  UNL1        0.1428
     13 N          -7.8500  -18.8059   20.8568 N.am    1  UNL1       -0.2214
     14 C          -6.3672  -18.9397   21.0394 C.ar    1  UNL1        0.0571
     15 C          -5.8172  -19.5219   22.3077 C.ar    1  UNL1        0.0155
     16 C          -4.3345  -19.6557   22.4902 C.ar    1  UNL1        0.0078
     17 C          -3.4017  -19.2073   21.4045 C.ar    1  UNL1        0.0304
     18 S          -1.9052  -19.2144   21.3005 S.2     1  UNL1       -0.0755
     19 C          -1.5304  -18.6367   19.9679 C.ar    1  UNL1        0.0870
     20 CL         -0.1358  -18.4550   19.4466 Cl      1  UNL1       -0.0752
     21 C          -2.7951  -18.2725   19.2484 C.ar    1  UNL1        0.0185
     22 C          -3.9516  -18.6251   20.1363 C.ar    1  UNL1        0.0086
     23 C          -5.4344  -18.4914   19.9537 C.ar    1  UNL1        0.0155
@<TRIPOS>BOND
     1     1     2    2
     2     2     3    1
     3     3     4    1
     4     4     5    1
     5     5     6    1
     6     6     7    1
     7     7     8    1
     8     8     9    1
     9     9    10    1
    10    10    11    1
    11     4    12    1
    12    12    13    1
    13    13    14    1
    14    14    15   ar
    15    15    16   ar
    16    16    17   ar
    17    17    18   ar
    18    18    19   ar
    19    19    20    1
    20    19    21   ar
    21    21    22   ar
    22    22    23   ar
    23    13     2   am
    24    23    14   ar
    25     9     4    1
    26    22    17   ar
    27    11     6    1
@<TRIPOS>MOLECULE
*****
 23 27 0 0 0
SMALL
GASTEIGER

@<TRIPOS>ATOM
      1 O          -8.8012  -15.0138   20.9952 O.2     1  UNL1       -0.2258
      2 C          -9.4432  -16.0065   21.9185 C.2     1  UNL1        0.4086
      3 O         -10.9157  -16.1644   22.1571 O.3     1  UNL1       -0.4384
      4 C         -11.1081  -17.2711   23.1513 C.3     1  UNL1        0.1706
      5 C         -12.3871  -16.6442   22.6811 C.3     1  UNL1        0.1145
      6 N         -13.7022  -17.1381   23.2071 N.3     1  UNL1       -0.2697
      7 C         -13.7382  -18.2589   24.2033 C.3     1  UNL1        0.0723
      8 C         -12.4592  -18.8858   24.6735 C.3     1  UNL1        0.0209
      9 C         -11.1442  -18.3918   24.1475 C.3     1  UNL1        0.0427
     10 C         -11.7218  -17.5016   23.3967 C.3     1  UNL1        0.0209
     11 C         -12.4039  -17.1672   23.1460 C.3     1  UNL1        0.0723
     12 C          -9.7545  -17.7970   23.5270 C.3     1  UNL1        0.1428
     13 N          -8.7256  -17.0155   22.7651 N.am    1  UNL1       -0.2214
     14 C          -7.2399  -17.2090   22.8372 C.ar    1  UNL1        0.0571
     15 C          -6.4088  -16.3167   23.7109 C.ar    1  UNL1        0.0155
     16 C          -4.9232  -16.5103   23.7829 C.ar    1  UNL1        0.0078
     17 C          -4.2685  -17.5961   22.9814 C.ar    1  UNL1        0.0304
     18 S          -2.8364  -18.0230   22.8509 S.2     1  UNL1       -0.0755
     19 C          -2.7824  -19.1790   21.8966 C.ar    1  UNL1        0.0870
     20 CL         -1.5467  -19.9176   21.4755 Cl      1  UNL1       -0.0752
     21 C          -4.1811  -19.4667   21.4374 C.ar    1  UNL1        0.0185
     22 C          -5.0995  -18.4884   22.1079 C.ar    1  UNL1        0.0086
     23 C          -6.5853  -18.2949   22.0358 C.ar    1  UNL1        0.0155
@<TRIPOS>BOND
     1     1     2    2
     2     2     3    1
     3     3     4    1
     4     4     5    1
     5     5     6    1
     6     6     7    1
     7     7     8    1
     8     8     9    1
     9     9    10    1
    10    10    11    1
    11     4    12    1
    12    12    13    1
    13    13    14    1
    14    14    15   ar
    15    15    16   ar
    16    16    17   ar
    17    17    18   ar
    18    18    19   ar
    19    19    20    1
    20    19    21   ar
    21    21    22   ar
    22    22    23   ar
    23    13     2   am
    24    23    14   ar
    25     9     4    1
    26    22    17   ar
    27    11     6    1
@<TRIPOS>MOLECULE
*****
 23 27 0 0 0
SMALL
GASTEIGER

@<TRIPOS>ATOM
      1 O          -8.7379  -21.2199   24.1442 O.2     1  UNL1       -0.2258
      2 C          -9.2902  -20.0032   23.4626 C.2     1  UNL1        0.4086
      3 O         -10.6449  -19.4019   23.6932 O.3     1  UNL1       -0.4384
      4 C         -10.7767  -18.2012   22.8038 C.3     1  UNL1        0.1706
      5 C         -11.9853  -18.4684   23.6511 C.3     1  UNL1        0.1145
      6 N         -13.1805  -17.5668   23.5583 N.3     1  UNL1       -0.2697
      7 C         -13.1671  -16.3981   22.6183 C.3     1  UNL1        0.0723
      8 C         -11.9585  -16.1309   21.7710 C.3     1  UNL1        0.0209
      9 C         -10.7633  -17.0325   21.8638 C.3     1  UNL1        0.0427
     10 C         -11.3345  -17.7805   22.7605 C.3     1  UNL1        0.0209
     11 C         -11.9790  -17.9230   23.2124 C.3     1  UNL1        0.0723
     12 C          -9.5034  -18.0605   22.0235 C.3     1  UNL1        0.1428
     13 N          -8.5847  -19.1741   22.4306 N.am    1  UNL1       -0.2214
     14 C          -7.2031  -19.4162   21.8991 C.ar    1  UNL1        0.0571
     15 C          -6.9594  -20.5281   20.9221 C.ar    1  UNL1        0.0155
     16 C          -5.5778  -20.7700   20.3906 C.ar    1  UNL1        0.0078
     17 C          -4.4399  -19.9003   20.8361 C.ar    1  UNL1        0.0304
     18 S          -2.9810  -19.8991   20.4869 S.2     1  UNL1       -0.0755
     19 C          -2.3230  -18.7866   21.2481 C.ar    1  UNL1        0.0870
     20 CL         -0.8684  -18.4242   21.1984 Cl      1  UNL1       -0.0752
     21 C          -3.3752  -18.1002   22.0677 C.ar    1  UNL1        0.0185
     22 C          -4.6835  -18.7885   21.8130 C.ar    1  UNL1        0.0086
     23 C          -6.0651  -18.5464   22.3445 C.ar    1  UNL1        0.0155
@<TRIPOS>BOND
     1     1     2    2
     2     2     3    1
     3     3     4    1
     4     4     5    1
     5     5     6    1
     6     6     7    1
     7     7     8    1
     8     8     9    1
     9     9    10    1
    10    10    11    1
    11     4    12    1
    12    12    13    1
    13    13    14    1
    14    14    15   ar
    15    15    16   ar
    16    16    17   ar
    17    17    18   ar
    18    18    19   ar
    19    19    20    1
    20    19    21   ar
    21    21    22   ar
    22    22    23   ar
    23    13     2   am
    24    23    14   ar
    25     9     4    1
    26    22    17   ar
    27    11     6    1
@<TRIPOS>MOLECULE
*****
 23 27 0 0 0
SMALL
GASTEIGER

@<TRIPOS>ATOM
      1 O         -12.0468   -8.0389   16.7377 O.2     1  UNL1       -0.2258
      2 C         -13.3078   -7.9970   17.5490 C.2     1  UNL1        0.4086
      3 O         -14.2776   -9.1270   17.7302 O.3     1  UNL1       -0.4384
      4 C         -15.3895   -8.6463   18.6147 C.3     1  UNL1        0.1706
      5 C         -15.5387  -10.0699   18.1664 C.3     1  UNL1        0.1145
      6 N         -16.7249  -10.8749   18.6079 N.3     1  UNL1       -0.2697
      7 C         -17.7619  -10.2562   19.4977 C.3     1  UNL1        0.0723
      8 C         -17.6127   -8.8326   19.9461 C.3     1  UNL1        0.0209
      9 C         -16.4265   -8.0276   19.5046 C.3     1  UNL1        0.0427
     10 C         -15.9431   -9.0219   18.8208 C.3     1  UNL1        0.0209
     11 C         -16.0226   -9.7812   18.5817 C.3     1  UNL1        0.0723
     12 C         -15.1070   -7.2192   18.9803 C.3     1  UNL1        0.1428
     13 N         -13.8204   -6.8179   18.3216 N.am    1  UNL1       -0.2214
     14 C         -13.1621   -5.4736   18.4186 C.ar    1  UNL1        0.0571
     15 C         -11.7404   -5.3665   18.8849 C.ar    1  UNL1        0.0155
     16 C         -11.0822   -4.0222   18.9818 C.ar    1  UNL1        0.0078
     17 C         -11.8456   -2.7850   18.6125 C.ar    1  UNL1        0.0304
     18 S         -11.4640   -1.3343   18.6070 S.2     1  UNL1       -0.0755
     19 C         -12.6498   -0.5448   18.1374 C.ar    1  UNL1        0.0870
     20 CL        -12.7104    0.9456   17.9801 Cl      1  UNL1       -0.0752
     21 C         -13.7642   -1.5075   17.8526 C.ar    1  UNL1        0.0185
     22 C         -13.2672   -2.8920   18.1462 C.ar    1  UNL1        0.0086
     23 C         -13.9255   -4.2363   18.0493 C.ar    1  UNL1        0.0155
@<TRIPOS>BOND
     1     1     2    2
     2     2     3    1
     3     3     4    1
     4     4     5    1
     5     5     6    1
     6     6     7    1
     7     7     8    1
     8     8     9    1
     9     9    10    1
    10    10    11    1
    11     4    12    1
    12    12    13    1
    13    13    14    1
    14    14    15   ar
    15    15    16   ar
    16    16    17   ar
    17    17    18   ar
    18    18    19   ar
    19    19    20    1
    20    19    21   ar
    21    21    22   ar
    22    22    23   ar
    23    13     2   am
    24    23    14   ar
    25     9     4    1
    26    22    17   ar
    27    11     6    1
@<TRIPOS>MOLECULE
*****
 23 27 0 0 0
SMALL
GASTEIGER

@<TRIPOS>ATOM
      1 O         -11.2946   -7.0534   18.9975 O.2     1  UNL1       -0.2258
      2 C         -12.0447   -5.7617   18.8603 C.2     1  UNL1        0.4086
      3 O         -11.4354   -4.3950   18.7564 O.3     1  UNL1       -0.4384
      4 C         -12.5499   -3.3985   18.6348 C.3     1  UNL1        0.1706
      5 C         -11.1804   -2.7868   18.6206 C.3     1  UNL1        0.1145
      6 N         -11.0242   -1.3004   18.4928 N.3     1  UNL1       -0.2697
      7 C         -12.2375   -0.4258   18.3791 C.3     1  UNL1        0.0723
      8 C         -13.6070   -1.0375   18.3933 C.3     1  UNL1        0.0209
      9 C         -13.7632   -2.5239   18.5212 C.3     1  UNL1        0.0427
     10 C         -12.4770   -2.7049   18.5752 C.3     1  UNL1        0.0209
     11 C         -11.7466   -2.3786   18.5676 C.3     1  UNL1        0.0723
     12 C         -13.8481   -4.1494   18.6635 C.3     1  UNL1        0.1428
     13 N         -13.5359   -5.6099   18.8029 N.am    1  UNL1       -0.2214
     14 C         -14.5388   -6.7232   18.8726 C.ar    1  UNL1        0.0571
     15 C         -14.1687   -8.0970   18.3975 C.ar    1  UNL1        0.0155
     16 C         -15.1716   -9.2101   18.4673 C.ar    1  UNL1        0.0078
     17 C         -16.5446   -8.9496   19.0120 C.ar    1  UNL1        0.0304
     18 S         -17.7350   -9.8423   19.2026 S.2     1  UNL1       -0.0755
     19 C         -18.8408   -9.0202   19.7955 C.ar    1  UNL1        0.0870
     20 CL        -20.2125   -9.5125   20.1502 Cl      1  UNL1       -0.0752
     21 C         -18.3339   -7.6195   19.9713 C.ar    1  UNL1        0.0185
     22 C         -16.9148   -7.5758   19.4870 C.ar    1  UNL1        0.0086
     23 C         -15.9119   -6.4626   19.4173 C.ar    1  UNL1        0.0155
@<TRIPOS>BOND
     1     1     2    2
     2     2     3    1
     3     3     4    1
     4     4     5    1
     5     5     6    1
     6     6     7    1
     7     7     8    1
     8     8     9    1
     9     9    10    1
    10    10    11    1
    11     4    12    1
    12    12    13    1
    13    13    14    1
    14    14    15   ar
    15    15    16   ar
    16    16    17   ar
    17    17    18   ar
    18    18    19   ar
    19    19    20    1
    20    19    21   ar
    21    21    22   ar
    22    22    23   ar
    23    13     2   am
    24    23    14   ar
    25     9     4    1
    26    22    17   ar
    27    11     6    1
@<TRIPOS>MOLECULE
*****
 23 27 0 0 0
SMALL
GASTEIGER

@<TRIPOS>ATOM
      1 O         -16.0807   -4.4204   18.9706 O.2     1  UNL1       -0.2258
      2 C         -14.5824   -4.3524   18.9880 C.2     1  UNL1        0.4086
      3 O         -13.6461   -5.5235   18.9420 O.3     1  UNL1       -0.4384
      4 C         -12.2423   -4.9964   18.9800 C.3     1  UNL1        0.1706
      5 C         -12.3306   -6.4921   18.9090 C.3     1  UNL1        0.1145
      6 N         -11.0781   -7.3170   18.8822 N.3     1  UNL1       -0.2697
      7 C          -9.7372   -6.6462   18.9264 C.3     1  UNL1        0.0723
      8 C          -9.6489   -5.1505   18.9973 C.3     1  UNL1        0.0209
      9 C         -10.9014   -4.3256   19.0241 C.3     1  UNL1        0.0427
     10 C         -11.6578   -5.3814   18.9674 C.3     1  UNL1        0.0209
     11 C         -11.7049   -6.1791   18.9296 C.3     1  UNL1        0.0723
     12 C         -12.3109   -3.4996   19.0495 C.3     1  UNL1        0.1428
     13 N         -13.7572   -3.1016   19.0544 N.am    1  UNL1       -0.2214
     14 C         -14.2854   -1.6990   19.1151 C.ar    1  UNL1        0.0571
     15 C         -13.6005   -0.6058   18.3497 C.ar    1  UNL1        0.0155
     16 C         -14.1288    0.7967   18.4105 C.ar    1  UNL1        0.0078
     17 C         -15.3419    1.1061   19.2367 C.ar    1  UNL1        0.0304
     18 S         -16.0865    2.3840   19.4872 S.2     1  UNL1       -0.0755
     19 C         -17.2316    2.0806   20.4074 C.ar    1  UNL1        0.0870
     20 CL        -18.2369    3.0689   20.9195 Cl      1  UNL1       -0.0752
     21 C         -17.1946    0.6152   20.7257 C.ar    1  UNL1        0.0185
     22 C         -16.0268    0.0130   20.0021 C.ar    1  UNL1        0.0086
     23 C         -15.4985   -1.3896   19.9413 C.ar    1  UNL1        0.0155
@<TRIPOS>BOND
     1     1     2    2
     2     2     3    1
     3     3     4    1
     4     4     5    1
     5     5     6    1
     6     6     7    1
     7     7     8    1
     8     8     9    1
     9     9    10    1
    10    10    11    1
    11     4    12    1
    12    12    13    1
    13    13    14    1
    14    14    15   ar
    15    15    16   ar
    16    16    17   ar
    17    17    18   ar
    18    18    19   ar
    19    19    20    1
    20    19    21   ar
    21    21    22   ar
    22    22    23   ar
    23    13     2   am
    24    23    14   ar
    25     9     4    1
    26    22    17   ar
    27    11     6    1
@<TRIPOS>MOLECULE
*****
 23 27 0 0 0
SMALL
GASTEIGER

@<TRIPOS>ATOM
      1 O         -16.1826   -6.6816   19.4165 O.2     1  UNL1       -0.2258
      2 C         -14.8534   -5.9907   19.3405 C.2     1  UNL1        0.4086
      3 O         -13.5236   -6.6564   19.1446 O.3     1  UNL1       -0.4384
      4 C         -12.4689   -5.5899   19.1300 C.3     1  UNL1        0.1706
      5 C         -11.9336   -6.9798   18.9522 C.3     1  UNL1        0.1145
      6 N         -10.4597   -7.1996   18.7808 N.3     1  UNL1       -0.2697
      7 C          -9.5212   -6.0295   18.7873 C.3     1  UNL1        0.0723
      8 C         -10.0565   -4.6397   18.9652 C.3     1  UNL1        0.0209
      9 C         -11.5304   -4.4199   19.1365 C.3     1  UNL1        0.0427
     10 C         -11.7811   -5.6925   19.0501 C.3     1  UNL1        0.0209
     11 C         -11.4956   -6.4337   18.9552 C.3     1  UNL1        0.0723
     12 C         -13.1469   -4.2650   19.3169 C.3     1  UNL1        0.1428
     13 N         -14.6206   -4.5127   19.4469 N.am    1  UNL1       -0.2214
     14 C         -15.6762   -3.4661   19.6481 C.ar    1  UNL1        0.0571
     15 C         -17.1111   -3.8702   19.8142 C.ar    1  UNL1        0.0155
     16 C         -18.1665   -2.8236   20.0154 C.ar    1  UNL1        0.0078
     17 C         -17.7871   -1.3729   20.0505 C.ar    1  UNL1        0.0304
     18 S         -18.6018   -0.1264   20.2316 S.2     1  UNL1       -0.0755
     19 C         -17.6703    1.0481   20.1774 C.ar    1  UNL1        0.0870
     20 CL        -18.0607    2.4899   20.3138 Cl      1  UNL1       -0.0752
     21 C         -16.2801    0.5276   19.9628 C.ar    1  UNL1        0.0185
     22 C         -16.3523   -0.9687   19.8844 C.ar    1  UNL1        0.0086
     23 C         -15.2967   -2.0153   19.6832 C.ar    1  UNL1        0.0155
@<TRIPOS>BOND
     1     1     2    2
     2     2     3    1
     3     3     4    1
     4     4     5    1
     5     5     6    1
     6     6     7    1
     7     7     8    1
     8     8     9    1
     9     9    10    1
    10    10    11    1
    11     4    12    1
    12    12    13    1
    13    13    14    1
    14    14    15   ar
    15    15    16   ar
    16    16    17   ar
    17    17    18   ar
    18    18    19   ar
    19    19    20    1
    20    19    21   ar
    21    21    22   ar
    22    22    23   ar
    23    13     2   am
    24    23    14   ar
    25     9     4    1
    26    22    17   ar
    27    11     6    1
