@<TRIPOS>MOLECULE
*****
 31 33 0 0 0
SMALL
GASTEIGER

@<TRIPOS>ATOM
      1 N         -11.6471  -17.7790   21.4543 N.3     1  UNL1       -0.2690
      2 C         -10.6892  -18.8326   20.9826 C.3     1  UNL1        0.0514
      3 C         -10.6366  -18.1805   19.6329 C.3     1  UNL1        0.0164
      4 C         -10.7418  -19.4847   22.3324 C.3     1  UNL1        0.0164
      5 C          -9.7313  -19.8862   20.5110 C.3     1  UNL1        0.0604
      6 C          -8.2532  -19.6726   20.6506 C.2     1  UNL1        0.0599
      7 C          -7.4656  -19.7635   21.9240 C.2     1  UNL1        0.0159
      8 C          -6.0287  -19.4776   21.6018 C.2     1  UNL1        0.0150
      9 C          -4.7989  -19.4264   22.4589 C.2     1  UNL1        0.0009
     10 C          -3.4686  -19.1077   21.8436 C.2     1  UNL1       -0.0041
     11 C          -3.3682  -18.8402   20.3711 C.2     1  UNL1       -0.0198
     12 C          -4.5980  -18.8914   19.5139 C.3     1  UNL1        0.0717
     13 C          -5.9283  -19.2101   20.1292 C.2     1  UNL1        0.0630
     14 N          -7.3031  -19.3306   19.5414 N.2     1  UNL1       -0.2536
     15 C         -12.9248  -18.1763   22.1321 C.3     1  UNL1        0.0989
     16 C         -14.2139  -18.2540   24.3865 C.2     1  UNL1       -0.0035
     17 C         -13.3215  -17.5270   23.4248 C.2     1  UNL1       -0.0088
     18 C         -11.3273  -16.3281   21.2480 C.3     1  UNL1        0.1057
     19 C         -10.0076  -15.7790   21.7029 C.3     1  UNL1        0.1700
     20 O          -9.3057  -14.7375   20.8826 O.3     1  UNL1       -0.3793
     21 H          -8.4725  -14.4930   21.3148 H       1  UNL1        0.2106
     22 C          -9.3898  -16.2713   22.9780 C.3     1  UNL1        0.2358
     23 O          -7.9615  -15.9411   23.2957 O.3     1  UNL1       -0.4721
     24 C          -7.5463  -15.6964   24.7162 C.ar    1  UNL1        0.1482
     25 C          -8.5850  -15.5868   25.7928 C.ar    1  UNL1        0.0376
     26 C          -8.1699  -15.3421   27.2133 C.ar    1  UNL1        0.0032
     27 C          -6.7161  -15.2071   27.5572 C.ar    1  UNL1        0.0009
     28 C          -5.6774  -15.3168   26.4806 C.ar    1  UNL1        0.0133
     29 C          -6.0925  -15.5615   25.0601 C.ar    1  UNL1        0.1023
     30 C          -5.0538  -15.6712   23.9834 C.1     1  UNL1        0.1035
     31 N          -4.0152  -15.7809   22.9067 N.1     1  UNL1       -0.1907
@<TRIPOS>BOND
     1    16    17    2
     2    17    15    1
     3    15     1    1
     4     1    18    1
     5    18    19    1
     6    19    20    1
     7    19    22    1
     8    22    23    1
     9    23    24    1
    10    24    25   ar
    11    25    26   ar
    12    26    27   ar
    13    27    28   ar
    14    28    29   ar
    15    29    30    1
    16    30    31    3
    17     1     2    1
    18     2     3    1
    19     2     4    1
    20     2     5    1
    21     5     6    1
    22     6     7    2
    23     7     8    1
    24     8     9    2
    25     9    10    1
    26    10    11    2
    27    11    12    1
    28    12    13    1
    29    13    14    2
    30    29    24   ar
    31    14     6    1
    32    13     8    1
    33    20    21    1
@<TRIPOS>MOLECULE
*****
 31 33 0 0 0
SMALL
GASTEIGER

@<TRIPOS>ATOM
      1 N          -9.1607  -18.8007   21.7812 N.3     1  UNL1       -0.2690
      2 C          -8.0974  -19.5605   21.0448 C.3     1  UNL1        0.0514
      3 C          -8.8547  -19.3779   19.7630 C.3     1  UNL1        0.0164
      4 C          -7.3401  -19.7432   22.3266 C.3     1  UNL1        0.0164
      5 C          -7.0342  -20.3203   20.3084 C.3     1  UNL1        0.0604
      6 C          -5.6427  -19.7673   20.2191 C.2     1  UNL1        0.0599
      7 C          -4.4525  -20.2452   20.9968 C.2     1  UNL1        0.0159
      8 C          -3.2713  -19.4126   20.5947 C.2     1  UNL1        0.0150
      9 C          -1.8361  -19.4299   21.0305 C.2     1  UNL1        0.0009
     10 C          -0.8612  -18.4548   20.4401 C.2     1  UNL1       -0.0041
     11 C          -1.3215  -17.4623   19.4138 C.2     1  UNL1       -0.0198
     12 C          -2.7567  -17.4450   18.9781 C.3     1  UNL1        0.0717
     13 C          -3.7316  -18.4201   19.5685 C.2     1  UNL1        0.0630
     14 N          -5.1972  -18.6394   19.3364 N.2     1  UNL1       -0.2536
     15 C          -9.5297  -19.1932   23.1810 C.3     1  UNL1        0.0989
     16 C         -11.7976  -18.5644   24.2818 C.2     1  UNL1       -0.0035
     17 C         -10.9517  -19.5362   23.5136 C.2     1  UNL1       -0.0088
     18 C          -9.8548  -17.6483   21.1176 C.3     1  UNL1        0.1057
     19 C          -9.8635  -16.2995   21.7738 C.3     1  UNL1        0.1700
     20 O         -11.1614  -15.6844   22.2067 O.3     1  UNL1       -0.3793
     21 H         -10.9905  -14.8188   22.6095 H       1  UNL1        0.2106
     22 C          -8.5745  -15.5657   21.9971 C.3     1  UNL1        0.2358
     23 O          -7.4283  -16.2533   22.6780 O.3     1  UNL1       -0.4721
     24 C          -7.1315  -15.9667   24.1201 C.ar    1  UNL1        0.1482
     25 C          -8.2564  -15.7889   25.0963 C.ar    1  UNL1        0.0376
     26 C          -7.9596  -15.5023   26.5385 C.ar    1  UNL1        0.0032
     27 C          -6.5380  -15.3935   27.0044 C.ar    1  UNL1        0.0009
     28 C          -5.4131  -15.5713   26.0282 C.ar    1  UNL1        0.0133
     29 C          -5.7098  -15.8579   24.5860 C.ar    1  UNL1        0.1023
     30 C          -4.5850  -16.0358   23.6098 C.1     1  UNL1        0.1035
     31 N          -3.4600  -16.2136   22.6336 N.1     1  UNL1       -0.1907
@<TRIPOS>BOND
     1    16    17    2
     2    17    15    1
     3    15     1    1
     4     1    18    1
     5    18    19    1
     6    19    20    1
     7    19    22    1
     8    22    23    1
     9    23    24    1
    10    24    25   ar
    11    25    26   ar
    12    26    27   ar
    13    27    28   ar
    14    28    29   ar
    15    29    30    1
    16    30    31    3
    17     1     2    1
    18     2     3    1
    19     2     4    1
    20     2     5    1
    21     5     6    1
    22     6     7    2
    23     7     8    1
    24     8     9    2
    25     9    10    1
    26    10    11    2
    27    11    12    1
    28    12    13    1
    29    13    14    2
    30    29    24   ar
    31    14     6    1
    32    13     8    1
    33    20    21    1
@<TRIPOS>MOLECULE
*****
 31 33 0 0 0
SMALL
GASTEIGER

@<TRIPOS>ATOM
      1 N         -10.5737  -19.0116   21.8665 N.3     1  UNL1       -0.2690
      2 C          -9.3715  -19.3007   21.0173 C.3     1  UNL1        0.0514
      3 C         -10.1425  -18.9081   19.7921 C.3     1  UNL1        0.0164
      4 C          -8.6004  -19.6934   22.2425 C.3     1  UNL1        0.0164
      5 C          -8.1693  -19.5899   20.1681 C.3     1  UNL1        0.0604
      6 C          -6.7922  -19.3412   20.7082 C.2     1  UNL1        0.0599
      7 C          -5.5376  -20.0438   20.2813 C.2     1  UNL1        0.0159
      8 C          -4.3978  -19.4831   21.0792 C.2     1  UNL1        0.0150
      9 C          -2.9301  -19.7923   21.0869 C.2     1  UNL1        0.0009
     10 C          -2.0126  -19.0524   22.0146 C.2     1  UNL1       -0.0041
     11 C          -2.5629  -18.0033   22.9347 C.2     1  UNL1       -0.0198
     12 C          -4.0306  -17.6940   22.9270 C.3     1  UNL1        0.0717
     13 C          -4.9481  -18.4340   21.9993 C.2     1  UNL1        0.0630
     14 N          -6.4279  -18.3463   21.7699 N.2     1  UNL1       -0.2536
     15 C         -11.5987  -18.0196   21.4025 C.3     1  UNL1        0.0989
     16 C         -12.4677  -15.9239   22.6686 C.2     1  UNL1       -0.0035
     17 C         -11.4592  -16.5711   21.7664 C.2     1  UNL1       -0.0088
     18 C         -10.7509  -19.7145   23.1798 C.3     1  UNL1        0.1057
     19 C         -11.0713  -18.9263   24.4151 C.3     1  UNL1        0.1700
     20 O         -12.4899  -18.8222   24.8915 O.3     1  UNL1       -0.3793
     21 H         -12.5218  -18.2815   25.6962 H       1  UNL1        0.2106
     22 C          -9.9731  -18.2421   25.1740 C.3     1  UNL1        0.2358
     23 O          -9.6232  -16.8165   24.8650 O.3     1  UNL1       -0.4721
     24 C          -8.3394  -16.2320   25.3749 C.ar    1  UNL1        0.1482
     25 C          -8.0036  -16.3179   26.8342 C.ar    1  UNL1        0.0376
     26 C          -6.7197  -15.7333   27.3441 C.ar    1  UNL1        0.0032
     27 C          -5.7717  -15.0628   26.3947 C.ar    1  UNL1        0.0009
     28 C          -6.1075  -14.9768   24.9352 C.ar    1  UNL1        0.0133
     29 C          -7.3913  -15.5614   24.4253 C.ar    1  UNL1        0.1023
     30 C          -7.7271  -15.4754   22.9660 C.1     1  UNL1        0.1035
     31 N          -8.0629  -15.3894   21.5065 N.1     1  UNL1       -0.1907
@<TRIPOS>BOND
     1    16    17    2
     2    17    15    1
     3    15     1    1
     4     1    18    1
     5    18    19    1
     6    19    20    1
     7    19    22    1
     8    22    23    1
     9    23    24    1
    10    24    25   ar
    11    25    26   ar
    12    26    27   ar
    13    27    28   ar
    14    28    29   ar
    15    29    30    1
    16    30    31    3
    17     1     2    1
    18     2     3    1
    19     2     4    1
    20     2     5    1
    21     5     6    1
    22     6     7    2
    23     7     8    1
    24     8     9    2
    25     9    10    1
    26    10    11    2
    27    11    12    1
    28    12    13    1
    29    13    14    2
    30    29    24   ar
    31    14     6    1
    32    13     8    1
    33    20    21    1
@<TRIPOS>MOLECULE
*****
 31 33 0 0 0
SMALL
GASTEIGER

@<TRIPOS>ATOM
      1 N          -8.2081  -19.7375   20.2249 N.3     1  UNL1       -0.2690
      2 C          -8.9673  -18.9520   21.2530 C.3     1  UNL1        0.0514
      3 C          -8.2266  -19.6654   22.3449 C.3     1  UNL1        0.0164
      4 C          -9.7080  -18.2386   20.1611 C.3     1  UNL1        0.0164
      5 C          -9.7264  -18.1666   22.2811 C.3     1  UNL1        0.0604
      6 C          -8.9881  -17.4463   23.3701 C.2     1  UNL1        0.0599
      7 C          -9.3813  -17.3945   24.8168 C.2     1  UNL1        0.0159
      8 C          -8.3633  -16.5675   25.5445 C.2     1  UNL1        0.0150
      9 C          -8.2352  -16.1733   26.9861 C.2     1  UNL1        0.0009
     10 C          -7.0847  -15.3198   27.4308 C.2     1  UNL1       -0.0041
     11 C          -6.0623  -14.8605   26.4340 C.2     1  UNL1       -0.0198
     12 C          -6.1904  -15.2546   24.9924 C.3     1  UNL1        0.0717
     13 C          -7.3409  -16.1081   24.5477 C.2     1  UNL1        0.0630
     14 N          -7.7271  -16.6512   23.2039 N.2     1  UNL1       -0.2536
     15 C          -8.7619  -19.8915   18.8395 C.3     1  UNL1        0.0989
     16 C          -9.2152  -21.3801   16.7589 C.2     1  UNL1       -0.0035
     17 C          -8.8063  -21.2457   18.1958 C.2     1  UNL1       -0.0088
     18 C          -6.8953  -20.3688   20.5825 C.3     1  UNL1        0.1057
     19 C          -5.6242  -19.8493   19.9788 C.3     1  UNL1        0.1700
     20 O          -5.5714  -18.4563   19.4250 O.3     1  UNL1       -0.3793
     21 H          -4.6838  -18.2806   19.0756 H       1  UNL1        0.2106
     22 C          -4.4058  -20.7228   19.9290 C.3     1  UNL1        0.2358
     23 O          -3.1883  -20.3580   20.7258 O.3     1  UNL1       -0.4721
     24 C          -3.1696  -19.0914   21.5291 C.ar    1  UNL1        0.1482
     25 C          -3.8944  -19.0242   22.8406 C.ar    1  UNL1        0.0376
     26 C          -3.8757  -17.7576   23.6439 C.ar    1  UNL1        0.0032
     27 C          -3.1320  -16.5582   23.1358 C.ar    1  UNL1        0.0009
     28 C          -2.4071  -16.6253   21.8243 C.ar    1  UNL1        0.0133
     29 C          -2.4258  -17.8919   21.0209 C.ar    1  UNL1        0.1023
     30 C          -1.7010  -17.9590   19.7095 C.1     1  UNL1        0.1035
     31 N          -0.9760  -18.0261   18.3979 N.1     1  UNL1       -0.1907
@<TRIPOS>BOND
     1    16    17    2
     2    17    15    1
     3    15     1    1
     4     1    18    1
     5    18    19    1
     6    19    20    1
     7    19    22    1
     8    22    23    1
     9    23    24    1
    10    24    25   ar
    11    25    26   ar
    12    26    27   ar
    13    27    28   ar
    14    28    29   ar
    15    29    30    1
    16    30    31    3
    17     1     2    1
    18     2     3    1
    19     2     4    1
    20     2     5    1
    21     5     6    1
    22     6     7    2
    23     7     8    1
    24     8     9    2
    25     9    10    1
    26    10    11    2
    27    11    12    1
    28    12    13    1
    29    13    14    2
    30    29    24   ar
    31    14     6    1
    32    13     8    1
    33    20    21    1
@<TRIPOS>MOLECULE
*****
 31 33 0 0 0
SMALL
GASTEIGER

@<TRIPOS>ATOM
      1 N          -9.1124  -18.9011   21.5532 N.3     1  UNL1       -0.2690
      2 C          -7.7696  -19.4916   21.8665 C.3     1  UNL1        0.0514
      3 C          -7.1527  -18.6677   20.7755 C.3     1  UNL1        0.0164
      4 C          -8.3865  -20.3156   22.9576 C.3     1  UNL1        0.0164
      5 C          -6.4268  -20.0821   22.1799 C.3     1  UNL1        0.0604
      6 C          -5.1806  -19.4305   21.6578 C.2     1  UNL1        0.0599
      7 C          -4.4793  -19.7692   20.3759 C.2     1  UNL1        0.0159
      8 C          -3.2822  -18.8738   20.2519 C.2     1  UNL1        0.0150
      9 C          -2.2223  -18.7555   19.1971 C.2     1  UNL1        0.0009
     10 C          -1.1239  -17.7452   19.3477 C.2     1  UNL1       -0.0041
     11 C          -1.0854  -16.8532   20.5530 C.2     1  UNL1       -0.0198
     12 C          -2.1453  -16.9714   21.6077 C.3     1  UNL1        0.0717
     13 C          -3.2437  -17.9817   21.4572 C.2     1  UNL1        0.0630
     14 N          -4.4170  -18.3258   22.3261 N.2     1  UNL1       -0.2536
     15 C          -9.5348  -18.7136   20.1261 C.3     1  UNL1        0.0989
     16 C          -9.0850  -20.5699   18.3648 C.2     1  UNL1       -0.0035
     17 C         -10.0138  -19.8881   19.3253 C.2     1  UNL1       -0.0088
     18 C         -10.0329  -18.4981   22.6669 C.3     1  UNL1        0.1057
     19 C         -10.5033  -17.0778   22.7742 C.3     1  UNL1        0.1700
     20 O         -11.9690  -16.7798   22.8885 O.3     1  UNL1       -0.3793
     21 H         -12.1003  -15.8206   22.9484 H       1  UNL1        0.2106
     22 C          -9.5081  -15.9555   22.7674 C.3     1  UNL1        0.2358
     23 O          -8.0934  -16.2050   23.1991 O.3     1  UNL1       -0.4721
     24 C          -7.7120  -16.0542   24.6420 C.ar    1  UNL1        0.1482
     25 C          -8.6770  -16.4536   25.7186 C.ar    1  UNL1        0.0376
     26 C          -8.2956  -16.3028   27.1614 C.ar    1  UNL1        0.0032
     27 C          -6.9491  -15.7526   27.5276 C.ar    1  UNL1        0.0009
     28 C          -5.9839  -15.3531   26.4510 C.ar    1  UNL1        0.0133
     29 C          -6.3654  -15.5039   25.0082 C.ar    1  UNL1        0.1023
     30 C          -5.4003  -15.1045   23.9316 C.1     1  UNL1        0.1035
     31 N          -4.4352  -14.7051   22.8550 N.1     1  UNL1       -0.1907
@<TRIPOS>BOND
     1    16    17    2
     2    17    15    1
     3    15     1    1
     4     1    18    1
     5    18    19    1
     6    19    20    1
     7    19    22    1
     8    22    23    1
     9    23    24    1
    10    24    25   ar
    11    25    26   ar
    12    26    27   ar
    13    27    28   ar
    14    28    29   ar
    15    29    30    1
    16    30    31    3
    17     1     2    1
    18     2     3    1
    19     2     4    1
    20     2     5    1
    21     5     6    1
    22     6     7    2
    23     7     8    1
    24     8     9    2
    25     9    10    1
    26    10    11    2
    27    11    12    1
    28    12    13    1
    29    13    14    2
    30    29    24   ar
    31    14     6    1
    32    13     8    1
    33    20    21    1
@<TRIPOS>MOLECULE
*****
 31 33 0 0 0
SMALL
GASTEIGER

@<TRIPOS>ATOM
      1 N          -8.9817  -19.6385   20.5975 N.3     1  UNL1       -0.2690
      2 C          -9.5661  -18.7420   21.6486 C.3     1  UNL1        0.0514
      3 C          -9.1509  -19.7166   22.7106 C.3     1  UNL1        0.0164
      4 C          -9.9814  -17.7675   20.5867 C.3     1  UNL1        0.0164
      5 C         -10.1505  -17.8456   22.6998 C.3     1  UNL1        0.0604
      6 C          -9.2546  -17.1873   23.7067 C.2     1  UNL1        0.0599
      7 C          -7.9750  -16.4637   23.4086 C.2     1  UNL1        0.0159
      8 C          -7.4106  -15.9662   24.7062 C.2     1  UNL1        0.0150
      9 C          -6.1693  -15.1880   25.0281 C.2     1  UNL1        0.0009
     10 C          -5.8589  -14.8260   26.4503 C.2     1  UNL1       -0.0041
     11 C          -6.7896  -15.2421   27.5505 C.2     1  UNL1       -0.0198
     12 C          -8.0309  -16.0203   27.2286 C.3     1  UNL1        0.0717
     13 C          -8.3413  -16.3823   25.8064 C.2     1  UNL1        0.0630
     14 N          -9.4810  -17.1370   25.1887 N.2     1  UNL1       -0.2536
     15 C          -9.7304  -19.8853   19.3214 C.3     1  UNL1        0.0989
     16 C          -8.8831  -21.7855   17.7653 C.2     1  UNL1       -0.0035
     17 C          -8.9924  -20.3256   18.0919 C.2     1  UNL1       -0.0088
     18 C          -7.6485  -20.2881   20.8225 C.3     1  UNL1        0.1057
     19 C          -6.3947  -19.6066   20.3605 C.3     1  UNL1        0.1700
     20 O          -6.4339  -18.1663   19.9432 O.3     1  UNL1       -0.3793
     21 H          -5.5458  -17.8831   19.6749 H       1  UNL1        0.2106
     22 C          -5.1015  -20.3654   20.3158 C.3     1  UNL1        0.2358
     23 O          -3.9839  -19.9982   21.2466 O.3     1  UNL1       -0.4721
     24 C          -3.0292  -18.9020   20.8764 C.ar    1  UNL1        0.1482
     25 C          -2.3897  -18.8908   19.5197 C.ar    1  UNL1        0.0376
     26 C          -1.4350  -17.7946   19.1495 C.ar    1  UNL1        0.0032
     27 C          -1.1198  -16.7097   20.1361 C.ar    1  UNL1        0.0009
     28 C          -1.7593  -16.7209   21.4930 C.ar    1  UNL1        0.0133
     29 C          -2.7140  -17.8170   21.8632 C.ar    1  UNL1        0.1023
     30 C          -3.3535  -17.8282   23.2199 C.1     1  UNL1        0.1035
     31 N          -3.9931  -17.8394   24.5768 N.1     1  UNL1       -0.1907
@<TRIPOS>BOND
     1    16    17    2
     2    17    15    1
     3    15     1    1
     4     1    18    1
     5    18    19    1
     6    19    20    1
     7    19    22    1
     8    22    23    1
     9    23    24    1
    10    24    25   ar
    11    25    26   ar
    12    26    27   ar
    13    27    28   ar
    14    28    29   ar
    15    29    30    1
    16    30    31    3
    17     1     2    1
    18     2     3    1
    19     2     4    1
    20     2     5    1
    21     5     6    1
    22     6     7    2
    23     7     8    1
    24     8     9    2
    25     9    10    1
    26    10    11    2
    27    11    12    1
    28    12    13    1
    29    13    14    2
    30    29    24   ar
    31    14     6    1
    32    13     8    1
    33    20    21    1
@<TRIPOS>MOLECULE
*****
 31 33 0 0 0
SMALL
GASTEIGER

@<TRIPOS>ATOM
      1 N          -9.3620  -19.0220   20.3130 N.3     1  UNL1       -0.2690
      2 C          -9.4937  -17.7008   21.0112 C.3     1  UNL1        0.0514
      3 C         -10.7545  -17.4230   20.2476 C.3     1  UNL1        0.0164
      4 C          -8.2329  -17.9787   21.7748 C.3     1  UNL1        0.0164
      5 C          -9.6253  -16.3798   21.7093 C.3     1  UNL1        0.0604
      6 C          -8.8258  -16.1031   22.9479 C.2     1  UNL1        0.0599
      7 C          -9.3253  -16.1975   24.3592 C.2     1  UNL1        0.0159
      8 C          -8.1947  -15.8361   25.2763 C.2     1  UNL1        0.0150
      9 C          -8.1015  -15.7553   26.7712 C.2     1  UNL1        0.0009
     10 C          -6.8099  -15.3568   27.4216 C.2     1  UNL1       -0.0041
     11 C          -5.6116  -15.0391   26.5772 C.2     1  UNL1       -0.0198
     12 C          -5.7048  -15.1199   25.0823 C.3     1  UNL1        0.0717
     13 C          -6.9963  -15.5184   24.4318 C.2     1  UNL1        0.0630
     14 N          -7.3864  -15.6833   22.9929 N.2     1  UNL1       -0.2536
     15 C         -10.3645  -20.1082   20.5681 C.3     1  UNL1        0.0989
     16 C         -10.5316  -20.3237   23.1518 C.2     1  UNL1       -0.0035
     17 C         -11.1866  -20.0906   21.8227 C.2     1  UNL1       -0.0088
     18 C          -8.2279  -19.2568   19.3598 C.3     1  UNL1        0.1057
     19 C          -7.4008  -20.5032   19.4707 C.3     1  UNL1        0.1700
     20 O          -7.7910  -21.7328   18.7052 O.3     1  UNL1       -0.3793
     21 H          -7.1555  -22.4426   18.8877 H       1  UNL1        0.2106
     22 C          -6.1836  -20.5202   20.3471 C.3     1  UNL1        0.2358
     23 O          -4.9903  -19.6845   19.9895 O.3     1  UNL1       -0.4721
     24 C          -4.2513  -18.9360   21.0590 C.ar    1  UNL1        0.1482
     25 C          -4.7954  -18.8918   22.4560 C.ar    1  UNL1        0.0376
     26 C          -4.0564  -18.1434   23.5255 C.ar    1  UNL1        0.0032
     27 C          -2.7732  -17.4391   23.1978 C.ar    1  UNL1        0.0009
     28 C          -2.2290  -17.4833   21.8006 C.ar    1  UNL1        0.0133
     29 C          -2.9680  -18.2317   20.7312 C.ar    1  UNL1        0.1023
     30 C          -2.4239  -18.2759   19.3341 C.1     1  UNL1        0.1035
     31 N          -1.8798  -18.3201   17.9369 N.1     1  UNL1       -0.1907
@<TRIPOS>BOND
     1    16    17    2
     2    17    15    1
     3    15     1    1
     4     1    18    1
     5    18    19    1
     6    19    20    1
     7    19    22    1
     8    22    23    1
     9    23    24    1
    10    24    25   ar
    11    25    26   ar
    12    26    27   ar
    13    27    28   ar
    14    28    29   ar
    15    29    30    1
    16    30    31    3
    17     1     2    1
    18     2     3    1
    19     2     4    1
    20     2     5    1
    21     5     6    1
    22     6     7    2
    23     7     8    1
    24     8     9    2
    25     9    10    1
    26    10    11    2
    27    11    12    1
    28    12    13    1
    29    13    14    2
    30    29    24   ar
    31    14     6    1
    32    13     8    1
    33    20    21    1
@<TRIPOS>MOLECULE
*****
 31 33 0 0 0
SMALL
GASTEIGER

@<TRIPOS>ATOM
      1 N         -10.3160  -18.8119   20.4221 N.3     1  UNL1       -0.2690
      2 C         -10.1615  -17.4613   21.0564 C.3     1  UNL1        0.0514
      3 C          -8.7932  -17.8438   21.5374 C.3     1  UNL1        0.0164
      4 C         -11.5298  -17.0788   20.5754 C.3     1  UNL1        0.0164
      5 C         -10.0070  -16.1109   21.6907 C.3     1  UNL1        0.0604
      6 C          -9.1118  -15.9398   22.8821 C.2     1  UNL1        0.0599
      7 C          -9.5062  -16.1332   24.3163 C.2     1  UNL1        0.0159
      8 C          -8.3032  -15.8583   25.1691 C.2     1  UNL1        0.0150
      9 C          -8.0969  -15.8918   26.6544 C.2     1  UNL1        0.0009
     10 C          -6.7527  -15.5620   27.2325 C.2     1  UNL1       -0.0041
     11 C          -5.6148  -15.1986   26.3253 C.2     1  UNL1       -0.0198
     12 C          -5.8210  -15.1651   24.8400 C.3     1  UNL1        0.0717
     13 C          -7.1652  -15.4949   24.2618 C.2     1  UNL1        0.0630
     14 N          -7.6650  -15.5453   22.8484 N.2     1  UNL1       -0.2536
     15 C         -11.0153  -19.9128   21.1629 C.3     1  UNL1        0.0989
     16 C         -11.4820  -19.2935   23.6426 C.2     1  UNL1       -0.0035
     17 C         -10.7513  -20.1185   22.6251 C.2     1  UNL1       -0.0088
     18 C          -9.7711  -19.0614   19.0471 C.3     1  UNL1        0.1057
     19 C          -8.7889  -20.1720   18.8197 C.3     1  UNL1        0.1700
     20 O          -9.1085  -21.2686   17.8473 O.3     1  UNL1       -0.3793
     21 H          -8.3734  -21.9008   17.8199 H       1  UNL1        0.2106
     22 C          -7.4870  -20.1861   19.5646 C.3     1  UNL1        0.2358
     23 O          -6.5697  -19.0012   19.4942 O.3     1  UNL1       -0.4721
     24 C          -5.1829  -19.0918   20.0585 C.ar    1  UNL1        0.1482
     25 C          -4.0157  -18.5839   19.2650 C.ar    1  UNL1        0.0376
     26 C          -2.6288  -18.6745   19.8293 C.ar    1  UNL1        0.0032
     27 C          -2.4092  -19.2730   21.1871 C.ar    1  UNL1        0.0009
     28 C          -3.5764  -19.7810   21.9806 C.ar    1  UNL1        0.0133
     29 C          -4.9633  -19.6904   21.4163 C.ar    1  UNL1        0.1023
     30 C          -6.1305  -20.1983   22.2097 C.1     1  UNL1        0.1035
     31 N          -7.2977  -20.7063   23.0032 N.1     1  UNL1       -0.1907
@<TRIPOS>BOND
     1    16    17    2
     2    17    15    1
     3    15     1    1
     4     1    18    1
     5    18    19    1
     6    19    20    1
     7    19    22    1
     8    22    23    1
     9    23    24    1
    10    24    25   ar
    11    25    26   ar
    12    26    27   ar
    13    27    28   ar
    14    28    29   ar
    15    29    30    1
    16    30    31    3
    17     1     2    1
    18     2     3    1
    19     2     4    1
    20     2     5    1
    21     5     6    1
    22     6     7    2
    23     7     8    1
    24     8     9    2
    25     9    10    1
    26    10    11    2
    27    11    12    1
    28    12    13    1
    29    13    14    2
    30    29    24   ar
    31    14     6    1
    32    13     8    1
    33    20    21    1
@<TRIPOS>MOLECULE
*****
 31 33 0 0 0
SMALL
GASTEIGER

@<TRIPOS>ATOM
      1 N          -7.2847  -16.9451   23.5154 N.3     1  UNL1       -0.2690
      2 C          -6.5545  -18.0550   22.8189 C.3     1  UNL1        0.0514
      3 C          -5.2443  -17.4411   23.2143 C.3     1  UNL1        0.0164
      4 C          -7.8648  -18.6689   22.4235 C.3     1  UNL1        0.0164
      5 C          -5.8244  -19.1648   22.1224 C.3     1  UNL1        0.0604
      6 C          -4.5511  -18.8771   21.3834 C.2     1  UNL1        0.0599
      7 C          -3.1623  -19.0146   21.9331 C.2     1  UNL1        0.0159
      8 C          -2.1960  -18.6238   20.8545 C.2     1  UNL1        0.0150
      9 C          -0.6975  -18.5641   20.8227 C.2     1  UNL1        0.0009
     10 C           0.0093  -18.1254   19.5746 C.2     1  UNL1       -0.0041
     11 C          -0.7824  -17.7464   18.3582 C.2     1  UNL1       -0.0198
     12 C          -2.2808  -17.8060   18.3899 C.3     1  UNL1        0.0717
     13 C          -2.9876  -18.2448   19.6381 C.2     1  UNL1        0.0630
     14 N          -4.4432  -18.4013   19.9650 N.2     1  UNL1       -0.2536
     15 C          -6.5153  -15.8417   24.1789 C.3     1  UNL1        0.0989
     16 C          -5.7706  -14.9888   26.5173 C.2     1  UNL1       -0.0035
     17 C          -6.8563  -15.4265   25.5794 C.2     1  UNL1       -0.0088
     18 C          -8.7843  -16.9387   23.5483 C.3     1  UNL1        0.1057
     19 C          -9.5470  -15.9013   22.7788 C.3     1  UNL1        0.1700
     20 O          -8.8418  -15.0512   21.7638 O.3     1  UNL1       -0.3793
     21 H          -9.4749  -14.4369   21.3606 H       1  UNL1        0.2106
     22 C         -11.0148  -15.7139   23.0243 C.3     1  UNL1        0.2358
     23 O         -12.0092  -16.6074   22.3438 O.3     1  UNL1       -0.4721
     24 C         -11.5406  -17.8280   21.6086 C.ar    1  UNL1        0.1482
     25 C         -11.5099  -19.1567   22.3040 C.ar    1  UNL1        0.0376
     26 C         -11.0413  -20.3773   21.5688 C.ar    1  UNL1        0.0032
     27 C         -10.6034  -20.2693   20.1383 C.ar    1  UNL1        0.0009
     28 C         -10.6341  -18.9405   19.4428 C.ar    1  UNL1        0.0133
     29 C         -11.1027  -17.7199   20.1780 C.ar    1  UNL1        0.1023
     30 C         -11.1333  -16.3912   19.4826 C.1     1  UNL1        0.1035
     31 N         -11.1640  -15.0624   18.7872 N.1     1  UNL1       -0.1907
@<TRIPOS>BOND
     1    16    17    2
     2    17    15    1
     3    15     1    1
     4     1    18    1
     5    18    19    1
     6    19    20    1
     7    19    22    1
     8    22    23    1
     9    23    24    1
    10    24    25   ar
    11    25    26   ar
    12    26    27   ar
    13    27    28   ar
    14    28    29   ar
    15    29    30    1
    16    30    31    3
    17     1     2    1
    18     2     3    1
    19     2     4    1
    20     2     5    1
    21     5     6    1
    22     6     7    2
    23     7     8    1
    24     8     9    2
    25     9    10    1
    26    10    11    2
    27    11    12    1
    28    12    13    1
    29    13    14    2
    30    29    24   ar
    31    14     6    1
    32    13     8    1
    33    20    21    1
