@<TRIPOS>MOLECULE
*****
 28 31 0 0 0
SMALL
GASTEIGER

@<TRIPOS>ATOM
      1 N          -5.8942  -18.0394   22.4535 N.ar    1  UNL1       -0.3048
      2 C          -6.9353  -19.0926   22.2152 C.ar    1  UNL1        0.0833
      3 C          -8.1672  -18.7078   22.9795 C.ar    1  UNL1        0.0579
      4 C          -7.8875  -17.4168   23.6902 C.ar    1  UNL1        0.0207
      5 C          -8.7305  -16.5640   24.5913 C.ar    1  UNL1        0.0016
      6 C          -8.1687  -15.2981   25.1673 C.ar    1  UNL1        0.0001
      7 C          -6.7638  -14.8850   24.8422 C.ar    1  UNL1        0.0015
      8 C          -5.9208  -15.7378   23.9411 C.ar    1  UNL1        0.0175
      9 C          -6.4827  -17.0037   23.3651 C.ar    1  UNL1        0.0641
     10 C          -1.7352  -17.9946   20.7354 C.ar    1  UNL1        0.0141
     11 C          -2.8270  -18.7501   20.0374 C.ar    1  UNL1        0.0026
     12 C          -4.2133  -18.7650   20.6101 C.ar    1  UNL1        0.0176
     13 C          -4.5079  -18.0245   21.8808 C.ar    1  UNL1        0.0640
     14 C          -3.4160  -17.2690   22.5789 C.ar    1  UNL1        0.0176
     15 C          -2.0297  -17.2541   22.0062 C.ar    1  UNL1        0.0026
     16 O           0.4230  -16.6951   20.1006 O.co2   1  UNL1       -0.5446
     17 C          -0.3490  -17.9797   20.1627 C.2     1  UNL1        0.0729
     18 O           0.2653  -19.2493   19.6521 O.co2   1  UNL1       -0.5446
     19 C          -9.4532  -19.4786   23.0252 C.2     1  UNL1        0.1987
     20 O          -9.4619  -20.8942   23.5211 O.2     1  UNL1       -0.2865
     21 C         -10.7306  -18.8338   22.5749 C.ar    1  UNL1        0.0601
     22 C         -10.9371  -18.5109   21.1248 C.ar    1  UNL1        0.0615
     23 CL         -9.8663  -18.8328   20.1249 Cl      1  UNL1       -0.0821
     24 C         -12.2144  -17.8662   20.6745 C.ar    1  UNL1        0.0115
     25 C         -13.2852  -17.5443   21.6744 C.ar    1  UNL1        0.0017
     26 C         -13.0786  -17.8672   23.1246 C.ar    1  UNL1        0.0115
     27 C         -11.8013  -18.5120   23.5749 C.ar    1  UNL1        0.0615
     28 CL        -11.5948  -18.8349   25.0251 Cl      1  UNL1       -0.0821
@<TRIPOS>UNITY_ATOM_ATTR
16 1
charge -1
@<TRIPOS>BOND
     1    16    17   ar
     2    17    18   ar
     3    17    10    1
     4    10    11   ar
     5    11    12   ar
     6    12    13   ar
     7    13     1    1
     8     1     2   ar
     9     2     3   ar
    10     3    19    1
    11    19    20    2
    12    19    21    1
    13    21    22   ar
    14    22    23    1
    15    22    24   ar
    16    24    25   ar
    17    25    26   ar
    18    26    27   ar
    19    27    28    1
    20     3     4   ar
    21     4     5   ar
    22     5     6   ar
    23     6     7   ar
    24     7     8   ar
    25     8     9   ar
    26    13    14   ar
    27    14    15   ar
    28    15    10   ar
    29     9     1   ar
    30    27    21   ar
    31     9     4   ar
@<TRIPOS>MOLECULE
*****
 28 31 0 0 0
SMALL
GASTEIGER

@<TRIPOS>ATOM
      1 N          -5.8913  -18.0366   22.4568 N.ar    1  UNL1       -0.3048
      2 C          -6.9321  -19.0902   22.2191 C.ar    1  UNL1        0.0833
      3 C          -8.1636  -18.7062   22.9846 C.ar    1  UNL1        0.0579
      4 C          -7.8839  -17.4153   23.6954 C.ar    1  UNL1        0.0207
      5 C          -8.7266  -16.5632   24.5975 C.ar    1  UNL1        0.0016
      6 C          -8.1648  -15.2972   25.1734 C.ar    1  UNL1        0.0001
      7 C          -6.7604  -14.8834   24.8472 C.ar    1  UNL1        0.0015
      8 C          -5.9178  -15.7354   23.9451 C.ar    1  UNL1        0.0175
      9 C          -6.4795  -17.0014   23.3692 C.ar    1  UNL1        0.0641
     10 C          -1.7339  -17.9893   20.7351 C.ar    1  UNL1        0.0141
     11 C          -2.8181  -18.7725   20.0560 C.ar    1  UNL1        0.0026
     12 C          -4.2039  -18.7883   20.6299 C.ar    1  UNL1        0.0176
     13 C          -4.5055  -18.0208   21.8829 C.ar    1  UNL1        0.0640
     14 C          -3.4213  -17.2375   22.5620 C.ar    1  UNL1        0.0176
     15 C          -2.0356  -17.2218   21.9881 C.ar    1  UNL1        0.0026
     16 O           0.2656  -19.2424   19.6483 O.co2   1  UNL1       -0.5446
     17 C          -0.3481  -17.9735   20.1612 C.2     1  UNL1        0.0729
     18 O           0.4238  -16.6888   20.1001 O.co2   1  UNL1       -0.5446
     19 C          -9.4492  -19.4777   23.0311 C.2     1  UNL1        0.1987
     20 O          -9.4571  -20.8929   23.5282 O.2     1  UNL1       -0.2865
     21 C         -10.7270  -18.8340   22.5805 C.ar    1  UNL1        0.0601
     22 C         -11.7975  -18.5114   23.5804 C.ar    1  UNL1        0.0615
     23 CL        -11.5903  -18.8326   25.0309 Cl      1  UNL1       -0.0821
     24 C         -13.0753  -17.8677   23.1300 C.ar    1  UNL1        0.0115
     25 C         -13.2824  -17.5466   21.6794 C.ar    1  UNL1        0.0017
     26 C         -12.2119  -17.8691   20.6795 C.ar    1  UNL1        0.0115
     27 C         -10.9342  -18.5128   21.1300 C.ar    1  UNL1        0.0615
     28 CL         -9.8636  -18.8354   20.1301 Cl      1  UNL1       -0.0821
@<TRIPOS>UNITY_ATOM_ATTR
16 1
charge -1
@<TRIPOS>BOND
     1    16    17   ar
     2    17    18   ar
     3    17    10    1
     4    10    11   ar
     5    11    12   ar
     6    12    13   ar
     7    13     1    1
     8     1     2   ar
     9     2     3   ar
    10     3    19    1
    11    19    20    2
    12    19    21    1
    13    21    22   ar
    14    22    23    1
    15    22    24   ar
    16    24    25   ar
    17    25    26   ar
    18    26    27   ar
    19    27    28    1
    20     3     4   ar
    21     4     5   ar
    22     5     6   ar
    23     6     7   ar
    24     7     8   ar
    25     8     9   ar
    26    13    14   ar
    27    14    15   ar
    28    15    10   ar
    29     9     1   ar
    30    27    21   ar
    31     9     4   ar
@<TRIPOS>MOLECULE
*****
 28 31 0 0 0
SMALL
GASTEIGER

@<TRIPOS>ATOM
      1 N          -6.0296  -18.1702   21.6499 N.ar    1  UNL1       -0.3048
      2 C          -6.5989  -17.5341   22.8832 C.ar    1  UNL1        0.0833
      3 C          -8.0803  -17.7697   22.8845 C.ar    1  UNL1        0.0579
      4 C          -8.4265  -18.5514   21.6520 C.ar    1  UNL1        0.0207
      5 C          -9.7321  -19.0698   21.1260 C.ar    1  UNL1        0.0016
      6 C          -9.7702  -19.8357   19.8368 C.ar    1  UNL1        0.0001
      7 C          -8.5027  -20.0833   19.0738 C.ar    1  UNL1        0.0015
      8 C          -7.1971  -19.5649   19.5998 C.ar    1  UNL1        0.0175
      9 C          -7.1590  -18.7990   20.8889 C.ar    1  UNL1        0.0641
     10 C          -1.6941  -18.1892   20.4443 C.ar    1  UNL1        0.0141
     11 C          -2.7562  -18.4901   19.4288 C.ar    1  UNL1        0.0026
     12 C          -4.2014  -18.4837   19.8307 C.ar    1  UNL1        0.0176
     13 C          -4.5844  -18.1766   21.2480 C.ar    1  UNL1        0.0640
     14 C          -3.5222  -17.8757   22.2636 C.ar    1  UNL1        0.0176
     15 C          -2.0770  -17.8820   21.8617 C.ar    1  UNL1        0.0026
     16 O           0.5275  -16.9125   20.0152 O.co2   1  UNL1       -0.5446
     17 C          -0.2489  -18.1955   20.0424 C.2     1  UNL1        0.0729
     18 O           0.4197  -19.4849   19.6678 O.co2   1  UNL1       -0.5446
     19 C          -9.0460  -17.3051   23.9341 C.2     1  UNL1        0.1987
     20 O          -8.5399  -16.6187   25.1679 O.2     1  UNL1       -0.2865
     21 C         -10.5181  -17.5270   23.7497 C.ar    1  UNL1        0.0601
     22 C         -11.2084  -18.6333   24.4909 C.ar    1  UNL1        0.0615
     23 CL        -10.4267  -19.5178   25.4164 Cl      1  UNL1       -0.0821
     24 C         -12.6804  -18.8553   24.3066 C.ar    1  UNL1        0.0115
     25 C         -13.4621  -17.9708   23.3811 C.ar    1  UNL1        0.0017
     26 C         -12.7718  -16.8644   22.6399 C.ar    1  UNL1        0.0115
     27 C         -11.2998  -16.6424   22.8242 C.ar    1  UNL1        0.0615
     28 CL        -10.6095  -15.5361   22.0830 Cl      1  UNL1       -0.0821
@<TRIPOS>UNITY_ATOM_ATTR
16 1
charge -1
@<TRIPOS>BOND
     1    16    17   ar
     2    17    18   ar
     3    17    10    1
     4    10    11   ar
     5    11    12   ar
     6    12    13   ar
     7    13     1    1
     8     1     2   ar
     9     2     3   ar
    10     3    19    1
    11    19    20    2
    12    19    21    1
    13    21    22   ar
    14    22    23    1
    15    22    24   ar
    16    24    25   ar
    17    25    26   ar
    18    26    27   ar
    19    27    28    1
    20     3     4   ar
    21     4     5   ar
    22     5     6   ar
    23     6     7   ar
    24     7     8   ar
    25     8     9   ar
    26    13    14   ar
    27    14    15   ar
    28    15    10   ar
    29     9     1   ar
    30    27    21   ar
    31     9     4   ar
@<TRIPOS>MOLECULE
*****
 28 31 0 0 0
SMALL
GASTEIGER

@<TRIPOS>ATOM
      1 N          -5.6958  -16.8309   23.1299 N.ar    1  UNL1       -0.3048
      2 C          -7.0569  -17.1120   22.5656 C.ar    1  UNL1        0.0833
      3 C          -8.0761  -16.6929   23.5833 C.ar    1  UNL1        0.0579
      4 C          -7.3448  -16.1529   24.7765 C.ar    1  UNL1        0.0207
      5 C          -7.8285  -15.5945   26.0819 C.ar    1  UNL1        0.0016
      6 C          -6.8411  -15.1214   27.1071 C.ar    1  UNL1        0.0001
      7 C          -5.3699  -15.2067   26.8269 C.ar    1  UNL1        0.0015
      8 C          -4.8863  -15.7651   25.5215 C.ar    1  UNL1        0.0175
      9 C          -5.8737  -16.2382   24.4963 C.ar    1  UNL1        0.0641
     10 C          -1.7680  -17.6264   21.0829 C.ar    1  UNL1        0.0141
     11 C          -2.7879  -18.7200   21.1997 C.ar    1  UNL1        0.0026
     12 C          -4.0972  -18.4548   21.8820 C.ar    1  UNL1        0.0176
     13 C          -4.3865  -17.0961   22.4476 C.ar    1  UNL1        0.0640
     14 C          -3.3665  -16.0024   22.3309 C.ar    1  UNL1        0.0176
     15 C          -2.0573  -16.2676   21.6485 C.ar    1  UNL1        0.0026
     16 O           0.5756  -16.8085   20.3157 O.co2   1  UNL1       -0.5446
     17 C          -0.4587  -17.8915   20.4006 C.2     1  UNL1        0.0729
     18 O          -0.1838  -19.2397   19.8033 O.co2   1  UNL1       -0.5446
     19 C          -9.5651  -16.7957   23.4340 C.2     1  UNL1        0.1987
     20 O         -10.4633  -15.9134   24.2491 O.2     1  UNL1       -0.2865
     21 C         -10.1559  -17.7811   22.4695 C.ar    1  UNL1        0.0601
     22 C         -10.2465  -19.2317   22.8405 C.ar    1  UNL1        0.0615
     23 CL         -9.7463  -19.6969   24.1760 Cl      1  UNL1       -0.0821
     24 C         -10.8372  -20.2170   21.8762 C.ar    1  UNL1        0.0115
     25 C         -11.3374  -19.7518   20.5407 C.ar    1  UNL1        0.0017
     26 C         -11.2467  -18.3012   20.1697 C.ar    1  UNL1        0.0115
     27 C         -10.6560  -17.3159   21.1341 C.ar    1  UNL1        0.0615
     28 CL        -10.5654  -15.8653   20.7631 Cl      1  UNL1       -0.0821
@<TRIPOS>UNITY_ATOM_ATTR
16 1
charge -1
@<TRIPOS>BOND
     1    16    17   ar
     2    17    18   ar
     3    17    10    1
     4    10    11   ar
     5    11    12   ar
     6    12    13   ar
     7    13     1    1
     8     1     2   ar
     9     2     3   ar
    10     3    19    1
    11    19    20    2
    12    19    21    1
    13    21    22   ar
    14    22    23    1
    15    22    24   ar
    16    24    25   ar
    17    25    26   ar
    18    26    27   ar
    19    27    28    1
    20     3     4   ar
    21     4     5   ar
    22     5     6   ar
    23     6     7   ar
    24     7     8   ar
    25     8     9   ar
    26    13    14   ar
    27    14    15   ar
    28    15    10   ar
    29     9     1   ar
    30    27    21   ar
    31     9     4   ar
@<TRIPOS>MOLECULE
*****
 28 31 0 0 0
SMALL
GASTEIGER

@<TRIPOS>ATOM
      1 N          -6.3091  -18.2369   21.3224 N.ar    1  UNL1       -0.3048
      2 C          -6.9602  -17.5321   22.4754 C.ar    1  UNL1        0.0833
      3 C          -8.4381  -17.7748   22.3922 C.ar    1  UNL1        0.0579
      4 C          -8.7004  -18.6296   21.1878 C.ar    1  UNL1        0.0207
      5 C          -9.9674  -19.1848   20.6078 C.ar    1  UNL1        0.0016
      6 C          -9.9185  -20.0256   19.3666 C.ar    1  UNL1        0.0001
      7 C          -8.6027  -20.3112   18.7054 C.ar    1  UNL1        0.0015
      8 C          -7.3358  -19.7560   19.2855 C.ar    1  UNL1        0.0175
      9 C          -7.3846  -18.9152   20.5267 C.ar    1  UNL1        0.0641
     10 C          -1.9029  -18.3046   20.4107 C.ar    1  UNL1        0.0141
     11 C          -2.3791  -17.9338   21.7839 C.ar    1  UNL1        0.0026
     12 C          -3.8478  -17.9112   22.0878 C.ar    1  UNL1        0.0176
     13 C          -4.8404  -18.2595   21.0186 C.ar    1  UNL1        0.0640
     14 C          -4.3642  -18.6304   19.6453 C.ar    1  UNL1        0.0176
     15 C          -2.8955  -18.6529   19.3414 C.ar    1  UNL1        0.0026
     16 O           0.3642  -17.0589   20.1697 O.co2   1  UNL1       -0.5446
     17 C          -0.4342  -18.3272   20.1068 C.2     1  UNL1        0.0729
     18 O           0.2361  -19.6180   19.7401 O.co2   1  UNL1       -0.5446
     19 C          -9.4722  -17.2542   23.3459 C.2     1  UNL1        0.1987
     20 O         -10.8919  -17.0835   22.8931 O.2     1  UNL1       -0.2865
     21 C          -9.0864  -16.9041   24.7527 C.ar    1  UNL1        0.0601
     22 C          -9.4055  -17.8473   25.8746 C.ar    1  UNL1        0.0615
     23 CL        -10.1103  -19.1404   25.5897 Cl      1  UNL1       -0.0821
     24 C          -9.0199  -17.4973   27.2812 C.ar    1  UNL1        0.0115
     25 C          -8.3151  -16.2042   27.5660 C.ar    1  UNL1        0.0017
     26 C          -7.9960  -15.2610   26.4441 C.ar    1  UNL1        0.0115
     27 C          -8.3817  -15.6110   25.0374 C.ar    1  UNL1        0.0615
     28 CL         -8.0626  -14.6678   23.9155 Cl      1  UNL1       -0.0821
@<TRIPOS>UNITY_ATOM_ATTR
16 1
charge -1
@<TRIPOS>BOND
     1    16    17   ar
     2    17    18   ar
     3    17    10    1
     4    10    11   ar
     5    11    12   ar
     6    12    13   ar
     7    13     1    1
     8     1     2   ar
     9     2     3   ar
    10     3    19    1
    11    19    20    2
    12    19    21    1
    13    21    22   ar
    14    22    23    1
    15    22    24   ar
    16    24    25   ar
    17    25    26   ar
    18    26    27   ar
    19    27    28    1
    20     3     4   ar
    21     4     5   ar
    22     5     6   ar
    23     6     7   ar
    24     7     8   ar
    25     8     9   ar
    26    13    14   ar
    27    14    15   ar
    28    15    10   ar
    29     9     1   ar
    30    27    21   ar
    31     9     4   ar
@<TRIPOS>MOLECULE
*****
 28 31 0 0 0
SMALL
GASTEIGER

@<TRIPOS>ATOM
      1 N           2.0141    0.3552   22.5415 N.ar    1  UNL1       -0.3048
      2 C           2.3014    0.6118   23.9912 C.ar    1  UNL1        0.0833
      3 C           1.3774    1.6957   24.4620 C.ar    1  UNL1        0.0579
      4 C           0.5192    2.1089   23.3032 C.ar    1  UNL1        0.0207
      5 C          -0.5698    3.1324   23.1756 C.ar    1  UNL1        0.0016
      6 C          -1.2653    3.3275   21.8610 C.ar    1  UNL1        0.0001
      7 C          -0.8718    2.4990   20.6741 C.ar    1  UNL1        0.0015
      8 C           0.2171    1.4754   20.8018 C.ar    1  UNL1        0.0175
      9 C           0.9126    1.2804   22.1163 C.ar    1  UNL1        0.0641
     10 C           4.0918   -2.6610   19.9269 C.ar    1  UNL1        0.0141
     11 C           4.3326   -2.6596   21.4074 C.ar    1  UNL1        0.0026
     12 C           3.6400   -1.6542   22.2790 C.ar    1  UNL1        0.0176
     13 C           2.7067   -0.6502   21.6700 C.ar    1  UNL1        0.0640
     14 C           2.4659   -0.6516   20.1894 C.ar    1  UNL1        0.0176
     15 C           3.1585   -1.6570   19.3179 C.ar    1  UNL1        0.0026
     16 O           4.7340   -5.1239   19.4060 O.co2   1  UNL1       -0.5446
     17 C           4.7844   -3.6663   19.0554 C.2     1  UNL1        0.0729
     18 O           5.5274   -3.2141   17.8333 O.co2   1  UNL1       -0.5446
     19 C           1.3216    2.2662   25.8481 C.2     1  UNL1        0.1987
     20 O           1.8444    3.6470   26.1125 O.2     1  UNL1       -0.2865
     21 C           0.7428    1.4559   26.9700 C.ar    1  UNL1        0.0601
     22 C          -0.7179    1.5603   27.2947 C.ar    1  UNL1        0.0615
     23 CL         -1.5998    2.4752   26.4976 Cl      1  UNL1       -0.0821
     24 C          -1.2967    0.7501   28.4165 C.ar    1  UNL1        0.0115
     25 C          -0.4147   -0.1647   29.2135 C.ar    1  UNL1        0.0017
     26 C           1.0460   -0.2692   28.8888 C.ar    1  UNL1        0.0115
     27 C           1.6248    0.5411   27.7670 C.ar    1  UNL1        0.0615
     28 CL          3.0855    0.4366   27.4423 Cl      1  UNL1       -0.0821
@<TRIPOS>UNITY_ATOM_ATTR
16 1
charge -1
@<TRIPOS>BOND
     1    16    17   ar
     2    17    18   ar
     3    17    10    1
     4    10    11   ar
     5    11    12   ar
     6    12    13   ar
     7    13     1    1
     8     1     2   ar
     9     2     3   ar
    10     3    19    1
    11    19    20    2
    12    19    21    1
    13    21    22   ar
    14    22    23    1
    15    22    24   ar
    16    24    25   ar
    17    25    26   ar
    18    26    27   ar
    19    27    28    1
    20     3     4   ar
    21     4     5   ar
    22     5     6   ar
    23     6     7   ar
    24     7     8   ar
    25     8     9   ar
    26    13    14   ar
    27    14    15   ar
    28    15    10   ar
    29     9     1   ar
    30    27    21   ar
    31     9     4   ar
@<TRIPOS>MOLECULE
*****
 28 31 0 0 0
SMALL
GASTEIGER

@<TRIPOS>ATOM
      1 N           1.5146    1.4975   22.0925 N.ar    1  UNL1       -0.3048
      2 C           2.0212    1.6142   23.4995 C.ar    1  UNL1        0.0833
      3 C           1.0250    2.4137   24.2859 C.ar    1  UNL1        0.0579
      4 C          -0.0972    2.7911   23.3650 C.ar    1  UNL1        0.0207
      5 C          -1.3555    3.5772   23.5857 C.ar    1  UNL1        0.0016
      6 C          -2.3112    3.7970   22.4507 C.ar    1  UNL1        0.0001
      7 C          -2.0087    3.2308   21.0950 C.ar    1  UNL1        0.0015
      8 C          -0.7504    2.4447   20.8743 C.ar    1  UNL1        0.0175
      9 C           0.2054    2.2249   22.0093 C.ar    1  UNL1        0.0641
     10 C           3.5629   -0.6564   18.7138 C.ar    1  UNL1        0.0141
     11 C           2.8291   -1.4356   19.7646 C.ar    1  UNL1        0.0026
     12 C           2.1464   -0.7176   20.8908 C.ar    1  UNL1        0.0176
     13 C           2.1973    0.7796   20.9662 C.ar    1  UNL1        0.0640
     14 C           2.9312    1.5589   19.9153 C.ar    1  UNL1        0.0176
     15 C           3.6139    0.8409   18.7891 C.ar    1  UNL1        0.0026
     16 O           5.3377   -2.3603   17.8794 O.co2   1  UNL1       -0.5446
     17 C           4.2457   -1.3743   17.5875 C.2     1  UNL1        0.0729
     18 O           3.8363   -1.1064   16.1696 O.co2   1  UNL1       -0.5446
     19 C           1.1323    2.7728   25.7384 C.2     1  UNL1        0.1987
     20 O           1.6240    4.1314   26.1408 O.2     1  UNL1       -0.2865
     21 C           0.7476    1.7730   26.7885 C.ar    1  UNL1        0.0601
     22 C           1.7727    0.8201   27.3281 C.ar    1  UNL1        0.0615
     23 CL          3.1824    0.8670   26.8176 Cl      1  UNL1       -0.0821
     24 C           1.3882   -0.1796   28.3782 C.ar    1  UNL1        0.0115
     25 C          -0.0215   -0.2264   28.8886 C.ar    1  UNL1        0.0017
     26 C          -1.0466    0.7265   28.3490 C.ar    1  UNL1        0.0115
     27 C          -0.6621    1.7262   27.2990 C.ar    1  UNL1        0.0615
     28 CL         -1.6872    2.6791   26.7593 Cl      1  UNL1       -0.0821
@<TRIPOS>UNITY_ATOM_ATTR
16 1
charge -1
@<TRIPOS>BOND
     1    16    17   ar
     2    17    18   ar
     3    17    10    1
     4    10    11   ar
     5    11    12   ar
     6    12    13   ar
     7    13     1    1
     8     1     2   ar
     9     2     3   ar
    10     3    19    1
    11    19    20    2
    12    19    21    1
    13    21    22   ar
    14    22    23    1
    15    22    24   ar
    16    24    25   ar
    17    25    26   ar
    18    26    27   ar
    19    27    28    1
    20     3     4   ar
    21     4     5   ar
    22     5     6   ar
    23     6     7   ar
    24     7     8   ar
    25     8     9   ar
    26    13    14   ar
    27    14    15   ar
    28    15    10   ar
    29     9     1   ar
    30    27    21   ar
    31     9     4   ar
@<TRIPOS>MOLECULE
*****
 28 31 0 0 0
SMALL
GASTEIGER

@<TRIPOS>ATOM
      1 N           1.0396    1.3823   20.4831 N.ar    1  UNL1       -0.3048
      2 C           0.2593    2.3875   19.6890 C.ar    1  UNL1        0.0833
      3 C          -0.5536    3.2058   20.6480 C.ar    1  UNL1        0.0579
      4 C          -0.2757    2.7063   22.0348 C.ar    1  UNL1        0.0207
      5 C          -0.7921    3.1321   23.3772 C.ar    1  UNL1        0.0016
      6 C          -0.3237    2.4309   24.6177 C.ar    1  UNL1        0.0001
      7 C           0.6610    1.3039   24.5159 C.ar    1  UNL1        0.0015
      8 C           1.1773    0.8781   23.1735 C.ar    1  UNL1        0.0175
      9 C           0.7089    1.5793   21.9329 C.ar    1  UNL1        0.0641
     10 C           3.8748   -1.6857   18.8100 C.ar    1  UNL1        0.0141
     11 C           3.1209   -1.9720   20.0748 C.ar    1  UNL1        0.0026
     12 C           2.1758   -0.9493   20.6325 C.ar    1  UNL1        0.0176
     13 C           1.9846    0.3597   19.9255 C.ar    1  UNL1        0.0640
     14 C           2.7385    0.6460   18.6606 C.ar    1  UNL1        0.0176
     15 C           3.6836   -0.3767   18.1029 C.ar    1  UNL1        0.0026
     16 O           4.6002   -4.1651   18.5345 O.co2   1  UNL1       -0.5446
     17 C           4.8198   -2.7084   18.2523 C.2     1  UNL1        0.0729
     18 O           5.9844   -2.2743   17.4124 O.co2   1  UNL1       -0.5446
     19 C          -1.4816    4.3267   20.2841 C.2     1  UNL1        0.1987
     20 O          -1.0933    5.7461   20.5746 O.2     1  UNL1       -0.2865
     21 C          -2.7979    4.0282   19.6295 C.ar    1  UNL1        0.0601
     22 C          -3.9912    3.6802   20.4691 C.ar    1  UNL1        0.0615
     23 CL         -3.8682    3.6308   21.9632 Cl      1  UNL1       -0.0821
     24 C          -5.3074    3.3818   19.8146 C.ar    1  UNL1        0.0115
     25 C          -5.4303    3.4313   18.3204 C.ar    1  UNL1        0.0017
     26 C          -4.2370    3.7792   17.4809 C.ar    1  UNL1        0.0115
     27 C          -2.9208    4.0777   18.1353 C.ar    1  UNL1        0.0615
     28 CL         -1.7275    4.4257   17.2958 Cl      1  UNL1       -0.0821
@<TRIPOS>UNITY_ATOM_ATTR
16 1
charge -1
@<TRIPOS>BOND
     1    16    17   ar
     2    17    18   ar
     3    17    10    1
     4    10    11   ar
     5    11    12   ar
     6    12    13   ar
     7    13     1    1
     8     1     2   ar
     9     2     3   ar
    10     3    19    1
    11    19    20    2
    12    19    21    1
    13    21    22   ar
    14    22    23    1
    15    22    24   ar
    16    24    25   ar
    17    25    26   ar
    18    26    27   ar
    19    27    28    1
    20     3     4   ar
    21     4     5   ar
    22     5     6   ar
    23     6     7   ar
    24     7     8   ar
    25     8     9   ar
    26    13    14   ar
    27    14    15   ar
    28    15    10   ar
    29     9     1   ar
    30    27    21   ar
    31     9     4   ar
@<TRIPOS>MOLECULE
*****
 28 31 0 0 0
SMALL
GASTEIGER

@<TRIPOS>ATOM
      1 N           2.1233    0.3206   23.6120 N.ar    1  UNL1       -0.3048
      2 C           3.1501   -0.7717   23.6609 C.ar    1  UNL1        0.0833
      3 C           3.3006   -1.3287   22.2763 C.ar    1  UNL1        0.0579
      4 C           2.3667   -0.5806   21.3717 C.ar    1  UNL1        0.0207
      5 C           2.0850   -0.6959   19.9029 C.ar    1  UNL1        0.0016
      6 C           1.0756    0.2081   19.2597 C.ar    1  UNL1        0.0001
      7 C           0.3479    1.2275   20.0852 C.ar    1  UNL1        0.0015
      8 C           0.6297    1.3428   21.5539 C.ar    1  UNL1        0.0175
      9 C           1.6391    0.4388   22.1972 C.ar    1  UNL1        0.0641
     10 C           0.7383    2.8070   27.0977 C.ar    1  UNL1        0.0141
     11 C          -0.2400    1.9464   26.3546 C.ar    1  UNL1        0.0026
     12 C           0.2217    1.1176   25.1927 C.ar    1  UNL1        0.0176
     13 C           1.6616    1.1494   24.7739 C.ar    1  UNL1        0.0640
     14 C           2.6400    2.0101   25.5170 C.ar    1  UNL1        0.0176
     15 C           2.1783    2.8388   26.6789 C.ar    1  UNL1        0.0026
     16 O          -0.4444    4.9288   28.0189 O.co2   1  UNL1       -0.5446
     17 C           0.2766    3.6357   28.2596 C.2     1  UNL1        0.0729
     18 O           0.5360    3.1714   29.6622 O.co2   1  UNL1       -0.5446
     19 C           4.2230   -2.4388   21.8680 C.2     1  UNL1        0.1987
     20 O           4.3276   -3.6753   22.7106 O.2     1  UNL1       -0.2865
     21 C           5.0408   -2.3125   20.6168 C.ar    1  UNL1        0.0601
     22 C           6.2359   -1.4064   20.5903 C.ar    1  UNL1        0.0615
     23 CL          6.6130   -0.6265   21.8149 Cl      1  UNL1       -0.0821
     24 C           7.0537   -1.2800   19.3393 C.ar    1  UNL1        0.0115
     25 C           6.6765   -2.0599   18.1147 C.ar    1  UNL1        0.0017
     26 C           5.4815   -2.9661   18.1413 C.ar    1  UNL1        0.0115
     27 C           4.6636   -3.0925   19.3923 C.ar    1  UNL1        0.0615
     28 CL          3.4686   -3.9986   19.4189 Cl      1  UNL1       -0.0821
@<TRIPOS>UNITY_ATOM_ATTR
16 1
charge -1
@<TRIPOS>BOND
     1    16    17   ar
     2    17    18   ar
     3    17    10    1
     4    10    11   ar
     5    11    12   ar
     6    12    13   ar
     7    13     1    1
     8     1     2   ar
     9     2     3   ar
    10     3    19    1
    11    19    20    2
    12    19    21    1
    13    21    22   ar
    14    22    23    1
    15    22    24   ar
    16    24    25   ar
    17    25    26   ar
    18    26    27   ar
    19    27    28    1
    20     3     4   ar
    21     4     5   ar
    22     5     6   ar
    23     6     7   ar
    24     7     8   ar
    25     8     9   ar
    26    13    14   ar
    27    14    15   ar
    28    15    10   ar
    29     9     1   ar
    30    27    21   ar
    31     9     4   ar
