@<TRIPOS>MOLECULE
*****
 26 28 0 0 0
SMALL
GASTEIGER

@<TRIPOS>ATOM
      1 C          -5.6719  -18.5760   22.7275 C.2     1  UNL1        0.0936
      2 C          -6.6640  -19.5116   22.1025 C.2     1  UNL1        0.1201
      3 O          -6.1961  -20.7917   21.4759 O.2     1  UNL1       -0.5092
      4 C          -8.1239  -19.1672   22.1042 C.3     1  UNL1        0.0691
      5 C          -8.5918  -17.8872   22.7308 C.3     1  UNL1        0.0389
      6 C          -7.5998  -16.9516   23.3557 C.3     1  UNL1        0.0746
      7 C          -6.1398  -17.2960   23.3541 C.2     1  UNL1        0.1819
      8 O          -5.1478  -16.3604   23.9790 O.2     1  UNL1       -0.2907
      9 H          -5.2841  -21.0068   21.4749 H       1  UNL1        0.2917
     10 C         -10.0517  -17.5428   22.7325 C.ar    1  UNL1       -0.0048
     11 C         -10.5574  -16.4158   21.8814 C.ar    1  UNL1        0.0542
     12 CL         -9.6032  -15.6334   21.0286 Cl      1  UNL1       -0.0826
     13 C         -12.0173  -16.0714   21.8831 C.ar    1  UNL1        0.0111
     14 C         -12.9715  -16.8539   22.7358 C.ar    1  UNL1        0.0014
     15 C         -12.4659  -17.9808   23.5869 C.ar    1  UNL1        0.0064
     16 C         -11.0059  -18.3252   23.5852 C.ar    1  UNL1        0.0314
     17 BR        -10.5002  -19.4521   24.4363 Br      1  UNL1       -0.0493
     18 S          -4.2120  -18.9204   22.7258 S.3     1  UNL1       -0.0807
     19 C          -2.9639  -18.7077   20.4570 C.ar    1  UNL1        0.0744
     20 C          -2.0193  -17.9656   19.5587 C.ar    1  UNL1        0.0108
     21 C          -1.3781  -16.6944   20.0307 C.ar    1  UNL1        0.0007
     22 C          -1.6816  -16.1651   21.4010 C.ar    1  UNL1        0.0006
     23 C          -2.6262  -16.9071   22.2993 C.ar    1  UNL1        0.0072
     24 C          -3.2674  -18.1784   21.8273 C.ar    1  UNL1        0.0392
     25 N          -4.2463  -21.2502   19.5131 N.1     1  UNL1       -0.1908
     26 C          -3.6051  -19.9789   19.9851 C.1     1  UNL1        0.1009
@<TRIPOS>BOND
     1    25    26    3
     2    26    19    1
     3    19    20   ar
     4    20    21   ar
     5    21    22   ar
     6    22    23   ar
     7    23    24   ar
     8    24    18    1
     9    18     1    1
    10     1     2    2
    11     2     3    1
    12     2     4    1
    13     4     5    1
    14     5    10    1
    15    10    11   ar
    16    11    12    1
    17    11    13   ar
    18    13    14   ar
    19    14    15   ar
    20    15    16   ar
    21    16    17    1
    22     5     6    1
    23     6     7    1
    24     7     8    2
    25    24    19   ar
    26     7     1    1
    27    16    10   ar
    28     3     9    1
@<TRIPOS>MOLECULE
*****
 26 28 0 0 0
SMALL
GASTEIGER

@<TRIPOS>ATOM
      1 C          -9.1353  -19.6860   21.5844 C.2     1  UNL1        0.0936
      2 C          -8.4386  -19.0333   20.4274 C.2     1  UNL1        0.1201
      3 O          -9.2243  -18.6047   19.2237 O.2     1  UNL1       -0.5092
      4 C          -6.9561  -18.8093   20.4741 C.3     1  UNL1        0.0691
      5 C          -6.1704  -19.2380   21.6778 C.3     1  UNL1        0.0389
      6 C          -6.8671  -19.8906   22.8348 C.3     1  UNL1        0.0746
      7 C          -8.3496  -20.1146   22.7882 C.2     1  UNL1        0.1819
      8 O          -9.0463  -20.7672   23.9451 O.2     1  UNL1       -0.2907
      9 H         -10.1503  -18.7446   19.1945 H       1  UNL1        0.2917
     10 C          -4.6880  -19.0140   21.7246 C.ar    1  UNL1       -0.0048
     11 C          -3.7763  -19.8475   20.8735 C.ar    1  UNL1        0.0542
     12 CL         -4.3471  -20.9049   19.9758 Cl      1  UNL1       -0.0826
     13 C          -2.2939  -19.6235   20.9202 C.ar    1  UNL1        0.0111
     14 C          -1.7231  -18.5660   21.8180 C.ar    1  UNL1        0.0014
     15 C          -2.6347  -17.7325   22.6690 C.ar    1  UNL1        0.0064
     16 C          -4.1172  -17.9565   22.6223 C.ar    1  UNL1        0.0314
     17 BR         -5.0288  -17.1230   23.4733 Br      1  UNL1       -0.0493
     18 S         -10.6177  -19.9100   21.5377 S.3     1  UNL1       -0.0807
     19 C         -12.1822  -17.8749   21.9391 C.ar    1  UNL1        0.0744
     20 C         -13.0880  -17.0908   22.8417 C.ar    1  UNL1        0.0108
     21 C         -13.3352  -17.5577   24.2456 C.ar    1  UNL1        0.0007
     22 C         -12.6765  -18.8086   24.7469 C.ar    1  UNL1        0.0006
     23 C         -11.7708  -19.5927   23.8443 C.ar    1  UNL1        0.0072
     24 C         -11.5236  -19.1258   22.4404 C.ar    1  UNL1        0.0392
     25 N         -11.6879  -16.9411   19.1313 N.1     1  UNL1       -0.1908
     26 C         -11.9350  -17.4080   20.5352 C.1     1  UNL1        0.1009
@<TRIPOS>BOND
     1    25    26    3
     2    26    19    1
     3    19    20   ar
     4    20    21   ar
     5    21    22   ar
     6    22    23   ar
     7    23    24   ar
     8    24    18    1
     9    18     1    1
    10     1     2    2
    11     2     3    1
    12     2     4    1
    13     4     5    1
    14     5    10    1
    15    10    11   ar
    16    11    12    1
    17    11    13   ar
    18    13    14   ar
    19    14    15   ar
    20    15    16   ar
    21    16    17    1
    22     5     6    1
    23     6     7    1
    24     7     8    2
    25    24    19   ar
    26     7     1    1
    27    16    10   ar
    28     3     9    1
@<TRIPOS>MOLECULE
*****
 26 28 0 0 0
SMALL
GASTEIGER

@<TRIPOS>ATOM
      1 C          -5.9162  -19.2573   21.9109 C.2     1  UNL1        0.0936
      2 C          -6.3566  -18.0335   22.6581 C.2     1  UNL1        0.1201
      3 O          -5.3364  -17.1295   23.2842 O.2     1  UNL1       -0.5092
      4 C          -7.8170  -17.7136   22.7791 C.3     1  UNL1        0.0691
      5 C          -8.8372  -18.6176   22.1530 C.3     1  UNL1        0.0389
      6 C          -8.3969  -19.8414   21.4058 C.3     1  UNL1        0.0746
      7 C          -6.9364  -20.1613   21.2847 C.2     1  UNL1        0.1819
      8 O          -6.4961  -21.3852   20.5375 O.2     1  UNL1       -0.2907
      9 H          -4.4241  -17.3293   23.2086 H       1  UNL1        0.2917
     10 C         -10.2977  -18.2977   22.2740 C.ar    1  UNL1       -0.0048
     11 C         -11.0414  -17.7322   21.1005 C.ar    1  UNL1        0.0542
     12 CL        -10.3245  -17.4865   19.8060 Cl      1  UNL1       -0.0826
     13 C         -12.5018  -17.4123   21.2215 C.ar    1  UNL1        0.0111
     14 C         -13.2187  -17.6580   22.5160 C.ar    1  UNL1        0.0014
     15 C         -12.4750  -18.2236   23.6895 C.ar    1  UNL1        0.0064
     16 C         -11.0145  -18.5434   23.5685 C.ar    1  UNL1        0.0314
     17 BR        -10.2709  -19.1090   24.7420 Br      1  UNL1       -0.0493
     18 S          -4.4557  -19.5772   21.7898 S.3     1  UNL1       -0.0807
     19 C          -2.5676  -17.8456   21.3580 C.ar    1  UNL1        0.0744
     20 C          -1.7073  -17.0729   20.4026 C.ar    1  UNL1        0.0108
     21 C          -1.8747  -17.2592   18.9236 C.ar    1  UNL1        0.0007
     22 C          -2.9025  -18.2181   18.4001 C.ar    1  UNL1        0.0006
     23 C          -3.7628  -18.9907   19.3555 C.ar    1  UNL1        0.0072
     24 C          -3.5954  -18.8045   20.8344 C.ar    1  UNL1        0.0392
     25 N          -2.2327  -17.4730   24.3159 N.1     1  UNL1       -0.1908
     26 C          -2.4001  -17.6593   22.8369 C.1     1  UNL1        0.1009
@<TRIPOS>BOND
     1    25    26    3
     2    26    19    1
     3    19    20   ar
     4    20    21   ar
     5    21    22   ar
     6    22    23   ar
     7    23    24   ar
     8    24    18    1
     9    18     1    1
    10     1     2    2
    11     2     3    1
    12     2     4    1
    13     4     5    1
    14     5    10    1
    15    10    11   ar
    16    11    12    1
    17    11    13   ar
    18    13    14   ar
    19    14    15   ar
    20    15    16   ar
    21    16    17    1
    22     5     6    1
    23     6     7    1
    24     7     8    2
    25    24    19   ar
    26     7     1    1
    27    16    10   ar
    28     3     9    1
@<TRIPOS>MOLECULE
*****
 26 28 0 0 0
SMALL
GASTEIGER

@<TRIPOS>ATOM
      1 C          -8.8017  -19.4321   21.2524 C.2     1  UNL1        0.0936
      2 C          -7.9814  -19.1545   20.0276 C.2     1  UNL1        0.1201
      3 O          -8.6520  -19.0004   18.6948 O.2     1  UNL1       -0.5092
      4 C          -6.4904  -19.0310   20.1357 C.3     1  UNL1        0.0691
      5 C          -5.8197  -19.1852   21.4685 C.3     1  UNL1        0.0389
      6 C          -6.6400  -19.4627   22.6932 C.3     1  UNL1        0.0746
      7 C          -8.1311  -19.5862   22.5852 C.2     1  UNL1        0.1819
      8 O          -8.9514  -19.8638   23.8099 O.2     1  UNL1       -0.2907
      9 H          -9.5834  -19.0775   18.6272 H       1  UNL1        0.2917
     10 C          -4.3288  -19.0617   21.5766 C.ar    1  UNL1       -0.0048
     11 C          -3.4412  -19.9434   20.7490 C.ar    1  UNL1        0.0542
     12 CL         -4.0447  -20.9485   19.8133 Cl      1  UNL1       -0.0826
     13 C          -1.9502  -19.8200   20.8571 C.ar    1  UNL1        0.0111
     14 C          -1.3467  -18.8148   21.7928 C.ar    1  UNL1        0.0014
     15 C          -2.2342  -17.9332   22.6204 C.ar    1  UNL1        0.0064
     16 C          -3.7253  -18.0566   22.5123 C.ar    1  UNL1        0.0314
     17 BR         -4.6128  -17.1749   23.3399 Br      1  UNL1       -0.0493
     18 S         -10.2927  -19.5555   21.1443 S.3     1  UNL1       -0.0807
     19 C         -11.9199  -17.8096   22.1710 C.ar    1  UNL1        0.0744
     20 C         -12.7658  -16.5794   22.0256 C.ar    1  UNL1        0.0108
     21 C         -12.8303  -15.8649   20.7083 C.ar    1  UNL1        0.0007
     22 C         -12.0490  -16.3806   19.5363 C.ar    1  UNL1        0.0006
     23 C         -11.2031  -17.6108   19.6817 C.ar    1  UNL1        0.0072
     24 C         -11.1386  -18.3253   20.9990 C.ar    1  UNL1        0.0392
     25 N         -11.7909  -19.2387   24.8056 N.1     1  UNL1       -0.1908
     26 C         -11.8554  -18.5241   23.4883 C.1     1  UNL1        0.1009
@<TRIPOS>BOND
     1    25    26    3
     2    26    19    1
     3    19    20   ar
     4    20    21   ar
     5    21    22   ar
     6    22    23   ar
     7    23    24   ar
     8    24    18    1
     9    18     1    1
    10     1     2    2
    11     2     3    1
    12     2     4    1
    13     4     5    1
    14     5    10    1
    15    10    11   ar
    16    11    12    1
    17    11    13   ar
    18    13    14   ar
    19    14    15   ar
    20    15    16   ar
    21    16    17    1
    22     5     6    1
    23     6     7    1
    24     7     8    2
    25    24    19   ar
    26     7     1    1
    27    16    10   ar
    28     3     9    1
@<TRIPOS>MOLECULE
*****
 26 28 0 0 0
SMALL
GASTEIGER

@<TRIPOS>ATOM
      1 C          -8.6065  -17.4225   23.5424 C.2     1  UNL1        0.0936
      2 C          -7.4994  -16.4157   23.4389 C.2     1  UNL1        0.1201
      3 O          -7.7208  -15.0070   23.9040 O.2     1  UNL1       -0.5092
      4 C          -6.1708  -16.8177   22.8704 C.3     1  UNL1        0.0691
      5 C          -5.9494  -18.2265   22.4053 C.3     1  UNL1        0.0389
      6 C          -7.0564  -19.2333   22.5087 C.3     1  UNL1        0.0746
      7 C          -8.3851  -18.8313   23.0773 C.2     1  UNL1        0.1819
      8 O          -9.4921  -19.8381   23.1808 O.2     1  UNL1       -0.2907
      9 H          -8.5508  -14.7559   24.2592 H       1  UNL1        0.2917
     10 C          -4.6208  -18.6285   21.8367 C.ar    1  UNL1       -0.0048
     11 C          -3.3735  -18.4588   22.6525 C.ar    1  UNL1        0.0542
     12 CL         -3.4548  -17.8871   24.0369 Cl      1  UNL1       -0.0826
     13 C          -2.0450  -18.8608   22.0839 C.ar    1  UNL1        0.0111
     14 C          -1.9636  -19.4325   20.6996 C.ar    1  UNL1        0.0014
     15 C          -3.2108  -19.6022   19.8837 C.ar    1  UNL1        0.0064
     16 C          -4.5395  -19.2002   20.4523 C.ar    1  UNL1        0.0314
     17 BR         -5.7867  -19.3699   19.6365 Br      1  UNL1       -0.0493
     18 S          -9.9351  -17.0205   24.1110 S.3     1  UNL1       -0.0807
     19 C         -11.3237  -16.5537   21.9653 C.ar    1  UNL1        0.0744
     20 C         -12.5739  -16.7471   21.1594 C.ar    1  UNL1        0.0108
     21 C         -13.6858  -17.6008   21.6933 C.ar    1  UNL1        0.0007
     22 C         -13.5475  -18.2610   23.0330 C.ar    1  UNL1        0.0006
     23 C         -12.2972  -18.0676   23.8389 C.ar    1  UNL1        0.0072
     24 C         -11.1853  -17.2139   23.3050 C.ar    1  UNL1        0.0392
     25 N          -9.0999  -14.8464   20.8976 N.1     1  UNL1       -0.1908
     26 C         -10.2118  -15.7001   21.4315 C.1     1  UNL1        0.1009
@<TRIPOS>BOND
     1    25    26    3
     2    26    19    1
     3    19    20   ar
     4    20    21   ar
     5    21    22   ar
     6    22    23   ar
     7    23    24   ar
     8    24    18    1
     9    18     1    1
    10     1     2    2
    11     2     3    1
    12     2     4    1
    13     4     5    1
    14     5    10    1
    15    10    11   ar
    16    11    12    1
    17    11    13   ar
    18    13    14   ar
    19    14    15   ar
    20    15    16   ar
    21    16    17    1
    22     5     6    1
    23     6     7    1
    24     7     8    2
    25    24    19   ar
    26     7     1    1
    27    16    10   ar
    28     3     9    1
@<TRIPOS>MOLECULE
*****
 26 28 0 0 0
SMALL
GASTEIGER

@<TRIPOS>ATOM
      1 C           1.2728    2.1050   20.1508 C.2     1  UNL1        0.0936
      2 C           0.6710    0.7331   20.0728 C.2     1  UNL1        0.1201
      3 O          -0.8190    0.5645   20.1117 O.2     1  UNL1       -0.5092
      4 C           1.5592   -0.4699   19.9558 C.3     1  UNL1        0.0691
      5 C           3.0491   -0.3012   19.9169 C.3     1  UNL1        0.0389
      6 C           3.6509    1.0705   19.9949 C.3     1  UNL1        0.0746
      7 C           2.7628    2.2736   20.1119 C.2     1  UNL1        0.1819
      8 O           3.3645    3.6454   20.1899 O.2     1  UNL1       -0.2907
      9 H          -1.3738    1.3160   20.1848 H       1  UNL1        0.2917
     10 C           3.9373   -1.5043   19.8000 C.ar    1  UNL1       -0.0048
     11 C           4.4018   -1.9654   18.4502 C.ar    1  UNL1        0.0542
     12 CL          3.9780   -1.2233   17.2174 Cl      1  UNL1       -0.0826
     13 C           5.2899   -3.1684   18.3332 C.ar    1  UNL1        0.0111
     14 C           5.7137   -3.9105   19.5660 C.ar    1  UNL1        0.0014
     15 C           5.2494   -3.4495   20.9157 C.ar    1  UNL1        0.0064
     16 C           4.3611   -2.2464   21.0327 C.ar    1  UNL1        0.0314
     17 BR          3.8968   -1.7854   22.3824 Br      1  UNL1       -0.0493
     18 S           0.3846    3.3080   20.2677 S.3     1  UNL1       -0.0807
     19 C          -1.7257    3.9946   18.9166 C.ar    1  UNL1        0.0744
     20 C          -2.3435    4.5930   17.6877 C.ar    1  UNL1        0.0108
     21 C          -1.4689    5.1033   16.5811 C.ar    1  UNL1        0.0007
     22 C           0.0235    5.0152   16.7033 C.ar    1  UNL1        0.0006
     23 C           0.6413    4.4168   17.9322 C.ar    1  UNL1        0.0072
     24 C          -0.2333    3.9065   19.0388 C.ar    1  UNL1        0.0392
     25 N          -3.4748    2.9740   21.1299 N.1     1  UNL1       -0.1908
     26 C          -2.6003    3.4843   20.0233 C.1     1  UNL1        0.1009
@<TRIPOS>BOND
     1    25    26    3
     2    26    19    1
     3    19    20   ar
     4    20    21   ar
     5    21    22   ar
     6    22    23   ar
     7    23    24   ar
     8    24    18    1
     9    18     1    1
    10     1     2    2
    11     2     3    1
    12     2     4    1
    13     4     5    1
    14     5    10    1
    15    10    11   ar
    16    11    12    1
    17    11    13   ar
    18    13    14   ar
    19    14    15   ar
    20    15    16   ar
    21    16    17    1
    22     5     6    1
    23     6     7    1
    24     7     8    2
    25    24    19   ar
    26     7     1    1
    27    16    10   ar
    28     3     9    1
@<TRIPOS>MOLECULE
*****
 26 28 0 0 0
SMALL
GASTEIGER

@<TRIPOS>ATOM
      1 C          -7.0857  -18.7774   20.6368 C.2     1  UNL1        0.0936
      2 C          -7.1680  -17.9233   21.8672 C.2     1  UNL1        0.1201
      3 O          -5.9415  -17.2304   22.3825 O.2     1  UNL1       -0.5092
      4 C          -8.4767  -17.7622   22.5822 C.3     1  UNL1        0.0691
      5 C          -9.7032  -18.4551   22.0668 C.3     1  UNL1        0.0389
      6 C          -9.6210  -19.3092   20.8365 C.3     1  UNL1        0.0746
      7 C          -8.3122  -19.4704   20.1215 C.2     1  UNL1        0.1819
      8 O          -8.2300  -20.3245   18.8912 O.2     1  UNL1       -0.2907
      9 H          -5.1240  -17.3310   21.9359 H       1  UNL1        0.2917
     10 C         -11.0119  -18.2939   22.7818 C.ar    1  UNL1       -0.0048
     11 C         -12.0646  -17.3830   22.2231 C.ar    1  UNL1        0.0542
     12 CL        -11.8085  -16.6332   20.9494 Cl      1  UNL1       -0.0826
     13 C         -13.3734  -17.2218   22.9381 C.ar    1  UNL1        0.0111
     14 C         -13.6295  -17.9716   24.2117 C.ar    1  UNL1        0.0014
     15 C         -12.5769  -18.8825   24.7704 C.ar    1  UNL1        0.0064
     16 C         -11.2681  -19.0437   24.0555 C.ar    1  UNL1        0.0314
     17 BR        -10.2155  -19.9546   24.6142 Br      1  UNL1       -0.0493
     18 S          -5.7770  -18.9386   19.9218 S.3     1  UNL1       -0.0807
     19 C          -3.2863  -18.2705   20.2385 C.ar    1  UNL1        0.0744
     20 C          -2.0092  -18.3511   21.0210 C.ar    1  UNL1        0.0108
     21 C          -1.9455  -19.1801   22.2694 C.ar    1  UNL1        0.0007
     22 C          -3.1590  -19.9287   22.7353 C.ar    1  UNL1        0.0006
     23 C          -4.4361  -19.8482   21.9528 C.ar    1  UNL1        0.0072
     24 C          -4.4998  -19.0191   20.7044 C.ar    1  UNL1        0.0392
     25 N          -3.4136  -16.6124   17.7416 N.1     1  UNL1       -0.1908
     26 C          -3.3500  -17.4414   18.9900 C.1     1  UNL1        0.1009
@<TRIPOS>BOND
     1    25    26    3
     2    26    19    1
     3    19    20   ar
     4    20    21   ar
     5    21    22   ar
     6    22    23   ar
     7    23    24   ar
     8    24    18    1
     9    18     1    1
    10     1     2    2
    11     2     3    1
    12     2     4    1
    13     4     5    1
    14     5    10    1
    15    10    11   ar
    16    11    12    1
    17    11    13   ar
    18    13    14   ar
    19    14    15   ar
    20    15    16   ar
    21    16    17    1
    22     5     6    1
    23     6     7    1
    24     7     8    2
    25    24    19   ar
    26     7     1    1
    27    16    10   ar
    28     3     9    1
@<TRIPOS>MOLECULE
*****
 26 28 0 0 0
SMALL
GASTEIGER

@<TRIPOS>ATOM
      1 C           1.4648    1.5398   21.4599 C.2     1  UNL1        0.0936
      2 C           0.8859    0.3567   20.7421 C.2     1  UNL1        0.1201
      3 O          -0.5901    0.2838   20.4854 O.2     1  UNL1       -0.5092
      4 C           1.7831   -0.7534   20.2810 C.3     1  UNL1        0.0691
      5 C           3.2592   -0.6805   20.5377 C.3     1  UNL1        0.0389
      6 C           3.8381    0.5026   21.2555 C.3     1  UNL1        0.0746
      7 C           2.9409    1.6128   21.7166 C.2     1  UNL1        0.1819
      8 O           3.5198    2.7958   22.4344 O.2     1  UNL1       -0.2907
      9 H          -1.1506    0.9773   20.7734 H       1  UNL1        0.2917
     10 C           4.1564   -1.7906   20.0766 C.ar    1  UNL1       -0.0048
     11 C           4.6250   -2.8301   21.0512 C.ar    1  UNL1        0.0542
     12 CL          4.1964   -2.7595   22.4869 Cl      1  UNL1       -0.0826
     13 C           5.5222   -3.9402   20.5901 C.ar    1  UNL1        0.0111
     14 C           5.9508   -4.0109   19.1544 C.ar    1  UNL1        0.0014
     15 C           5.4823   -2.9714   18.1798 C.ar    1  UNL1        0.0064
     16 C           4.5850   -1.8612   18.6409 C.ar    1  UNL1        0.0314
     17 BR          4.1165   -0.8218   17.6663 Br      1  UNL1       -0.0493
     18 S           0.5676    2.6499   21.9210 S.3     1  UNL1       -0.0807
     19 C          -1.2113    3.4975   23.6143 C.ar    1  UNL1        0.0744
     20 C          -1.8482    3.4326   24.9708 C.ar    1  UNL1        0.0108
     21 C          -1.3432    2.4554   25.9905 C.ar    1  UNL1        0.0007
     22 C          -0.2012    1.5430   25.6538 C.ar    1  UNL1        0.0006
     23 C           0.4357    1.6079   24.2973 C.ar    1  UNL1        0.0072
     24 C          -0.0694    2.5851   23.2776 C.ar    1  UNL1        0.0392
     25 N          -2.2214    5.4520   21.5748 N.1     1  UNL1       -0.1908
     26 C          -1.7164    4.4748   22.5945 C.1     1  UNL1        0.1009
@<TRIPOS>BOND
     1    25    26    3
     2    26    19    1
     3    19    20   ar
     4    20    21   ar
     5    21    22   ar
     6    22    23   ar
     7    23    24   ar
     8    24    18    1
     9    18     1    1
    10     1     2    2
    11     2     3    1
    12     2     4    1
    13     4     5    1
    14     5    10    1
    15    10    11   ar
    16    11    12    1
    17    11    13   ar
    18    13    14   ar
    19    14    15   ar
    20    15    16   ar
    21    16    17    1
    22     5     6    1
    23     6     7    1
    24     7     8    2
    25    24    19   ar
    26     7     1    1
    27    16    10   ar
    28     3     9    1
@<TRIPOS>MOLECULE
*****
 26 28 0 0 0
SMALL
GASTEIGER

@<TRIPOS>ATOM
      1 C           4.4332    1.7254   35.8450 C.2     1  UNL1        0.0936
      2 C           3.7752    1.5225   34.5123 C.2     1  UNL1        0.1201
      3 O           2.5240    2.2762   34.1711 O.2     1  UNL1       -0.5092
      4 C           4.3683    0.5658   33.5209 C.3     1  UNL1        0.0691
      5 C           5.6195   -0.1880   33.8621 C.3     1  UNL1        0.0389
      6 C           6.2775    0.0149   35.1947 C.3     1  UNL1        0.0746
      7 C           5.6844    0.9716   36.1861 C.2     1  UNL1        0.1819
      8 O           6.3424    1.1746   37.5187 O.2     1  UNL1       -0.2907
      9 H           2.1535    2.8739   34.7904 H       1  UNL1        0.2917
     10 C           6.2126   -1.1447   32.8707 C.ar    1  UNL1       -0.0048
     11 C           5.6167   -2.5103   32.6972 C.ar    1  UNL1        0.0542
     12 CL          4.4276   -2.9192   33.5151 Cl      1  UNL1       -0.0826
     13 C           6.2099   -3.4670   31.7058 C.ar    1  UNL1        0.0111
     14 C           7.3989   -3.0581   30.8879 C.ar    1  UNL1        0.0014
     15 C           7.9948   -1.6926   31.0614 C.ar    1  UNL1        0.0064
     16 C           7.4017   -0.7358   32.0528 C.ar    1  UNL1        0.0314
     17 BR          7.9976    0.6297   32.2263 Br      1  UNL1       -0.0493
     18 S           3.8401    2.6821   36.8363 S.3     1  UNL1       -0.0807
     19 C           1.5368    3.0894   37.9674 C.ar    1  UNL1        0.0744
     20 C           0.4425    2.6342   38.8867 C.ar    1  UNL1        0.0108
     21 C           0.5569    1.3164   39.5941 C.ar    1  UNL1        0.0007
     22 C           1.7656    0.4539   39.3823 C.ar    1  UNL1        0.0006
     23 C           2.8600    0.9091   38.4630 C.ar    1  UNL1        0.0072
     24 C           2.7456    2.2269   37.7556 C.ar    1  UNL1        0.0392
     25 N           1.3081    5.7249   36.5526 N.1     1  UNL1       -0.1908
     26 C           1.4225    4.4071   37.2600 C.1     1  UNL1        0.1009
@<TRIPOS>BOND
     1    25    26    3
     2    26    19    1
     3    19    20   ar
     4    20    21   ar
     5    21    22   ar
     6    22    23   ar
     7    23    24   ar
     8    24    18    1
     9    18     1    1
    10     1     2    2
    11     2     3    1
    12     2     4    1
    13     4     5    1
    14     5    10    1
    15    10    11   ar
    16    11    12    1
    17    11    13   ar
    18    13    14   ar
    19    14    15   ar
    20    15    16   ar
    21    16    17    1
    22     5     6    1
    23     6     7    1
    24     7     8    2
    25    24    19   ar
    26     7     1    1
    27    16    10   ar
    28     3     9    1
