@<TRIPOS>MOLECULE
*****
 39 42 0 0 0
SMALL
GASTEIGER

@<TRIPOS>ATOM
      1 C          -5.4263  -18.3562   22.5728 C.ar    1  UNL1        0.2144
      2 C          -4.9486  -17.0935   23.2267 C.ar    1  UNL1        0.1822
      3 O          -3.6495  -16.4748   22.8032 O.2     1  UNL1       -0.4500
      4 C          -2.8280  -17.1186   21.7258 C.ar    1  UNL1        0.1545
      5 C          -1.5289  -16.4998   21.3024 C.ar    1  UNL1        0.0744
      6 C          -0.7075  -17.1437   20.2250 C.ar    1  UNL1        0.1397
      7 O           0.5917  -16.5249   19.8015 O.3     1  UNL1       -0.5053
      8 C          -1.1852  -18.4063   19.5711 C.ar    1  UNL1        0.0735
      9 C          -2.4844  -19.0251   19.9946 C.ar    1  UNL1        0.1428
     10 O          -2.9621  -20.2877   19.3407 O.3     1  UNL1       -0.5052
     11 C          -3.3057  -18.3812   21.0719 C.ar    1  UNL1        0.1104
     12 C          -4.6049  -19.0000   21.4954 C.ar    1  UNL1        0.2382
     13 O          -5.0827  -20.2626   20.8415 O.2     1  UNL1       -0.2830
     14 H           0.8901  -15.7362   20.2100 H       1  UNL1        0.2922
     15 H          -2.4490  -20.6899   18.6677 H       1  UNL1        0.2922
     16 C          -5.7701  -16.4497   24.3041 C.ar    1  UNL1        0.0379
     17 C          -7.1271  -15.8970   23.9833 C.ar    1  UNL1        0.0062
     18 C          -7.9485  -15.2532   25.0607 C.ar    1  UNL1        0.0367
     19 C          -7.4128  -15.1621   26.4589 C.ar    1  UNL1        0.1337
     20 O          -8.2343  -14.5183   27.5363 O.3     1  UNL1       -0.5055
     21 C          -6.0558  -15.7148   26.7796 C.ar    1  UNL1        0.0367
     22 C          -5.2344  -16.3586   25.7022 C.ar    1  UNL1        0.0062
     23 H          -9.0820  -14.1730   27.3359 H       1  UNL1        0.2922
     24 O          -6.7255  -18.9749   22.9963 O.3     1  UNL1       -0.4441
     25 C         -10.4111  -18.6231   21.5670 C.3     1  UNL1        0.2306
     26 C         -10.2084  -19.0658   20.1483 C.3     1  UNL1        0.1804
     27 O         -11.3693  -19.0961   19.1989 O.3     1  UNL1       -0.3785
     28 C          -8.8447  -19.4784   19.6788 C.3     1  UNL1        0.1494
     29 C          -8.6421  -19.9211   18.2601 C.3     1  UNL1        0.0349
     30 O          -7.6838  -19.4480   20.6282 O.3     1  UNL1       -0.3186
     31 C          -7.8865  -19.0052   22.0470 C.3     1  UNL1        0.3194
     32 C          -9.2501  -18.5928   22.5163 C.3     1  UNL1        0.2240
     33 O          -9.4528  -18.1500   23.9351 O.3     1  UNL1       -0.3758
     34 H         -11.0682  -19.4037   18.3296 H       1  UNL1        0.2106
     35 H          -8.6078  -18.1891   24.4098 H       1  UNL1        0.2107
     36 O         -11.7747  -18.2106   22.0363 O.3     1  UNL1       -0.4468
     37 C         -12.4008  -15.7883   22.7368 C.3     1  UNL1        0.1212
     38 C         -12.3103  -16.8542   21.6852 C.2     1  UNL1        0.3176
     39 O         -12.7554  -16.5637   20.2825 O.2     1  UNL1       -0.2501
@<TRIPOS>BOND
     1    37    38    1
     2    38    39    2
     3    38    36    1
     4    25    36    1
     5    25    26    1
     6    26    27    1
     7    26    28    1
     8    28    29    1
     9    28    30    1
    10    30    31    1
    11    31    24    1
    12    24     1    1
    13     1     2   ar
    14     2    16    1
    15    16    17   ar
    16    17    18   ar
    17    18    19   ar
    18    19    20    1
    19    19    21   ar
    20    21    22   ar
    21     2     3   ar
    22     3     4   ar
    23     4     5   ar
    24     5     6   ar
    25     6     7    1
    26     6     8   ar
    27     8     9   ar
    28     9    10    1
    29     9    11   ar
    30    11    12   ar
    31    12    13    2
    32    31    32    1
    33    32    33    1
    34    32    25    1
    35    12     1   ar
    36    22    16   ar
    37    11     4   ar
    38    27    34    1
    39    20    23    1
    40     7    14    1
    41    10    15    1
    42    33    35    1
@<TRIPOS>MOLECULE
*****
 39 42 0 0 0
SMALL
GASTEIGER

@<TRIPOS>ATOM
      1 C          -5.3921  -18.3339   22.6498 C.ar    1  UNL1        0.2144
      2 C          -4.8965  -17.0616   23.2707 C.ar    1  UNL1        0.1822
      3 O          -3.6062  -16.4535   22.8067 O.2     1  UNL1       -0.4500
      4 C          -2.8115  -17.1177   21.7215 C.ar    1  UNL1        0.1545
      5 C          -1.5213  -16.5096   21.2574 C.ar    1  UNL1        0.0744
      6 C          -0.7267  -17.1738   20.1724 C.ar    1  UNL1        0.1397
      7 O           0.5636  -16.5657   19.7082 O.3     1  UNL1       -0.5053
      8 C          -1.2224  -18.4460   19.5514 C.ar    1  UNL1        0.0735
      9 C          -2.5126  -19.0541   20.0154 C.ar    1  UNL1        0.1428
     10 O          -3.0083  -20.3264   19.3945 O.3     1  UNL1       -0.5052
     11 C          -3.3072  -18.3900   21.1005 C.ar    1  UNL1        0.1104
     12 C          -4.5975  -18.9981   21.5647 C.ar    1  UNL1        0.2382
     13 O          -5.0932  -20.2703   20.9437 O.2     1  UNL1       -0.2830
     14 H           0.8733  -15.7709   20.0961 H       1  UNL1        0.2922
     15 H          -2.5119  -20.7413   18.7166 H       1  UNL1        0.2922
     16 C          -5.6911  -16.3974   24.3559 C.ar    1  UNL1        0.0379
     17 C          -5.2562  -16.5200   25.7862 C.ar    1  UNL1        0.0062
     18 C          -6.0508  -15.8558   26.8712 C.ar    1  UNL1        0.0367
     19 C          -7.2804  -15.0691   26.5260 C.ar    1  UNL1        0.1337
     20 O          -8.0751  -14.4049   27.6111 O.3     1  UNL1       -0.5055
     21 C          -7.7154  -14.9466   25.0957 C.ar    1  UNL1        0.0367
     22 C          -6.9207  -15.6107   24.0106 C.ar    1  UNL1        0.0062
     23 H          -7.8034  -14.4815   28.5046 H       1  UNL1        0.2922
     24 O          -6.6824  -18.9420   23.1139 O.3     1  UNL1       -0.4441
     25 C         -10.4008  -18.0533   22.0492 C.3     1  UNL1        0.2306
     26 C         -10.4017  -18.5047   20.6187 C.3     1  UNL1        0.1804
     27 O         -11.6414  -18.3589   19.7870 O.3     1  UNL1       -0.3785
     28 C          -9.1628  -19.1018   20.0199 C.3     1  UNL1        0.1494
     29 C          -9.1636  -19.5532   18.5895 C.3     1  UNL1        0.0349
     30 O          -7.9230  -19.2476   20.8517 O.3     1  UNL1       -0.3186
     31 C          -7.9222  -18.7962   22.2822 C.3     1  UNL1        0.3194
     32 C          -9.1611  -18.1991   22.8809 C.3     1  UNL1        0.2240
     33 O          -9.1602  -17.7477   24.3113 O.3     1  UNL1       -0.3758
     34 H         -11.4729  -18.6966   18.8934 H       1  UNL1        0.2106
     35 H          -8.2875  -17.9119   24.7017 H       1  UNL1        0.2107
     36 O         -11.6397  -17.4561   22.6479 O.3     1  UNL1       -0.4468
     37 C         -13.8627  -17.9725   23.8897 C.3     1  UNL1        0.1212
     38 C         -12.3901  -18.1979   23.7140 C.2     1  UNL1        0.3176
     39 O         -11.6680  -19.1651   24.6046 O.2     1  UNL1       -0.2501
@<TRIPOS>BOND
     1    37    38    1
     2    38    39    2
     3    38    36    1
     4    25    36    1
     5    25    26    1
     6    26    27    1
     7    26    28    1
     8    28    29    1
     9    28    30    1
    10    30    31    1
    11    31    24    1
    12    24     1    1
    13     1     2   ar
    14     2    16    1
    15    16    17   ar
    16    17    18   ar
    17    18    19   ar
    18    19    20    1
    19    19    21   ar
    20    21    22   ar
    21     2     3   ar
    22     3     4   ar
    23     4     5   ar
    24     5     6   ar
    25     6     7    1
    26     6     8   ar
    27     8     9   ar
    28     9    10    1
    29     9    11   ar
    30    11    12   ar
    31    12    13    2
    32    31    32    1
    33    32    33    1
    34    32    25    1
    35    12     1   ar
    36    22    16   ar
    37    11     4   ar
    38    27    34    1
    39    20    23    1
    40     7    14    1
    41    10    15    1
    42    33    35    1
@<TRIPOS>MOLECULE
*****
 39 42 0 0 0
SMALL
GASTEIGER

@<TRIPOS>ATOM
      1 C          -5.5825  -18.2574   22.6598 C.ar    1  UNL1        0.2144
      2 C          -5.0778  -17.0107   23.3238 C.ar    1  UNL1        0.1822
      3 O          -3.7748  -16.4059   22.8921 O.2     1  UNL1       -0.4500
      4 C          -2.9764  -17.0478   21.7964 C.ar    1  UNL1        0.1545
      5 C          -1.6734  -16.4430   21.3647 C.ar    1  UNL1        0.0744
      6 C          -0.8751  -17.0850   20.2691 C.ar    1  UNL1        0.1397
      7 O           0.4280  -16.4802   19.8374 O.3     1  UNL1       -0.5053
      8 C          -1.3798  -18.3317   19.6051 C.ar    1  UNL1        0.0735
      9 C          -2.6828  -18.9365   20.0367 C.ar    1  UNL1        0.1428
     10 O          -3.1875  -20.1833   19.3727 O.3     1  UNL1       -0.5052
     11 C          -3.4811  -18.2946   21.1324 C.ar    1  UNL1        0.1104
     12 C          -4.7842  -18.8994   21.5641 C.ar    1  UNL1        0.2382
     13 O          -5.2889  -20.1461   20.9001 O.2     1  UNL1       -0.2830
     14 H           0.7432  -15.7014   20.2521 H       1  UNL1        0.2922
     15 H          -2.6888  -20.5843   18.6883 H       1  UNL1        0.2922
     16 C          -5.8762  -16.3687   24.4195 C.ar    1  UNL1        0.0379
     17 C          -7.2254  -15.7850   24.1212 C.ar    1  UNL1        0.0062
     18 C          -8.0237  -15.1431   25.2169 C.ar    1  UNL1        0.0367
     19 C          -7.4728  -15.0849   26.6109 C.ar    1  UNL1        0.1337
     20 O          -8.2712  -14.4429   27.7066 O.3     1  UNL1       -0.5055
     21 C          -6.1237  -15.6686   26.9092 C.ar    1  UNL1        0.0367
     22 C          -5.3254  -16.3105   25.8135 C.ar    1  UNL1        0.0062
     23 H          -9.1140  -14.0783   27.5203 H       1  UNL1        0.2922
     24 O          -6.8856  -18.8622   23.0915 O.3     1  UNL1       -0.4441
     25 C          -9.7643  -19.0966   20.3697 C.3     1  UNL1        0.2306
     26 C         -10.6517  -17.9656   20.7976 C.3     1  UNL1        0.1804
     27 O         -11.9071  -17.6667   20.0329 O.3     1  UNL1       -0.3785
     28 C         -10.2839  -17.1334   21.9902 C.3     1  UNL1        0.1494
     29 C         -11.1713  -16.0023   22.4181 C.3     1  UNL1        0.0349
     30 O          -9.0285  -17.4322   22.7548 O.3     1  UNL1       -0.3186
     31 C          -8.1410  -18.5633   22.3268 C.3     1  UNL1        0.3194
     32 C          -8.5089  -19.3954   21.1343 C.3     1  UNL1        0.2240
     33 O          -7.6214  -20.5265   20.7064 O.3     1  UNL1       -0.3758
     34 H         -12.3606  -16.9112   20.4385 H       1  UNL1        0.2106
     35 H          -6.8587  -20.5825   21.3031 H       1  UNL1        0.2107
     36 O         -10.1322  -19.9287   19.1772 O.3     1  UNL1       -0.4468
     37 C          -9.2938  -21.4221   17.2235 C.3     1  UNL1        0.1212
     38 C          -9.0982  -20.2501   18.1391 C.2     1  UNL1        0.3176
     39 O          -7.8687  -19.3997   18.0167 O.2     1  UNL1       -0.2501
@<TRIPOS>BOND
     1    37    38    1
     2    38    39    2
     3    38    36    1
     4    25    36    1
     5    25    26    1
     6    26    27    1
     7    26    28    1
     8    28    29    1
     9    28    30    1
    10    30    31    1
    11    31    24    1
    12    24     1    1
    13     1     2   ar
    14     2    16    1
    15    16    17   ar
    16    17    18   ar
    17    18    19   ar
    18    19    20    1
    19    19    21   ar
    20    21    22   ar
    21     2     3   ar
    22     3     4   ar
    23     4     5   ar
    24     5     6   ar
    25     6     7    1
    26     6     8   ar
    27     8     9   ar
    28     9    10    1
    29     9    11   ar
    30    11    12   ar
    31    12    13    2
    32    31    32    1
    33    32    33    1
    34    32    25    1
    35    12     1   ar
    36    22    16   ar
    37    11     4   ar
    38    27    34    1
    39    20    23    1
    40     7    14    1
    41    10    15    1
    42    33    35    1
@<TRIPOS>MOLECULE
*****
 39 42 0 0 0
SMALL
GASTEIGER

@<TRIPOS>ATOM
      1 C           7.9571   -4.0483   22.7435 C.ar    1  UNL1        0.2144
      2 C           7.5785   -2.8043   23.4913 C.ar    1  UNL1        0.1822
      3 O           7.2013   -2.8861   24.9408 O.2     1  UNL1       -0.4500
      4 C           7.2028   -4.2118   25.6425 C.ar    1  UNL1        0.1545
      5 C           6.8257   -4.2936   27.0920 C.ar    1  UNL1        0.0744
      6 C           6.8272   -5.6193   27.7937 C.ar    1  UNL1        0.1397
      7 O           6.4500   -5.7012   29.2432 O.3     1  UNL1       -0.5053
      8 C           7.2058   -6.8633   27.0459 C.ar    1  UNL1        0.0735
      9 C           7.5829   -6.7815   25.5964 C.ar    1  UNL1        0.1428
     10 O           7.9616   -8.0255   24.8486 O.3     1  UNL1       -0.5052
     11 C           7.5814   -5.4558   24.8947 C.ar    1  UNL1        0.1104
     12 C           7.9586   -5.3740   23.4452 C.ar    1  UNL1        0.2382
     13 O           8.3372   -6.6179   22.6974 O.2     1  UNL1       -0.2830
     14 H           6.2135   -4.9241   29.7104 H       1  UNL1        0.2922
     15 H           7.9625   -8.8536   25.2869 H       1  UNL1        0.2922
     16 C           7.5770   -1.4785   22.7895 C.ar    1  UNL1        0.0379
     17 C           8.8651   -0.7387   22.5814 C.ar    1  UNL1        0.0062
     18 C           8.8636    0.5870   21.8796 C.ar    1  UNL1        0.0367
     19 C           7.5739    1.1729   21.3861 C.ar    1  UNL1        0.1337
     20 O           7.5724    2.4987   20.6843 O.3     1  UNL1       -0.5055
     21 C           6.2858    0.4330   21.5942 C.ar    1  UNL1        0.0367
     22 C           6.2873   -0.8927   22.2960 C.ar    1  UNL1        0.0062
     23 H           8.3771    2.9608   20.5543 H       1  UNL1        0.2922
     24 O           8.3343   -3.9664   21.2939 O.3     1  UNL1       -0.4441
     25 C           6.6179   -2.0885   18.2481 C.3     1  UNL1        0.2306
     26 C           5.2676   -2.7417   18.2369 C.3     1  UNL1        0.1804
     27 O           4.2454   -2.3334   17.2178 O.3     1  UNL1       -0.3785
     28 C           4.9395   -3.8031   19.2447 C.3     1  UNL1        0.1494
     29 C           3.5893   -4.4563   19.2335 C.3     1  UNL1        0.0349
     30 O           5.9617   -4.2114   20.2637 O.3     1  UNL1       -0.3186
     31 C           7.3121   -3.5582   20.2749 C.3     1  UNL1        0.3194
     32 C           7.6401   -2.4968   19.2671 C.3     1  UNL1        0.2240
     33 O           8.9903   -1.8436   19.2783 O.3     1  UNL1       -0.3758
     34 H           3.4343   -2.8489   17.3490 H       1  UNL1        0.2106
     35 H           9.5257   -2.2202   19.9942 H       1  UNL1        0.2107
     36 O           6.9459   -1.0271   17.2402 O.3     1  UNL1       -0.4468
     37 C           5.8397    1.2822   17.6800 C.3     1  UNL1        0.1212
     38 C           7.0571    0.4059   17.6693 C.2     1  UNL1        0.3176
     39 O           8.3856    0.9626   18.0878 O.2     1  UNL1       -0.2501
@<TRIPOS>BOND
     1    37    38    1
     2    38    39    2
     3    38    36    1
     4    25    36    1
     5    25    26    1
     6    26    27    1
     7    26    28    1
     8    28    29    1
     9    28    30    1
    10    30    31    1
    11    31    24    1
    12    24     1    1
    13     1     2   ar
    14     2    16    1
    15    16    17   ar
    16    17    18   ar
    17    18    19   ar
    18    19    20    1
    19    19    21   ar
    20    21    22   ar
    21     2     3   ar
    22     3     4   ar
    23     4     5   ar
    24     5     6   ar
    25     6     7    1
    26     6     8   ar
    27     8     9   ar
    28     9    10    1
    29     9    11   ar
    30    11    12   ar
    31    12    13    2
    32    31    32    1
    33    32    33    1
    34    32    25    1
    35    12     1   ar
    36    22    16   ar
    37    11     4   ar
    38    27    34    1
    39    20    23    1
    40     7    14    1
    41    10    15    1
    42    33    35    1
@<TRIPOS>MOLECULE
*****
 39 42 0 0 0
SMALL
GASTEIGER

@<TRIPOS>ATOM
      1 C           4.6327    1.6547   33.5557 C.ar    1  UNL1        0.2144
      2 C           4.8934    0.3940   34.3256 C.ar    1  UNL1        0.1822
      3 O           4.3486    0.2371   35.7143 O.2     1  UNL1       -0.4500
      4 C           3.5432    1.3409   36.3332 C.ar    1  UNL1        0.1545
      5 C           2.9984    1.1839   37.7219 C.ar    1  UNL1        0.0744
      6 C           2.1931    2.2877   38.3408 C.ar    1  UNL1        0.1397
      7 O           1.6483    2.1308   39.7296 O.3     1  UNL1       -0.5053
      8 C           1.9324    3.5484   37.5709 C.ar    1  UNL1        0.0735
      9 C           2.4772    3.7053   36.1822 C.ar    1  UNL1        0.1428
     10 O           2.2166    4.9661   35.4124 O.3     1  UNL1       -0.5052
     11 C           3.2826    2.6016   35.5634 C.ar    1  UNL1        0.1104
     12 C           3.8274    2.7585   34.1746 C.ar    1  UNL1        0.2382
     13 O           3.5667    4.0192   33.4047 O.2     1  UNL1       -0.2830
     14 H           1.8111    1.3433   40.2105 H       1  UNL1        0.2922
     15 H           1.7134    5.6556   35.7990 H       1  UNL1        0.2922
     16 C           5.6988   -0.7098   33.7067 C.ar    1  UNL1        0.0379
     17 C           5.0233   -1.9739   33.2643 C.ar    1  UNL1        0.0062
     18 C           5.8287   -3.0776   32.6454 C.ar    1  UNL1        0.0367
     19 C           7.3096   -2.9172   32.4689 C.ar    1  UNL1        0.1337
     20 O           8.1151   -4.0210   31.8499 O.3     1  UNL1       -0.5055
     21 C           7.9851   -1.6531   32.9112 C.ar    1  UNL1        0.0367
     22 C           7.1797   -0.5494   33.5301 C.ar    1  UNL1        0.0062
     23 H           7.6931   -4.8106   31.5736 H       1  UNL1        0.2922
     24 O           5.1775    1.8116   32.1669 O.3     1  UNL1       -0.4441
     25 C           2.6851    0.6000   29.3262 C.3     1  UNL1        0.2306
     26 C           3.4300   -0.5821   28.7808 C.3     1  UNL1        0.1804
     27 O           2.8475   -1.3801   27.6521 O.3     1  UNL1       -0.3785
     28 C           4.7575   -0.9664   29.3641 C.3     1  UNL1        0.1494
     29 C           5.5024   -2.1486   28.8186 C.3     1  UNL1        0.0349
     30 O           5.3400   -0.1685   30.4928 O.3     1  UNL1       -0.3186
     31 C           4.5950    1.0137   31.0382 C.3     1  UNL1        0.3194
     32 C           3.2676    1.3979   30.4550 C.3     1  UNL1        0.2240
     33 O           2.5227    2.5801   31.0004 O.3     1  UNL1       -0.3758
     34 H           3.4514   -2.1034   27.4221 H       1  UNL1        0.2106
     35 H           3.0344    2.9805   31.7206 H       1  UNL1        0.2107
     36 O           1.3577    0.9842   28.7430 O.3     1  UNL1       -0.4468
     37 C          -0.8936   -0.3079   28.8543 C.3     1  UNL1        0.1212
     38 C           0.0913    0.6412   29.4701 C.2     1  UNL1        0.3176
     39 O          -0.1901    1.2473   30.8131 O.2     1  UNL1       -0.2501
@<TRIPOS>BOND
     1    37    38    1
     2    38    39    2
     3    38    36    1
     4    25    36    1
     5    25    26    1
     6    26    27    1
     7    26    28    1
     8    28    29    1
     9    28    30    1
    10    30    31    1
    11    31    24    1
    12    24     1    1
    13     1     2   ar
    14     2    16    1
    15    16    17   ar
    16    17    18   ar
    17    18    19   ar
    18    19    20    1
    19    19    21   ar
    20    21    22   ar
    21     2     3   ar
    22     3     4   ar
    23     4     5   ar
    24     5     6   ar
    25     6     7    1
    26     6     8   ar
    27     8     9   ar
    28     9    10    1
    29     9    11   ar
    30    11    12   ar
    31    12    13    2
    32    31    32    1
    33    32    33    1
    34    32    25    1
    35    12     1   ar
    36    22    16   ar
    37    11     4   ar
    38    27    34    1
    39    20    23    1
    40     7    14    1
    41    10    15    1
    42    33    35    1
@<TRIPOS>MOLECULE
*****
 39 42 0 0 0
SMALL
GASTEIGER

@<TRIPOS>ATOM
      1 C          -0.6219    3.5356   22.3800 C.ar    1  UNL1        0.2144
      2 C          -1.0791    2.7805   21.1673 C.ar    1  UNL1        0.1822
      3 O          -2.5340    2.7567   20.8029 O.2     1  UNL1       -0.4500
      4 C          -3.5317    3.4882   21.6512 C.ar    1  UNL1        0.1545
      5 C          -4.9865    3.4645   21.2868 C.ar    1  UNL1        0.0744
      6 C          -5.9841    4.1959   22.1351 C.ar    1  UNL1        0.1397
      7 O          -7.4391    4.1722   21.7707 O.3     1  UNL1       -0.5053
      8 C          -5.5269    4.9511   23.3478 C.ar    1  UNL1        0.0735
      9 C          -4.0721    4.9748   23.7122 C.ar    1  UNL1        0.1428
     10 O          -3.6149    5.7300   24.9249 O.3     1  UNL1       -0.5052
     11 C          -3.0745    4.2434   22.8639 C.ar    1  UNL1        0.1104
     12 C          -1.6196    4.2671   23.2283 C.ar    1  UNL1        0.2382
     13 O          -1.1624    5.0223   24.4410 O.2     1  UNL1       -0.2830
     14 H          -7.7247    3.7005   21.0131 H       1  UNL1        0.2922
     15 H          -4.2381    6.1869   25.4548 H       1  UNL1        0.2922
     16 C          -0.0814    2.0490   20.3190 C.ar    1  UNL1        0.0379
     17 C           0.7514    2.8011   19.3237 C.ar    1  UNL1        0.0062
     18 C           1.7491    2.0697   18.4754 C.ar    1  UNL1        0.0367
     19 C           1.9139    0.5860   18.6225 C.ar    1  UNL1        0.1337
     20 O           2.9117   -0.1455   17.7742 O.3     1  UNL1       -0.5055
     21 C           1.0811   -0.1661   19.6178 C.ar    1  UNL1        0.0367
     22 C           0.0835    0.5653   20.4660 C.ar    1  UNL1        0.0062
     23 H           3.4319    0.3244   17.1524 H       1  UNL1        0.2922
     24 O           0.8330    3.5593   22.7444 O.3     1  UNL1       -0.4441
     25 C           1.9813    1.3478   25.8331 C.3     1  UNL1        0.2306
     26 C           2.6105    0.1823   25.1290 C.3     1  UNL1        0.1804
     27 O           3.2030   -0.9433   25.9239 O.3     1  UNL1       -0.3785
     28 C           2.6472    0.1425   23.6299 C.3     1  UNL1        0.1494
     29 C           3.2764   -1.0229   22.9258 C.3     1  UNL1        0.0349
     30 O           2.0547    1.2682   22.8351 O.3     1  UNL1       -0.3186
     31 C           1.4255    2.4337   23.5393 C.3     1  UNL1        0.3194
     32 C           1.3888    2.4734   25.0383 C.3     1  UNL1        0.2240
     33 O           0.7596    3.6389   25.7424 O.3     1  UNL1       -0.3758
     34 H           3.5651   -1.6102   25.3197 H       1  UNL1        0.2106
     35 H           0.4283    4.2723   25.0867 H       1  UNL1        0.2107
     36 O           1.9446    1.3875   27.3321 O.3     1  UNL1       -0.4468
     37 C           0.6287   -0.1927   28.9201 C.3     1  UNL1        0.1212
     38 C           0.6816    1.0359   28.0610 C.2     1  UNL1        0.3176
     39 O          -0.5283    1.9128   27.9309 O.2     1  UNL1       -0.2501
@<TRIPOS>BOND
     1    37    38    1
     2    38    39    2
     3    38    36    1
     4    25    36    1
     5    25    26    1
     6    26    27    1
     7    26    28    1
     8    28    29    1
     9    28    30    1
    10    30    31    1
    11    31    24    1
    12    24     1    1
    13     1     2   ar
    14     2    16    1
    15    16    17   ar
    16    17    18   ar
    17    18    19   ar
    18    19    20    1
    19    19    21   ar
    20    21    22   ar
    21     2     3   ar
    22     3     4   ar
    23     4     5   ar
    24     5     6   ar
    25     6     7    1
    26     6     8   ar
    27     8     9   ar
    28     9    10    1
    29     9    11   ar
    30    11    12   ar
    31    12    13    2
    32    31    32    1
    33    32    33    1
    34    32    25    1
    35    12     1   ar
    36    22    16   ar
    37    11     4   ar
    38    27    34    1
    39    20    23    1
    40     7    14    1
    41    10    15    1
    42    33    35    1
@<TRIPOS>MOLECULE
*****
 39 42 0 0 0
SMALL
GASTEIGER

@<TRIPOS>ATOM
      1 C           7.1422   -3.0644   23.4015 C.ar    1  UNL1        0.2144
      2 C           6.2584   -2.9340   24.6064 C.ar    1  UNL1        0.1822
      3 O           6.1577   -4.0632   25.5885 O.2     1  UNL1       -0.4500
      4 C           6.9409   -5.3230   25.3657 C.ar    1  UNL1        0.1545
      5 C           6.8403   -6.4523   26.3478 C.ar    1  UNL1        0.0744
      6 C           7.6234   -7.7120   26.1250 C.ar    1  UNL1        0.1397
      7 O           7.5228   -8.8414   27.1071 O.3     1  UNL1       -0.5053
      8 C           8.5072   -7.8425   24.9200 C.ar    1  UNL1        0.0735
      9 C           8.6079   -6.7132   23.9379 C.ar    1  UNL1        0.1428
     10 O           9.4917   -6.8437   22.7330 O.3     1  UNL1       -0.5052
     11 C           7.8247   -5.4535   24.1608 C.ar    1  UNL1        0.1104
     12 C           7.9254   -4.3241   23.1786 C.ar    1  UNL1        0.2382
     13 O           8.8092   -4.4546   21.9737 O.2     1  UNL1       -0.2830
     14 H           6.9707   -8.7599   27.8598 H       1  UNL1        0.2922
     15 H           9.9809   -7.6306   22.5938 H       1  UNL1        0.2922
     16 C           5.4752   -1.6741   24.8292 C.ar    1  UNL1        0.0379
     17 C           4.1232   -1.5105   24.2007 C.ar    1  UNL1        0.0062
     18 C           3.3401   -0.2507   24.4235 C.ar    1  UNL1        0.0367
     19 C           3.9090    0.8454   25.2748 C.ar    1  UNL1        0.1337
     20 O           3.1258    2.1052   25.4976 O.3     1  UNL1       -0.5055
     21 C           5.2611    0.6818   25.9033 C.ar    1  UNL1        0.0367
     22 C           6.0442   -0.5780   25.6805 C.ar    1  UNL1        0.0062
     23 H           2.2812    2.2074   25.1050 H       1  UNL1        0.2922
     24 O           7.2429   -1.9351   22.4193 O.3     1  UNL1       -0.4441
     25 C           5.5808   -0.8371   18.9869 C.3     1  UNL1        0.2306
     26 C           5.0158   -2.1438   18.5147 C.3     1  UNL1        0.1804
     27 O           4.2734   -2.2134   17.2131 O.3     1  UNL1       -0.3785
     28 C           5.1931   -3.3811   19.3440 C.3     1  UNL1        0.1494
     29 C           4.6280   -4.6879   18.8718 C.3     1  UNL1        0.0349
     30 O           5.9354   -3.3115   20.6456 O.3     1  UNL1       -0.3186
     31 C           6.5005   -2.0046   21.1178 C.3     1  UNL1        0.3194
     32 C           6.3232   -0.7675   20.2884 C.3     1  UNL1        0.2240
     33 O           6.8882    0.5393   20.7606 O.3     1  UNL1       -0.3758
     34 H           3.9769   -3.1239   17.0583 H       1  UNL1        0.2106
     35 H           7.3337    0.4100   21.6125 H       1  UNL1        0.2107
     36 O           5.4035    0.4001   18.1575 O.3     1  UNL1       -0.4468
     37 C           4.0651    2.6007   18.4987 C.3     1  UNL1        0.1212
     38 C           4.0964    1.1357   18.1778 C.2     1  UNL1        0.3176
     39 O           2.8206    0.4063   17.8771 O.2     1  UNL1       -0.2501
@<TRIPOS>BOND
     1    37    38    1
     2    38    39    2
     3    38    36    1
     4    25    36    1
     5    25    26    1
     6    26    27    1
     7    26    28    1
     8    28    29    1
     9    28    30    1
    10    30    31    1
    11    31    24    1
    12    24     1    1
    13     1     2   ar
    14     2    16    1
    15    16    17   ar
    16    17    18   ar
    17    18    19   ar
    18    19    20    1
    19    19    21   ar
    20    21    22   ar
    21     2     3   ar
    22     3     4   ar
    23     4     5   ar
    24     5     6   ar
    25     6     7    1
    26     6     8   ar
    27     8     9   ar
    28     9    10    1
    29     9    11   ar
    30    11    12   ar
    31    12    13    2
    32    31    32    1
    33    32    33    1
    34    32    25    1
    35    12     1   ar
    36    22    16   ar
    37    11     4   ar
    38    27    34    1
    39    20    23    1
    40     7    14    1
    41    10    15    1
    42    33    35    1
@<TRIPOS>MOLECULE
*****
 39 42 0 0 0
SMALL
GASTEIGER

@<TRIPOS>ATOM
      1 C           6.0297   -1.3499   29.9850 C.ar    1  UNL1        0.2144
      2 C           6.1114   -2.2361   31.1924 C.ar    1  UNL1        0.1822
      3 O           6.4540   -3.6880   31.0354 O.2     1  UNL1       -0.4500
      4 C           6.7150   -4.2537   29.6708 C.ar    1  UNL1        0.1545
      5 C           7.0576   -5.7055   29.5137 C.ar    1  UNL1        0.0744
      6 C           7.3185   -6.2711   28.1492 C.ar    1  UNL1        0.1397
      7 O           7.6611   -7.7231   27.9921 O.3     1  UNL1       -0.5053
      8 C           7.2368   -5.3849   26.9418 C.ar    1  UNL1        0.0735
      9 C           6.8942   -3.9331   27.0988 C.ar    1  UNL1        0.1428
     10 O           6.8126   -3.0468   25.8914 O.3     1  UNL1       -0.5052
     11 C           6.6333   -3.3674   28.4633 C.ar    1  UNL1        0.1104
     12 C           6.2907   -1.9155   28.6204 C.ar    1  UNL1        0.2382
     13 O           6.2090   -1.0293   27.4130 O.2     1  UNL1       -0.2830
     14 H           7.7122   -8.2767   28.7464 H       1  UNL1        0.2922
     15 H           6.9756   -3.4002   25.0390 H       1  UNL1        0.2922
     16 C           5.8504   -1.6704   32.5570 C.ar    1  UNL1        0.0379
     17 C           6.8863   -0.8158   33.2252 C.ar    1  UNL1        0.0062
     18 C           6.6253   -0.2502   34.5897 C.ar    1  UNL1        0.0367
     19 C           5.3285   -0.5391   35.2859 C.ar    1  UNL1        0.1337
     20 O           5.0675    0.0266   36.6505 O.3     1  UNL1       -0.5055
     21 C           4.2926   -1.3937   34.6177 C.ar    1  UNL1        0.0367
     22 C           4.5536   -1.9593   33.2532 C.ar    1  UNL1        0.0062
     23 H           5.7146    0.5604   37.0680 H       1  UNL1        0.2922
     24 O           5.6871    0.1020   30.1421 O.3     1  UNL1       -0.4441
     25 C           1.7714    0.7263   29.9775 C.3     1  UNL1        0.2306
     26 C           1.5208    1.3143   31.3345 C.3     1  UNL1        0.1804
     27 O           0.1320    1.7184   31.7320 O.3     1  UNL1       -0.3785
     28 C           2.6590    1.4983   32.2941 C.3     1  UNL1        0.1494
     29 C           2.4084    2.0863   33.6510 C.3     1  UNL1        0.0349
     30 O           4.0478    1.0942   31.8966 O.3     1  UNL1       -0.3186
     31 C           4.2983    0.5061   30.5395 C.3     1  UNL1        0.3194
     32 C           3.1601    0.3222   29.5800 C.3     1  UNL1        0.2240
     33 O           3.4107   -0.2658   28.2231 O.3     1  UNL1       -0.3758
     34 H           0.1450    2.0772   32.6331 H       1  UNL1        0.2106
     35 H           4.3543   -0.4700   28.1284 H       1  UNL1        0.2107
     36 O           0.6332    0.5424   29.0180 O.3     1  UNL1       -0.4468
     37 C          -0.2177    1.4384   26.7325 C.3     1  UNL1        0.1212
     38 C           0.1870    1.6858   28.1557 C.2     1  UNL1        0.3176
     39 O           0.1454    3.0764   28.7163 O.2     1  UNL1       -0.2501
@<TRIPOS>BOND
     1    37    38    1
     2    38    39    2
     3    38    36    1
     4    25    36    1
     5    25    26    1
     6    26    27    1
     7    26    28    1
     8    28    29    1
     9    28    30    1
    10    30    31    1
    11    31    24    1
    12    24     1    1
    13     1     2   ar
    14     2    16    1
    15    16    17   ar
    16    17    18   ar
    17    18    19   ar
    18    19    20    1
    19    19    21   ar
    20    21    22   ar
    21     2     3   ar
    22     3     4   ar
    23     4     5   ar
    24     5     6   ar
    25     6     7    1
    26     6     8   ar
    27     8     9   ar
    28     9    10    1
    29     9    11   ar
    30    11    12   ar
    31    12    13    2
    32    31    32    1
    33    32    33    1
    34    32    25    1
    35    12     1   ar
    36    22    16   ar
    37    11     4   ar
    38    27    34    1
    39    20    23    1
    40     7    14    1
    41    10    15    1
    42    33    35    1
@<TRIPOS>MOLECULE
*****
 39 42 0 0 0
SMALL
GASTEIGER

@<TRIPOS>ATOM
      1 C           2.4786   -0.1929   19.9508 C.ar    1  UNL1        0.2144
      2 C           3.6800    0.4319   19.3057 C.ar    1  UNL1        0.1822
      3 O           3.6056    1.8360   18.7832 O.2     1  UNL1       -0.4500
      4 C           2.3297    2.6153   18.9058 C.ar    1  UNL1        0.1545
      5 C           2.2553    4.0193   18.3833 C.ar    1  UNL1        0.0744
      6 C           0.9795    4.7986   18.5060 C.ar    1  UNL1        0.1397
      7 O           0.9050    6.2027   17.9835 O.3     1  UNL1       -0.5053
      8 C          -0.2219    4.1737   19.1511 C.ar    1  UNL1        0.0735
      9 C          -0.1475    2.7697   19.6736 C.ar    1  UNL1        0.1428
     10 O          -1.3489    2.1448   20.3187 O.3     1  UNL1       -0.5052
     11 C           1.1283    1.9904   19.5509 C.ar    1  UNL1        0.1104
     12 C           1.2027    0.5863   20.0734 C.ar    1  UNL1        0.2382
     13 O           0.0013   -0.0385   20.7185 O.2     1  UNL1       -0.2830
     14 H           1.6555    6.5930   17.5805 H       1  UNL1        0.2922
     15 H          -2.1459    2.6316   20.3953 H       1  UNL1        0.2922
     16 C           4.9558   -0.3473   19.1831 C.ar    1  UNL1        0.0379
     17 C           6.0591   -0.1412   20.1782 C.ar    1  UNL1        0.0062
     18 C           7.3349   -0.9205   20.0555 C.ar    1  UNL1        0.0367
     19 C           7.5074   -1.9059   18.9378 C.ar    1  UNL1        0.1337
     20 O           8.7832   -2.6852   18.8152 O.3     1  UNL1       -0.5055
     21 C           6.4041   -2.1120   17.9427 C.ar    1  UNL1        0.0367
     22 C           5.1283   -1.3327   18.0654 C.ar    1  UNL1        0.0062
     23 H           9.4724   -2.5564   19.4368 H       1  UNL1        0.2922
     24 O           2.5530   -1.5970   20.4733 O.3     1  UNL1       -0.4441
     25 C           5.1480   -3.2806   22.9596 C.3     1  UNL1        0.2306
     26 C           4.9007   -2.4865   24.2079 C.3     1  UNL1        0.1804
     27 O           5.6833   -2.7829   25.4528 O.3     1  UNL1       -0.3785
     28 C           3.8709   -1.3958   24.2113 C.3     1  UNL1        0.1494
     29 C           3.6236   -0.6017   25.4596 C.3     1  UNL1        0.0349
     30 O           3.0883   -1.0993   22.9665 O.3     1  UNL1       -0.3186
     31 C           3.3356   -1.8935   21.7182 C.3     1  UNL1        0.3194
     32 C           4.3654   -2.9841   21.7148 C.3     1  UNL1        0.2240
     33 O           4.6126   -3.7782   20.4665 O.3     1  UNL1       -0.3758
     34 H           5.4025   -2.1834   26.1617 H       1  UNL1        0.2106
     35 H           4.0279   -3.4611   19.7605 H       1  UNL1        0.2107
     36 O           6.1778   -4.3712   22.9562 O.3     1  UNL1       -0.4468
     37 C           8.5959   -3.4445   22.7463 C.3     1  UNL1        0.1212
     38 C           7.4418   -4.2067   22.1655 C.2     1  UNL1        0.3176
     39 O           7.5517   -4.8044   20.7942 O.2     1  UNL1       -0.2501
@<TRIPOS>BOND
     1    37    38    1
     2    38    39    2
     3    38    36    1
     4    25    36    1
     5    25    26    1
     6    26    27    1
     7    26    28    1
     8    28    29    1
     9    28    30    1
    10    30    31    1
    11    31    24    1
    12    24     1    1
    13     1     2   ar
    14     2    16    1
    15    16    17   ar
    16    17    18   ar
    17    18    19   ar
    18    19    20    1
    19    19    21   ar
    20    21    22   ar
    21     2     3   ar
    22     3     4   ar
    23     4     5   ar
    24     5     6   ar
    25     6     7    1
    26     6     8   ar
    27     8     9   ar
    28     9    10    1
    29     9    11   ar
    30    11    12   ar
    31    12    13    2
    32    31    32    1
    33    32    33    1
    34    32    25    1
    35    12     1   ar
    36    22    16   ar
    37    11     4   ar
    38    27    34    1
    39    20    23    1
    40     7    14    1
    41    10    15    1
    42    33    35    1
