@<TRIPOS>MOLECULE
*****
 21 23 0 0 0
SMALL
GASTEIGER

@<TRIPOS>ATOM
      1 C         -12.7178  -17.9428   23.5480 C.ar    1  UNL1        0.1387
      2 C         -12.2493  -17.0220   22.4604 C.ar    1  UNL1        0.0369
      3 C         -10.8868  -17.2028   21.8598 C.ar    1  UNL1        0.0031
      4 C          -9.9926  -18.3043   22.3468 C.ar    1  UNL1        0.0002
      5 C          -8.6300  -18.4851   21.7462 C.ar    1  UNL1        0.0001
      6 C          -7.7359  -19.5866   22.2331 C.ar    1  UNL1        0.0015
      7 C          -8.2043  -20.5074   23.3207 C.ar    1  UNL1        0.0000
      8 C          -9.5669  -20.3266   23.9213 C.ar    1  UNL1        0.0001
      9 C         -10.4611  -19.2250   23.4343 C.ar    1  UNL1        0.0030
     10 C         -11.8236  -19.0443   24.0349 C.ar    1  UNL1        0.0369
     11 C          -6.3733  -19.7673   21.6325 C.ar    1  UNL1        0.0193
     12 C          -6.1730  -20.7370   20.5057 C.ar    1  UNL1        0.0988
     13 N          -4.8104  -20.9178   19.9051 N.ar    1  UNL1       -0.2422
     14 C          -3.6482  -20.1288   20.4313 C.ar    1  UNL1        0.1017
     15 C          -3.8485  -19.1592   21.5581 C.ar    1  UNL1        0.0539
     16 C          -5.2111  -18.9784   22.1587 C.ar    1  UNL1        0.0059
     17 C          -2.6863  -18.3703   22.0842 C.2     1  UNL1        0.1750
     18 C          -2.9109  -17.0148   22.6861 C.3     1  UNL1        0.0773
     19 O          -1.2995  -18.9369   22.0085 O.2     1  UNL1       -0.2913
     20 C         -14.4289  -18.4465   25.4369 C.3     1  UNL1        0.2525
     21 O         -14.0804  -17.7620   24.1486 O.3     1  UNL1       -0.4714
@<TRIPOS>BOND
     1    20    21    1
     2    21     1    1
     3     1     2   ar
     4     2     3   ar
     5     3     4   ar
     6     4     5   ar
     7     5     6   ar
     8     6    11    1
     9    11    12   ar
    10    12    13   ar
    11    13    14   ar
    12    14    15   ar
    13    15    17    1
    14    17    18    1
    15    17    19    2
    16    15    16   ar
    17     6     7   ar
    18     7     8   ar
    19     8     9   ar
    20     9    10   ar
    21    10     1   ar
    22     9     4   ar
    23    16    11   ar
@<TRIPOS>MOLECULE
*****
 21 23 0 0 0
SMALL
GASTEIGER

@<TRIPOS>ATOM
      1 C          -1.3589  -18.7440   20.0291 C.ar    1  UNL1        0.1387
      2 C          -2.0756  -18.2602   18.8035 C.ar    1  UNL1        0.0369
      3 C          -3.5744  -18.2904   18.7501 C.ar    1  UNL1        0.0031
      4 C          -4.3564  -18.8045   19.9223 C.ar    1  UNL1        0.0002
      5 C          -5.8552  -18.8347   19.8689 C.ar    1  UNL1        0.0001
      6 C          -6.6372  -19.3487   21.0411 C.ar    1  UNL1        0.0015
      7 C          -5.9205  -19.8326   22.2668 C.ar    1  UNL1        0.0000
      8 C          -4.4218  -19.8024   22.3202 C.ar    1  UNL1        0.0001
      9 C          -3.6397  -19.2883   21.1479 C.ar    1  UNL1        0.0030
     10 C          -2.1410  -19.2581   21.2013 C.ar    1  UNL1        0.0369
     11 C          -8.1359  -19.3790   20.9876 C.ar    1  UNL1        0.0193
     12 C          -8.8360  -19.5628   19.6738 C.ar    1  UNL1        0.0988
     13 N         -10.3348  -19.5930   19.6204 N.ar    1  UNL1       -0.2422
     14 C         -11.1334  -19.4394   20.8808 C.ar    1  UNL1        0.1017
     15 C         -10.4333  -19.2556   22.1946 C.ar    1  UNL1        0.0539
     16 C          -8.9346  -19.2254   22.2480 C.ar    1  UNL1        0.0059
     17 C         -11.2320  -19.1020   23.4549 C.2     1  UNL1        0.1750
     18 C         -12.4611  -18.2423   23.4639 C.3     1  UNL1        0.0773
     19 O         -10.8015  -19.8082   24.7064 O.2     1  UNL1       -0.2913
     20 C           0.8621  -17.4002   20.1350 C.3     1  UNL1        0.2525
     21 O           0.1398  -18.7138   20.0825 O.3     1  UNL1       -0.4714
@<TRIPOS>BOND
     1    20    21    1
     2    21     1    1
     3     1     2   ar
     4     2     3   ar
     5     3     4   ar
     6     4     5   ar
     7     5     6   ar
     8     6    11    1
     9    11    12   ar
    10    12    13   ar
    11    13    14   ar
    12    14    15   ar
    13    15    17    1
    14    17    18    1
    15    17    19    2
    16    15    16   ar
    17     6     7   ar
    18     7     8   ar
    19     8     9   ar
    20     9    10   ar
    21    10     1   ar
    22     9     4   ar
    23    16    11   ar
@<TRIPOS>MOLECULE
*****
 21 23 0 0 0
SMALL
GASTEIGER

@<TRIPOS>ATOM
      1 C         -12.2836  -18.3411   23.4385 C.ar    1  UNL1        0.1387
      2 C         -11.2340  -18.4752   24.5016 C.ar    1  UNL1        0.0369
      3 C          -9.8173  -18.7887   24.1215 C.ar    1  UNL1        0.0031
      4 C          -9.4501  -18.9680   22.6783 C.ar    1  UNL1        0.0002
      5 C          -8.0333  -19.2815   22.2982 C.ar    1  UNL1        0.0001
      6 C          -7.6661  -19.4608   20.8550 C.ar    1  UNL1        0.0015
      7 C          -8.7157  -19.3266   19.7917 C.ar    1  UNL1        0.0000
      8 C         -10.1325  -19.0131   20.1718 C.ar    1  UNL1        0.0001
      9 C         -10.4997  -18.8338   21.6152 C.ar    1  UNL1        0.0030
     10 C         -11.9165  -18.5204   21.9953 C.ar    1  UNL1        0.0369
     11 C          -6.2493  -19.7742   20.4749 C.ar    1  UNL1        0.0193
     12 C          -5.8342  -21.1955   20.2345 C.ar    1  UNL1        0.0988
     13 N          -4.4175  -21.5090   19.8544 N.ar    1  UNL1       -0.2422
     14 C          -3.4158  -20.4012   19.7146 C.ar    1  UNL1        0.1017
     15 C          -3.8309  -18.9800   19.9550 C.ar    1  UNL1        0.0539
     16 C          -5.2477  -18.6665   20.3351 C.ar    1  UNL1        0.0059
     17 C          -2.8293  -17.8722   19.8152 C.2     1  UNL1        0.1750
     18 C          -1.9120  -17.8358   18.6289 C.3     1  UNL1        0.0773
     19 O          -2.7449  -16.8008   20.8617 O.2     1  UNL1       -0.2913
     20 C         -14.2136  -18.4049   25.1766 C.3     1  UNL1        0.2525
     21 O         -13.7004  -18.0276   23.8186 O.3     1  UNL1       -0.4714
@<TRIPOS>BOND
     1    20    21    1
     2    21     1    1
     3     1     2   ar
     4     2     3   ar
     5     3     4   ar
     6     4     5   ar
     7     5     6   ar
     8     6    11    1
     9    11    12   ar
    10    12    13   ar
    11    13    14   ar
    12    14    15   ar
    13    15    17    1
    14    17    18    1
    15    17    19    2
    16    15    16   ar
    17     6     7   ar
    18     7     8   ar
    19     8     9   ar
    20     9    10   ar
    21    10     1   ar
    22     9     4   ar
    23    16    11   ar
@<TRIPOS>MOLECULE
*****
 21 23 0 0 0
SMALL
GASTEIGER

@<TRIPOS>ATOM
      1 C         -11.5894  -17.7946   22.7318 C.ar    1  UNL1        0.1387
      2 C         -10.9694  -16.4588   23.0169 C.ar    1  UNL1        0.0369
      3 C          -9.4774  -16.3056   23.0004 C.ar    1  UNL1        0.0031
      4 C          -8.6053  -17.4882   22.6988 C.ar    1  UNL1        0.0002
      5 C          -7.1132  -17.3350   22.6823 C.ar    1  UNL1        0.0001
      6 C          -6.2411  -18.5175   22.3807 C.ar    1  UNL1        0.0015
      7 C          -6.8611  -19.8534   22.0956 C.ar    1  UNL1        0.0000
      8 C          -8.3532  -20.0066   22.1120 C.ar    1  UNL1        0.0001
      9 C          -9.2253  -18.8239   22.4137 C.ar    1  UNL1        0.0030
     10 C         -10.7173  -18.9771   22.4301 C.ar    1  UNL1        0.0369
     11 C          -4.7491  -18.3643   22.3642 C.ar    1  UNL1        0.0193
     12 C          -4.0161  -18.0241   23.6280 C.ar    1  UNL1        0.0988
     13 N          -2.5240  -17.8709   23.6115 N.ar    1  UNL1       -0.2422
     14 C          -1.7649  -18.0579   22.3313 C.ar    1  UNL1        0.1017
     15 C          -2.4980  -18.3981   21.0676 C.ar    1  UNL1        0.0539
     16 C          -3.9900  -18.5513   21.0841 C.ar    1  UNL1        0.0059
     17 C          -1.7389  -18.5852   19.7875 C.2     1  UNL1        0.1750
     18 C          -2.4521  -18.4872   18.4715 C.3     1  UNL1        0.0773
     19 O          -0.2666  -18.8701   19.8233 O.2     1  UNL1       -0.2913
     20 C         -13.7941  -18.2117   24.0415 C.3     1  UNL1        0.2525
     21 O         -13.0815  -17.9478   22.7482 O.3     1  UNL1       -0.4714
@<TRIPOS>BOND
     1    20    21    1
     2    21     1    1
     3     1     2   ar
     4     2     3   ar
     5     3     4   ar
     6     4     5   ar
     7     5     6   ar
     8     6    11    1
     9    11    12   ar
    10    12    13   ar
    11    13    14   ar
    12    14    15   ar
    13    15    17    1
    14    17    18    1
    15    17    19    2
    16    15    16   ar
    17     6     7   ar
    18     7     8   ar
    19     8     9   ar
    20     9    10   ar
    21    10     1   ar
    22     9     4   ar
    23    16    11   ar
@<TRIPOS>MOLECULE
*****
 21 23 0 0 0
SMALL
GASTEIGER

@<TRIPOS>ATOM
      1 C         -12.9490  -18.1197   22.8848 C.ar    1  UNL1        0.1387
      2 C         -12.4317  -18.3297   21.4926 C.ar    1  UNL1        0.0369
      3 C         -10.9575  -18.2664   21.2227 C.ar    1  UNL1        0.0031
      4 C         -10.0007  -17.9931   22.3450 C.ar    1  UNL1        0.0002
      5 C          -8.5265  -17.9298   22.0751 C.ar    1  UNL1        0.0001
      6 C          -7.5696  -17.6565   23.1974 C.ar    1  UNL1        0.0015
      7 C          -8.0869  -17.4465   24.5897 C.ar    1  UNL1        0.0000
      8 C          -9.5610  -17.5098   24.8596 C.ar    1  UNL1        0.0001
      9 C         -10.5179  -17.7831   23.7372 C.ar    1  UNL1        0.0030
     10 C         -11.9921  -17.8464   24.0071 C.ar    1  UNL1        0.0369
     11 C          -6.0954  -17.5931   22.9275 C.ar    1  UNL1        0.0193
     12 C          -5.2980  -16.4107   23.3923 C.ar    1  UNL1        0.0988
     13 N          -3.8238  -16.3473   23.1224 N.ar    1  UNL1       -0.2422
     14 C          -3.1471  -17.4665   22.3877 C.ar    1  UNL1        0.1017
     15 C          -3.9446  -18.6489   21.9230 C.ar    1  UNL1        0.0539
     16 C          -5.4187  -18.7122   22.1929 C.ar    1  UNL1        0.0059
     17 C          -3.2678  -19.7679   21.1884 C.2     1  UNL1        0.1750
     18 C          -3.9968  -20.5003   20.1011 C.3     1  UNL1        0.0773
     19 O          -1.8621  -20.1547   21.5411 O.2     1  UNL1       -0.2913
     20 C         -14.9208  -18.4094   24.5515 C.3     1  UNL1        0.2525
     21 O         -14.4231  -18.1830   23.1547 O.3     1  UNL1       -0.4714
@<TRIPOS>BOND
     1    20    21    1
     2    21     1    1
     3     1     2   ar
     4     2     3   ar
     5     3     4   ar
     6     4     5   ar
     7     5     6   ar
     8     6    11    1
     9    11    12   ar
    10    12    13   ar
    11    13    14   ar
    12    14    15   ar
    13    15    17    1
    14    17    18    1
    15    17    19    2
    16    15    16   ar
    17     6     7   ar
    18     7     8   ar
    19     8     9   ar
    20     9    10   ar
    21    10     1   ar
    22     9     4   ar
    23    16    11   ar
@<TRIPOS>MOLECULE
*****
 21 23 0 0 0
SMALL
GASTEIGER

@<TRIPOS>ATOM
      1 C         -10.4828   -6.0551   18.9395 C.ar    1  UNL1        0.1387
      2 C          -9.7297   -4.7975   18.6215 C.ar    1  UNL1        0.0369
      3 C         -10.4379   -3.4752   18.6354 C.ar    1  UNL1        0.0031
      4 C         -11.8993   -3.4106   18.9672 C.ar    1  UNL1        0.0002
      5 C         -12.6075   -2.0884   18.9810 C.ar    1  UNL1        0.0001
      6 C         -14.0689   -2.0238   19.3128 C.ar    1  UNL1        0.0015
      7 C         -14.8221   -3.2815   19.6308 C.ar    1  UNL1        0.0000
      8 C         -14.1139   -4.6037   19.6169 C.ar    1  UNL1        0.0001
      9 C         -12.6524   -4.6682   19.2851 C.ar    1  UNL1        0.0030
     10 C         -11.9442   -5.9904   19.2713 C.ar    1  UNL1        0.0369
     11 C         -14.7771   -0.7016   19.3266 C.ar    1  UNL1        0.0193
     12 C         -14.2139    0.4589   18.5610 C.ar    1  UNL1        0.0988
     13 N         -14.9221    1.7811   18.5748 N.ar    1  UNL1       -0.2422
     14 C         -16.1936    1.9428   19.3542 C.ar    1  UNL1        0.1017
     15 C         -16.7567    0.7823   20.1198 C.ar    1  UNL1        0.0539
     16 C         -16.0485   -0.5399   20.1060 C.ar    1  UNL1        0.0059
     17 C         -18.0281    0.9440   20.8991 C.2     1  UNL1        0.1750
     18 C         -18.3362    2.2504   21.5688 C.3     1  UNL1        0.0773
     19 O         -18.9913   -0.2006   21.0088 O.2     1  UNL1       -0.2913
     20 C          -9.9951   -8.3344   17.7920 C.3     1  UNL1        0.2525
     21 O          -9.7746   -7.3773   18.9257 O.3     1  UNL1       -0.4714
@<TRIPOS>BOND
     1    20    21    1
     2    21     1    1
     3     1     2   ar
     4     2     3   ar
     5     3     4   ar
     6     4     5   ar
     7     5     6   ar
     8     6    11    1
     9    11    12   ar
    10    12    13   ar
    11    13    14   ar
    12    14    15   ar
    13    15    17    1
    14    17    18    1
    15    17    19    2
    16    15    16   ar
    17     6     7   ar
    18     7     8   ar
    19     8     9   ar
    20     9    10   ar
    21    10     1   ar
    22     9     4   ar
    23    16    11   ar
@<TRIPOS>MOLECULE
*****
 21 23 0 0 0
SMALL
GASTEIGER

@<TRIPOS>ATOM
      1 C          -1.7429    3.9055   19.5225 C.ar    1  UNL1        0.1387
      2 C          -1.0641    4.0146   18.1894 C.ar    1  UNL1        0.0369
      3 C           0.0515    3.0760   17.8367 C.ar    1  UNL1        0.0031
      4 C           0.4883    2.0282   18.8171 C.ar    1  UNL1        0.0002
      5 C           1.6039    1.0896   18.4644 C.ar    1  UNL1        0.0001
      6 C           2.0408    0.0418   19.4448 C.ar    1  UNL1        0.0015
      7 C           1.3620   -0.0674   20.7781 C.ar    1  UNL1        0.0000
      8 C           0.2464    0.8713   21.1308 C.ar    1  UNL1        0.0001
      9 C          -0.1904    1.9191   20.1503 C.ar    1  UNL1        0.0030
     10 C          -1.3060    2.8577   20.5030 C.ar    1  UNL1        0.0369
     11 C           3.1564   -0.8968   19.0921 C.ar    1  UNL1        0.0193
     12 C           3.7388   -0.8837   17.7098 C.ar    1  UNL1        0.0988
     13 N           4.8544   -1.8223   17.3571 N.ar    1  UNL1       -0.2422
     14 C           5.3876   -2.7741   18.3867 C.ar    1  UNL1        0.1017
     15 C           4.8051   -2.7872   19.7689 C.ar    1  UNL1        0.0539
     16 C           3.6895   -1.8486   20.1216 C.ar    1  UNL1        0.0059
     17 C           5.3383   -3.7389   20.7984 C.2     1  UNL1        0.1750
     18 C           4.7157   -3.7947   22.1619 C.3     1  UNL1        0.0773
     19 O           6.4940   -4.6349   20.4643 O.2     1  UNL1       -0.2913
     20 C          -3.9881    5.0617   18.9128 C.3     1  UNL1        0.2525
     21 O          -2.8585    4.8441   19.8753 O.3     1  UNL1       -0.4714
@<TRIPOS>BOND
     1    20    21    1
     2    21     1    1
     3     1     2   ar
     4     2     3   ar
     5     3     4   ar
     6     4     5   ar
     7     5     6   ar
     8     6    11    1
     9    11    12   ar
    10    12    13   ar
    11    13    14   ar
    12    14    15   ar
    13    15    17    1
    14    17    18    1
    15    17    19    2
    16    15    16   ar
    17     6     7   ar
    18     7     8   ar
    19     8     9   ar
    20     9    10   ar
    21    10     1   ar
    22     9     4   ar
    23    16    11   ar
@<TRIPOS>MOLECULE
*****
 21 23 0 0 0
SMALL
GASTEIGER

@<TRIPOS>ATOM
      1 C           0.5230    0.7576   21.0103 C.ar    1  UNL1        0.1387
      2 C           1.0652    0.9779   22.3914 C.ar    1  UNL1        0.0369
      3 C           2.2273    0.1645   22.8794 C.ar    1  UNL1        0.0031
      4 C           2.8471   -0.8690   21.9864 C.ar    1  UNL1        0.0002
      5 C           4.0091   -1.6823   22.4745 C.ar    1  UNL1        0.0001
      6 C           4.6289   -2.7159   21.5814 C.ar    1  UNL1        0.0015
      7 C           4.0867   -2.9362   20.2003 C.ar    1  UNL1        0.0000
      8 C           2.9246   -2.1229   19.7122 C.ar    1  UNL1        0.0001
      9 C           2.3048   -1.0893   20.6053 C.ar    1  UNL1        0.0030
     10 C           1.1428   -0.2760   20.1173 C.ar    1  UNL1        0.0369
     11 C           5.7910   -3.5292   22.0695 C.ar    1  UNL1        0.0193
     12 C           6.8379   -3.9970   21.1023 C.ar    1  UNL1        0.0988
     13 N           7.9999   -4.8103   21.5904 N.ar    1  UNL1       -0.2422
     14 C           8.1151   -5.1558   23.0456 C.ar    1  UNL1        0.1017
     15 C           7.0682   -4.6880   24.0126 C.ar    1  UNL1        0.0539
     16 C           5.9062   -3.8747   23.5246 C.ar    1  UNL1        0.0059
     17 C           7.1834   -5.0335   25.4677 C.2     1  UNL1        0.1750
     18 C           7.5417   -6.4303   25.8808 C.3     1  UNL1        0.0773
     19 O           6.9403   -3.9822   26.5097 O.2     1  UNL1       -0.2913
     20 C          -0.9487    2.8935   21.1584 C.3     1  UNL1        0.2525
     21 O          -0.6391    1.5709   20.5223 O.3     1  UNL1       -0.4714
@<TRIPOS>BOND
     1    20    21    1
     2    21     1    1
     3     1     2   ar
     4     2     3   ar
     5     3     4   ar
     6     4     5   ar
     7     5     6   ar
     8     6    11    1
     9    11    12   ar
    10    12    13   ar
    11    13    14   ar
    12    14    15   ar
    13    15    17    1
    14    17    18    1
    15    17    19    2
    16    15    16   ar
    17     6     7   ar
    18     7     8   ar
    19     8     9   ar
    20     9    10   ar
    21    10     1   ar
    22     9     4   ar
    23    16    11   ar
@<TRIPOS>MOLECULE
*****
 21 23 0 0 0
SMALL
GASTEIGER

@<TRIPOS>ATOM
      1 C           3.1639   -0.8007   18.8808 C.ar    1  UNL1        0.1387
      2 C           1.9814    0.0468   18.5156 C.ar    1  UNL1        0.0369
      3 C           1.1566    0.6874   19.5924 C.ar    1  UNL1        0.0031
      4 C           1.5144    0.4806   21.0343 C.ar    1  UNL1        0.0002
      5 C           0.6897    1.1213   22.1110 C.ar    1  UNL1        0.0001
      6 C           1.0474    0.9145   23.5529 C.ar    1  UNL1        0.0015
      7 C           2.2300    0.0670   23.9182 C.ar    1  UNL1        0.0000
      8 C           3.0547   -0.5737   22.8415 C.ar    1  UNL1        0.0001
      9 C           2.6969   -0.3668   21.3995 C.ar    1  UNL1        0.0030
     10 C           3.5216   -1.0075   20.3228 C.ar    1  UNL1        0.0369
     11 C           0.2227    1.5552   24.6297 C.ar    1  UNL1        0.0193
     12 C          -0.5759    2.7888   24.3288 C.ar    1  UNL1        0.0988
     13 N          -1.4006    3.4295   25.4055 N.ar    1  UNL1       -0.2422
     14 C          -1.4268    2.8365   26.7831 C.ar    1  UNL1        0.1017
     15 C          -0.6282    1.6029   27.0840 C.ar    1  UNL1        0.0539
     16 C           0.1965    0.9622   26.0072 C.ar    1  UNL1        0.0059
     17 C          -0.6544    1.0100   28.4615 C.2     1  UNL1        0.1750
     18 C          -1.4026   -0.2651   28.7151 C.3     1  UNL1        0.0773
     19 O           0.0675    1.6922   29.5856 O.2     1  UNL1       -0.2913
     20 C           5.1461   -2.3223   18.1701 C.3     1  UNL1        0.2525
     21 O           3.9886   -1.4414   17.8041 O.3     1  UNL1       -0.4714
@<TRIPOS>BOND
     1    20    21    1
     2    21     1    1
     3     1     2   ar
     4     2     3   ar
     5     3     4   ar
     6     4     5   ar
     7     5     6   ar
     8     6    11    1
     9    11    12   ar
    10    12    13   ar
    11    13    14   ar
    12    14    15   ar
    13    15    17    1
    14    17    18    1
    15    17    19    2
    16    15    16   ar
    17     6     7   ar
    18     7     8   ar
    19     8     9   ar
    20     9    10   ar
    21    10     1   ar
    22     9     4   ar
    23    16    11   ar
