@<TRIPOS>MOLECULE
*****
 22 24 0 0 0
SMALL
GASTEIGER

@<TRIPOS>ATOM
      1 C          -7.4445  -18.3191   22.0964 C.3     1  UNL1        0.1038
      2 C          -8.0266  -19.5910   21.5546 C.3     1  UNL1        0.2106
      3 O          -9.5018  -19.6935   21.3037 O.3     1  UNL1       -0.4755
      4 C         -10.3952  -18.5241   21.5945 C.ar    1  UNL1        0.1379
      5 C         -11.8704  -18.6266   21.3436 C.ar    1  UNL1        0.0367
      6 C         -12.7637  -17.4572   21.6344 C.ar    1  UNL1        0.0031
      7 C         -12.1816  -16.1853   22.1762 C.ar    1  UNL1       -0.0000
      8 C         -10.7064  -16.0828   22.4271 C.ar    1  UNL1        0.0022
      9 C          -9.8131  -17.2522   22.1363 C.ar    1  UNL1        0.0513
     10 C          -8.3378  -17.1497   22.3872 C.3     1  UNL1        0.1959
     11 C          -5.9692  -18.2166   22.3473 C.3     1  UNL1        0.0763
     12 C          -3.7950  -19.4576   21.6523 C.3     1  UNL1        0.0859
     13 N          -4.9968  -18.6382   21.2858 N.3     1  UNL1       -0.2961
     14 H          -5.5247  -19.1797   20.6012 H       1  UNL1        0.1233
     15 O          -7.7557  -15.8778   22.9290 O.3     1  UNL1       -0.4748
     16 C          -7.4644  -15.7511   24.3950 C.ar    1  UNL1        0.1348
     17 C          -8.5670  -15.9268   25.3967 C.ar    1  UNL1        0.0366
     18 C          -8.2756  -15.8001   26.8626 C.ar    1  UNL1        0.0031
     19 C          -6.8817  -15.4975   27.3269 C.ar    1  UNL1       -0.0001
     20 C          -5.7792  -15.3218   26.3252 C.ar    1  UNL1       -0.0013
     21 C          -6.0705  -15.4485   24.8592 C.ar    1  UNL1        0.0121
     22 C          -4.9679  -15.2728   23.8575 C.3     1  UNL1        0.0342
@<TRIPOS>BOND
     1    12    13    1
     2    13    11    1
     3     1    11    1
     4     1     2    1
     5     2     3    1
     6     3     4    1
     7     4     5   ar
     8     5     6   ar
     9     6     7   ar
    10     7     8   ar
    11     8     9   ar
    12     9    10    1
    13    10    15    1
    14    15    16    1
    15    16    17   ar
    16    17    18   ar
    17    18    19   ar
    18    19    20   ar
    19    20    21   ar
    20    21    22    1
    21    10     1    1
    22    21    16   ar
    23     9     4   ar
    24    13    14    1
@<TRIPOS>MOLECULE
*****
 22 24 0 0 0
SMALL
GASTEIGER

@<TRIPOS>ATOM
      1 C          -7.1911  -18.7129   21.2606 C.3     1  UNL1        0.1038
      2 C          -5.7631  -19.0053   21.6142 C.3     1  UNL1        0.2106
      3 O          -5.0591  -18.1709   22.6429 O.3     1  UNL1       -0.4755
      4 C          -5.7833  -17.0440   23.3181 C.ar    1  UNL1        0.1379
      5 C          -5.0794  -16.2097   24.3468 C.ar    1  UNL1        0.0367
      6 C          -5.8036  -15.0829   25.0219 C.ar    1  UNL1        0.0031
      7 C          -7.2317  -14.7904   24.6683 C.ar    1  UNL1       -0.0000
      8 C          -7.9356  -15.6248   23.6396 C.ar    1  UNL1        0.0022
      9 C          -7.2114  -16.7516   22.9645 C.ar    1  UNL1        0.0513
     10 C          -7.9153  -17.5861   21.9357 C.3     1  UNL1        0.1959
     11 C          -7.8951  -19.5473   20.2319 C.3     1  UNL1        0.0763
     12 C         -10.3115  -19.5252   19.2778 C.3     1  UNL1        0.0859
     13 N          -8.9375  -18.9277   19.3490 N.3     1  UNL1       -0.2961
     14 H          -9.0517  -17.9632   19.6605 H       1  UNL1        0.1233
     15 O          -9.3434  -17.2936   21.5821 O.3     1  UNL1       -0.4748
     16 C         -10.4474  -17.7275   22.5004 C.ar    1  UNL1        0.1348
     17 C         -10.1413  -18.6003   23.6812 C.ar    1  UNL1        0.0366
     18 C         -11.2452  -19.0341   24.5994 C.ar    1  UNL1        0.0031
     19 C         -12.6553  -18.5951   24.3367 C.ar    1  UNL1       -0.0001
     20 C         -12.9614  -17.7222   23.1559 C.ar    1  UNL1       -0.0013
     21 C         -11.8574  -17.2885   22.2377 C.ar    1  UNL1        0.0121
     22 C         -12.1635  -16.4156   21.0568 C.3     1  UNL1        0.0342
@<TRIPOS>BOND
     1    12    13    1
     2    13    11    1
     3     1    11    1
     4     1     2    1
     5     2     3    1
     6     3     4    1
     7     4     5   ar
     8     5     6   ar
     9     6     7   ar
    10     7     8   ar
    11     8     9   ar
    12     9    10    1
    13    10    15    1
    14    15    16    1
    15    16    17   ar
    16    17    18   ar
    17    18    19   ar
    18    19    20   ar
    19    20    21   ar
    20    21    22    1
    21    10     1    1
    22    21    16   ar
    23     9     4   ar
    24    13    14    1
@<TRIPOS>MOLECULE
*****
 22 24 0 0 0
SMALL
GASTEIGER

@<TRIPOS>ATOM
      1 C          -6.7875  -16.0700   23.5897 C.3     1  UNL1        0.1038
      2 C          -5.3541  -16.4308   23.8450 C.3     1  UNL1        0.2106
      3 O          -4.7439  -17.6138   23.1536 O.3     1  UNL1       -0.4755
      4 C          -5.5671  -18.4361   22.2068 C.ar    1  UNL1        0.1379
      5 C          -4.9569  -19.6190   21.5153 C.ar    1  UNL1        0.0367
      6 C          -5.7801  -20.4412   20.5686 C.ar    1  UNL1        0.0031
      7 C          -7.2134  -20.0803   20.3132 C.ar    1  UNL1       -0.0000
      8 C          -7.8236  -18.8973   21.0046 C.ar    1  UNL1        0.0022
      9 C          -7.0005  -18.0752   21.9514 C.ar    1  UNL1        0.0513
     10 C          -7.6107  -16.8921   22.6429 C.3     1  UNL1        0.1959
     11 C          -7.3977  -14.8869   24.2812 C.3     1  UNL1        0.0763
     12 C          -8.0890  -15.7643   26.6268 C.3     1  UNL1        0.0859
     13 N          -8.4460  -15.0922   25.3343 N.3     1  UNL1       -0.2961
     14 H          -8.8085  -14.1691   25.5727 H       1  UNL1        0.1233
     15 O          -9.0441  -16.5313   22.3875 O.3     1  UNL1       -0.4748
     16 C         -10.1417  -17.2832   23.0804 C.ar    1  UNL1        0.1348
     17 C          -9.8126  -18.2369   24.1904 C.ar    1  UNL1        0.0366
     18 C         -10.9102  -18.9887   24.8832 C.ar    1  UNL1        0.0031
     19 C         -12.3368  -18.7869   24.4660 C.ar    1  UNL1       -0.0001
     20 C         -12.6658  -17.8332   23.3560 C.ar    1  UNL1       -0.0013
     21 C         -11.5683  -17.0814   22.6632 C.ar    1  UNL1        0.0121
     22 C         -11.8973  -16.1277   21.5531 C.3     1  UNL1        0.0342
@<TRIPOS>BOND
     1    12    13    1
     2    13    11    1
     3     1    11    1
     4     1     2    1
     5     2     3    1
     6     3     4    1
     7     4     5   ar
     8     5     6   ar
     9     6     7   ar
    10     7     8   ar
    11     8     9   ar
    12     9    10    1
    13    10    15    1
    14    15    16    1
    15    16    17   ar
    16    17    18   ar
    17    18    19   ar
    18    19    20   ar
    19    20    21   ar
    20    21    22    1
    21    10     1    1
    22    21    16   ar
    23     9     4   ar
    24    13    14    1
@<TRIPOS>MOLECULE
*****
 22 24 0 0 0
SMALL
GASTEIGER

@<TRIPOS>ATOM
      1 C          -6.7937  -16.3915   23.8759 C.3     1  UNL1        0.1038
      2 C          -5.3308  -16.0824   23.7558 C.3     1  UNL1        0.2106
      3 O          -4.4401  -16.9743   22.9427 O.3     1  UNL1       -0.4755
      4 C          -5.0123  -18.1753   22.2496 C.ar    1  UNL1        0.1379
      5 C          -4.1216  -19.0672   21.4365 C.ar    1  UNL1        0.0367
      6 C          -4.6938  -20.2681   20.7436 C.ar    1  UNL1        0.0031
      7 C          -6.1567  -20.5772   20.8637 C.ar    1  UNL1       -0.0000
      8 C          -7.0474  -19.6854   21.6768 C.ar    1  UNL1        0.0022
      9 C          -6.4752  -18.4844   22.3698 C.ar    1  UNL1        0.0513
     10 C          -7.3659  -17.5925   23.1830 C.3     1  UNL1        0.1959
     11 C          -7.6844  -15.4996   24.6891 C.3     1  UNL1        0.0763
     12 C          -8.1272  -16.1955   27.1527 C.3     1  UNL1        0.0859
     13 N          -8.5891  -16.0903   25.7295 N.3     1  UNL1       -0.2961
     14 H          -9.4382  -15.5251   25.7366 H       1  UNL1        0.1233
     15 O          -8.8288  -17.9016   23.3031 O.3     1  UNL1       -0.4748
     16 C          -9.7723  -17.5015   22.2077 C.ar    1  UNL1        0.1348
     17 C          -9.7677  -16.0933   21.6910 C.ar    1  UNL1        0.0366
     18 C         -10.7112  -15.6933   20.5957 C.ar    1  UNL1        0.0031
     19 C         -11.6593  -16.7015   20.0171 C.ar    1  UNL1       -0.0001
     20 C         -11.6639  -18.1096   20.5338 C.ar    1  UNL1       -0.0013
     21 C         -10.7204  -18.5096   21.6291 C.ar    1  UNL1        0.0121
     22 C         -10.7250  -19.9178   22.1459 C.3     1  UNL1        0.0342
@<TRIPOS>BOND
     1    12    13    1
     2    13    11    1
     3     1    11    1
     4     1     2    1
     5     2     3    1
     6     3     4    1
     7     4     5   ar
     8     5     6   ar
     9     6     7   ar
    10     7     8   ar
    11     8     9   ar
    12     9    10    1
    13    10    15    1
    14    15    16    1
    15    16    17   ar
    16    17    18   ar
    17    18    19   ar
    18    19    20   ar
    19    20    21   ar
    20    21    22    1
    21    10     1    1
    22    21    16   ar
    23     9     4   ar
    24    13    14    1
@<TRIPOS>MOLECULE
*****
 22 24 0 0 0
SMALL
GASTEIGER

@<TRIPOS>ATOM
      1 C          -9.5881  -17.3540   21.7677 C.3     1  UNL1        0.1038
      2 C          -9.9679  -18.6223   21.0625 C.3     1  UNL1        0.2106
      3 O          -8.9335  -19.6788   20.8103 O.3     1  UNL1       -0.4755
      4 C          -7.5192  -19.4671   21.2633 C.ar    1  UNL1        0.1379
      5 C          -6.4848  -20.5237   21.0111 C.ar    1  UNL1        0.0367
      6 C          -5.0707  -20.3120   21.4640 C.ar    1  UNL1        0.0031
      7 C          -4.6909  -19.0437   22.1691 C.ar    1  UNL1       -0.0000
      8 C          -5.7253  -17.9871   22.4213 C.ar    1  UNL1        0.0022
      9 C          -7.1394  -18.1988   21.9684 C.ar    1  UNL1        0.0513
     10 C          -8.1739  -17.1422   22.2206 C.3     1  UNL1        0.1959
     11 C         -10.6226  -16.2974   22.0199 C.3     1  UNL1        0.0763
     12 C         -11.5903  -15.8237   19.6557 C.3     1  UNL1        0.0859
     13 N         -11.8008  -16.1668   21.1007 N.3     1  UNL1       -0.2961
     14 H         -12.2919  -17.0605   21.1226 H       1  UNL1        0.1233
     15 O          -7.7941  -15.8740   22.9257 O.3     1  UNL1       -0.4748
     16 C          -7.5561  -15.8816   24.4067 C.ar    1  UNL1        0.1348
     17 C          -8.6621  -16.2709   25.3421 C.ar    1  UNL1        0.0366
     18 C          -8.4240  -16.2786   26.8231 C.ar    1  UNL1        0.0031
     19 C          -7.0799  -15.8969   27.3686 C.ar    1  UNL1       -0.0001
     20 C          -5.9738  -15.5077   26.4332 C.ar    1  UNL1       -0.0013
     21 C          -6.2119  -15.5000   24.9523 C.ar    1  UNL1        0.0121
     22 C          -5.1058  -15.1107   24.0168 C.3     1  UNL1        0.0342
@<TRIPOS>BOND
     1    12    13    1
     2    13    11    1
     3     1    11    1
     4     1     2    1
     5     2     3    1
     6     3     4    1
     7     4     5   ar
     8     5     6   ar
     9     6     7   ar
    10     7     8   ar
    11     8     9   ar
    12     9    10    1
    13    10    15    1
    14    15    16    1
    15    16    17   ar
    16    17    18   ar
    17    18    19   ar
    18    19    20   ar
    19    20    21   ar
    20    21    22    1
    21    10     1    1
    22    21    16   ar
    23     9     4   ar
    24    13    14    1
@<TRIPOS>MOLECULE
*****
 22 24 0 0 0
SMALL
GASTEIGER

@<TRIPOS>ATOM
      1 C          -7.2259  -16.7007   23.4301 C.3     1  UNL1        0.1038
      2 C          -6.3220  -15.5126   23.5763 C.3     1  UNL1        0.2106
      3 O          -4.8551  -15.6469   23.2931 O.3     1  UNL1       -0.4755
      4 C          -4.2921  -16.9694   22.8638 C.ar    1  UNL1        0.1379
      5 C          -2.8253  -17.1037   22.5807 C.ar    1  UNL1        0.0367
      6 C          -2.2623  -18.4261   22.1514 C.ar    1  UNL1        0.0031
      7 C          -3.1663  -19.6142   22.0052 C.ar    1  UNL1       -0.0000
      8 C          -4.6331  -19.4799   22.2884 C.ar    1  UNL1        0.0022
      9 C          -5.1961  -18.1575   22.7177 C.ar    1  UNL1        0.0513
     10 C          -6.6630  -18.0231   23.0008 C.3     1  UNL1        0.1959
     11 C          -8.6929  -16.5664   23.7133 C.3     1  UNL1        0.0763
     12 C         -11.0752  -16.2302   22.7328 C.3     1  UNL1        0.0859
     13 N          -9.6015  -15.9542   22.6888 N.3     1  UNL1       -0.2961
     14 H          -9.4889  -14.9431   22.7620 H       1  UNL1        0.1233
     15 O          -7.5669  -19.2112   22.8547 O.3     1  UNL1       -0.4748
     16 C          -8.4047  -19.3689   21.6204 C.ar    1  UNL1        0.1348
     17 C          -7.7699  -19.2679   20.2652 C.ar    1  UNL1        0.0366
     18 C          -8.6076  -19.4255   19.0310 C.ar    1  UNL1        0.0031
     19 C         -10.0802  -19.6842   19.1520 C.ar    1  UNL1       -0.0001
     20 C         -10.7150  -19.7853   20.5073 C.ar    1  UNL1       -0.0013
     21 C          -9.8772  -19.6276   21.7415 C.ar    1  UNL1        0.0121
     22 C         -10.5120  -19.7286   23.0968 C.3     1  UNL1        0.0342
@<TRIPOS>BOND
     1    12    13    1
     2    13    11    1
     3     1    11    1
     4     1     2    1
     5     2     3    1
     6     3     4    1
     7     4     5   ar
     8     5     6   ar
     9     6     7   ar
    10     7     8   ar
    11     8     9   ar
    12     9    10    1
    13    10    15    1
    14    15    16    1
    15    16    17   ar
    16    17    18   ar
    17    18    19   ar
    18    19    20   ar
    19    20    21   ar
    20    21    22    1
    21    10     1    1
    22    21    16   ar
    23     9     4   ar
    24    13    14    1
@<TRIPOS>MOLECULE
*****
 22 24 0 0 0
SMALL
GASTEIGER

@<TRIPOS>ATOM
      1 C          -7.4812  -18.7452   22.0242 C.3     1  UNL1        0.1038
      2 C          -7.0434  -20.1093   21.5797 C.3     1  UNL1        0.2106
      3 O          -5.5832  -20.4486   21.5280 O.3     1  UNL1       -0.4755
      4 C          -4.5607  -19.4237   21.9208 C.ar    1  UNL1        0.1379
      5 C          -3.1005  -19.7629   21.8691 C.ar    1  UNL1        0.0367
      6 C          -2.0781  -18.7381   22.2619 C.ar    1  UNL1        0.0031
      7 C          -2.5159  -17.3740   22.7064 C.ar    1  UNL1       -0.0000
      8 C          -3.9761  -17.0347   22.7581 C.ar    1  UNL1        0.0022
      9 C          -4.9985  -18.0596   22.3653 C.ar    1  UNL1        0.0513
     10 C          -6.4588  -17.7204   22.4170 C.3     1  UNL1        0.1959
     11 C          -8.9415  -18.4060   22.0759 C.3     1  UNL1        0.0763
     12 C         -10.9936  -17.1489   21.0970 C.3     1  UNL1        0.0859
     13 N          -9.5213  -17.4355   21.0900 N.3     1  UNL1       -0.2961
     14 H          -9.0473  -16.5449   21.2399 H       1  UNL1        0.1233
     15 O          -6.8966  -16.3563   22.8615 O.3     1  UNL1       -0.4748
     16 C          -6.9056  -16.0101   24.3210 C.ar    1  UNL1        0.1348
     17 C          -5.6153  -15.7345   25.0344 C.ar    1  UNL1        0.0366
     18 C          -5.6244  -15.3883   26.4939 C.ar    1  UNL1        0.0031
     19 C          -6.9239  -15.3177   27.2399 C.ar    1  UNL1       -0.0001
     20 C          -8.2142  -15.5932   26.5264 C.ar    1  UNL1       -0.0013
     21 C          -8.2051  -15.9394   25.0670 C.ar    1  UNL1        0.0121
     22 C          -9.4955  -16.2150   24.3534 C.3     1  UNL1        0.0342
@<TRIPOS>BOND
     1    12    13    1
     2    13    11    1
     3     1    11    1
     4     1     2    1
     5     2     3    1
     6     3     4    1
     7     4     5   ar
     8     5     6   ar
     9     6     7   ar
    10     7     8   ar
    11     8     9   ar
    12     9    10    1
    13    10    15    1
    14    15    16    1
    15    16    17   ar
    16    17    18   ar
    17    18    19   ar
    18    19    20   ar
    19    20    21   ar
    20    21    22    1
    21    10     1    1
    22    21    16   ar
    23     9     4   ar
    24    13    14    1
@<TRIPOS>MOLECULE
*****
 22 24 0 0 0
SMALL
GASTEIGER

@<TRIPOS>ATOM
      1 C          -6.7995  -16.7371   22.9156 C.3     1  UNL1        0.1038
      2 C          -5.6680  -16.2261   23.7573 C.3     1  UNL1        0.2106
      3 O          -4.3073  -16.8466   23.6414 O.3     1  UNL1       -0.4755
      4 C          -4.0781  -17.9781   22.6836 C.ar    1  UNL1        0.1379
      5 C          -2.7174  -18.5985   22.5676 C.ar    1  UNL1        0.0367
      6 C          -2.4882  -19.7299   21.6099 C.ar    1  UNL1        0.0031
      7 C          -3.6198  -20.2409   20.7681 C.ar    1  UNL1       -0.0000
      8 C          -4.9805  -19.6205   20.8841 C.ar    1  UNL1        0.0022
      9 C          -5.2096  -18.4890   21.8418 C.ar    1  UNL1        0.0513
     10 C          -6.5704  -17.8685   21.9578 C.3     1  UNL1        0.1959
     11 C          -8.1603  -16.1165   23.0316 C.3     1  UNL1        0.0763
     12 C         -10.2882  -15.8010   21.5748 C.3     1  UNL1        0.0859
     13 N          -8.8302  -15.5455   21.8170 N.3     1  UNL1       -0.2961
     14 H          -8.7125  -14.5334   21.8643 H       1  UNL1        0.1233
     15 O          -7.7019  -18.3795   21.1161 O.3     1  UNL1       -0.4748
     16 C          -8.8274  -19.1390   21.7536 C.ar    1  UNL1        0.1348
     17 C          -8.6886  -19.6469   23.1582 C.ar    1  UNL1        0.0366
     18 C          -9.8141  -20.4064   23.7956 C.ar    1  UNL1        0.0031
     19 C         -11.0783  -20.6581   23.0285 C.ar    1  UNL1       -0.0001
     20 C         -11.2171  -20.1502   21.6240 C.ar    1  UNL1       -0.0013
     21 C         -10.0916  -19.3907   20.9865 C.ar    1  UNL1        0.0121
     22 C         -10.2303  -18.8828   19.5819 C.3     1  UNL1        0.0342
@<TRIPOS>BOND
     1    12    13    1
     2    13    11    1
     3     1    11    1
     4     1     2    1
     5     2     3    1
     6     3     4    1
     7     4     5   ar
     8     5     6   ar
     9     6     7   ar
    10     7     8   ar
    11     8     9   ar
    12     9    10    1
    13    10    15    1
    14    15    16    1
    15    16    17   ar
    16    17    18   ar
    17    18    19   ar
    18    19    20   ar
    19    20    21   ar
    20    21    22    1
    21    10     1    1
    22    21    16   ar
    23     9     4   ar
    24    13    14    1
@<TRIPOS>MOLECULE
*****
 22 24 0 0 0
SMALL
GASTEIGER

@<TRIPOS>ATOM
      1 C          -7.4613  -16.8802   22.8934 C.3     1  UNL1        0.1038
      2 C          -6.0905  -16.6150   23.4417 C.3     1  UNL1        0.2106
      3 O          -4.9353  -17.4744   23.0211 O.3     1  UNL1       -0.4755
      4 C          -5.1509  -18.5990   22.0521 C.ar    1  UNL1        0.1379
      5 C          -3.9957  -19.4584   21.6315 C.ar    1  UNL1        0.0367
      6 C          -4.2113  -20.5829   20.6626 C.ar    1  UNL1        0.0031
      7 C          -5.5821  -20.8481   20.1143 C.ar    1  UNL1       -0.0000
      8 C          -6.7373  -19.9887   20.5349 C.ar    1  UNL1        0.0022
      9 C          -6.5217  -18.8642   21.5038 C.ar    1  UNL1        0.0513
     10 C          -7.6769  -18.0048   21.9245 C.3     1  UNL1        0.1959
     11 C          -8.6165  -16.0208   23.3141 C.3     1  UNL1        0.0763
     12 C          -8.4762  -15.4878   25.8530 C.3     1  UNL1        0.0859
     13 N          -8.4469  -15.0279   24.4256 N.3     1  UNL1       -0.2961
     14 H          -7.5446  -14.5749   24.2807 H       1  UNL1        0.1233
     15 O          -9.0477  -18.2699   21.3762 O.3     1  UNL1       -0.4748
     16 C         -10.2297  -18.3097   22.2989 C.ar    1  UNL1        0.1348
     17 C         -11.3649  -17.3485   22.1053 C.ar    1  UNL1        0.0366
     18 C         -12.5469  -17.3883   23.0279 C.ar    1  UNL1        0.0031
     19 C         -12.5937  -18.3892   24.1441 C.ar    1  UNL1       -0.0001
     20 C         -11.4585  -19.3504   24.3377 C.ar    1  UNL1       -0.0013
     21 C         -10.2765  -19.3106   23.4151 C.ar    1  UNL1        0.0121
     22 C          -9.1413  -20.2718   23.6086 C.3     1  UNL1        0.0342
@<TRIPOS>BOND
     1    12    13    1
     2    13    11    1
     3     1    11    1
     4     1     2    1
     5     2     3    1
     6     3     4    1
     7     4     5   ar
     8     5     6   ar
     9     6     7   ar
    10     7     8   ar
    11     8     9   ar
    12     9    10    1
    13    10    15    1
    14    15    16    1
    15    16    17   ar
    16    17    18   ar
    17    18    19   ar
    18    19    20   ar
    19    20    21   ar
    20    21    22    1
    21    10     1    1
    22    21    16   ar
    23     9     4   ar
    24    13    14    1
