@<TRIPOS>MOLECULE
*****
 39 45 0 0 0
SMALL
GASTEIGER

@<TRIPOS>ATOM
      1 C           5.1224   -1.5053   33.2445 C.ar    1  UNL1        0.0146
      2 C           5.5414   -0.9960   34.5917 C.ar    1  UNL1       -0.0011
      3 C           4.9052    0.2388   35.1578 C.ar    1  UNL1        0.0014
      4 C           3.8499    0.9642   34.3767 C.ar    1  UNL1        0.0206
      5 C           3.4308    0.4549   33.0295 C.ar    1  UNL1        0.0989
      6 C           4.0671   -0.7799   32.4634 C.ar    1  UNL1        0.1511
      7 O           3.6481   -1.2893   31.1162 O.3     1  UNL1       -0.4678
      8 C           2.5928   -0.5638   30.3351 C.3     1  UNL1        0.2510
      9 C           1.9565    0.6710   30.9012 C.ar    1  UNL1        0.1087
     10 C           0.8983    1.5899   30.3668 C.ar    1  UNL1        0.1516
     11 N           0.6633    2.6672   31.3838 N.ar    1  UNL1       -0.2192
     12 C           1.5763    2.4141   32.5467 C.ar    1  UNL1        0.1828
     13 N           2.3756    1.1803   32.2484 N.ar    1  UNL1       -0.2851
     14 C           0.1980    1.4552   29.0472 C.2     1  UNL1        0.2648
     15 O          -1.0851    0.6840   28.9543 O.2     1  UNL1       -0.2684
     16 N           0.7809    2.0919   27.8204 N.am    1  UNL1       -0.3012
     17 H           1.6231    2.5981   27.8814 H       1  UNL1        0.1497
     18 C           0.0806    1.9572   26.5008 C.3     1  UNL1        0.0720
     19 C          -1.0394    2.3401   25.5794 C.3     1  UNL1        0.0213
     20 C          -0.0122    1.3408   25.1363 C.3     1  UNL1        0.0213
     21 C           5.7586   -2.7402   32.6784 C.3     1  UNL1        0.0468
     22 C           7.0954   -2.6530   32.0035 C.3     1  UNL1        0.0770
     23 N           7.8680   -4.9833   28.2322 N.pl3   1  UNL1       -0.3046
     24 C           8.5778   -3.6833   28.4692 C.3     1  UNL1        0.1081
     25 C           8.3203   -2.9065   29.7264 C.3     1  UNL1        0.0938
     26 N           7.3529   -3.4298   30.7464 N.3     1  UNL1       -0.2695
     27 C           6.6431   -4.7298   30.5093 C.3     1  UNL1        0.0938
     28 C           6.9006   -5.5065   29.2522 C.3     1  UNL1        0.1081
     29 C           6.1750   -3.6656   21.7017 C.3     1  UNL1        0.0521
     30 C           6.6626   -4.1892   23.0200 C.ar    1  UNL1        0.0593
     31 C           6.4051   -3.4125   24.2771 C.ar    1  UNL1        0.0148
     32 C           6.8927   -3.9361   25.5955 C.ar    1  UNL1        0.0039
     33 C           7.6379   -5.2364   25.6567 C.ar    1  UNL1        0.0310
     34 C           8.1255   -5.7600   26.9751 C.ar    1  UNL1        0.0493
     35 C           8.8708   -7.0604   27.0363 C.ar    1  UNL1        0.0146
     36 C           9.1283   -7.8371   25.7792 C.ar    1  UNL1        0.0028
     37 C           8.6407   -7.3135   24.4609 C.ar    1  UNL1        0.0192
     38 C           7.8955   -6.0132   24.3996 C.ar    1  UNL1        0.0821
     39 N           7.4078   -5.4896   23.0813 N.ar    1  UNL1       -0.2496
@<TRIPOS>BOND
     1    29    30    1
     2    30    31   ar
     3    31    32   ar
     4    32    33   ar
     5    33    34   ar
     6    34    23    1
     7    23    24    1
     8    24    25    1
     9    25    26    1
    10    26    22    1
    11    22    21    1
    12    21     1    1
    13     1     2   ar
    14     2     3   ar
    15     3     4   ar
    16     4     5   ar
    17     5     6   ar
    18     6     7    1
    19     7     8    1
    20     8     9    1
    21     9    10   ar
    22    10    14    1
    23    14    15    2
    24    14    16   am
    25    16    18    1
    26    18    19    1
    27    19    20    1
    28    10    11   ar
    29    11    12   ar
    30    12    13   ar
    31    26    27    1
    32    27    28    1
    33    34    35   ar
    34    35    36   ar
    35    36    37   ar
    36    37    38   ar
    37    38    39   ar
    38    39    30   ar
    39    38    33   ar
    40    28    23    1
    41     6     1   ar
    42    13     9   ar
    43    13     5    1
    44    20    18    1
    45    16    17    1
@<TRIPOS>MOLECULE
*****
 39 45 0 0 0
SMALL
GASTEIGER

@<TRIPOS>ATOM
      1 C           6.2285   -1.6744   32.1888 C.ar    1  UNL1        0.0146
      2 C           5.4831   -1.4925   33.4777 C.ar    1  UNL1       -0.0011
      3 C           4.0901   -0.9363   33.4663 C.ar    1  UNL1        0.0014
      4 C           3.4426   -0.5619   32.1661 C.ar    1  UNL1        0.0206
      5 C           4.1880   -0.7438   30.8773 C.ar    1  UNL1        0.0989
      6 C           5.5810   -1.3000   30.8886 C.ar    1  UNL1        0.1511
      7 O           6.3265   -1.4819   29.5997 O.3     1  UNL1       -0.4678
      8 C           5.6790   -1.1075   28.2995 C.3     1  UNL1        0.2510
      9 C           4.2860   -0.5512   28.2882 C.ar    1  UNL1        0.1087
     10 C           3.3959   -0.0965   27.1698 C.ar    1  UNL1        0.1516
     11 N           2.1004    0.3665   27.7674 N.ar    1  UNL1       -0.2192
     12 C           2.1897    0.1978   29.2552 C.ar    1  UNL1        0.1828
     13 N           3.5405   -0.3694   29.5771 N.ar    1  UNL1       -0.2851
     14 C           3.7409   -0.1034   25.7100 C.2     1  UNL1        0.2648
     15 O           5.1072    0.3218   25.2601 O.2     1  UNL1       -0.2684
     16 N           2.7194   -0.5356   24.7001 N.am    1  UNL1       -0.3012
     17 H           1.8227   -0.8147   24.9953 H       1  UNL1        0.1497
     18 C           3.0644   -0.5426   23.2403 C.3     1  UNL1        0.0720
     19 C           4.0139   -0.2083   22.1282 C.3     1  UNL1        0.0213
     20 C           2.7123   -0.8890   21.8238 C.3     1  UNL1        0.0213
     21 C           7.6216   -2.2306   32.2002 C.3     1  UNL1        0.0468
     22 C           7.8420   -3.7046   32.0302 C.3     1  UNL1        0.0770
     23 N           8.2933   -5.4516   27.9078 N.pl3   1  UNL1       -0.3046
     24 C           9.3221   -4.4952   28.4338 C.3     1  UNL1        0.1081
     25 C           9.1717   -3.9128   29.8080 C.3     1  UNL1        0.0938
     26 N           7.9924   -4.2869   30.6561 N.3     1  UNL1       -0.2695
     27 C           6.9635   -5.2433   30.1300 C.3     1  UNL1        0.0938
     28 C           7.1139   -5.8256   28.7559 C.3     1  UNL1        0.1081
     29 C           5.8641   -3.3389   21.8344 C.3     1  UNL1        0.0521
     30 C           6.5090   -4.0127   23.0092 C.ar    1  UNL1        0.0593
     31 C           6.3586   -3.4304   24.3833 C.ar    1  UNL1        0.0148
     32 C           7.0035   -4.1041   25.5581 C.ar    1  UNL1        0.0039
     33 C           7.7988   -5.3601   25.3588 C.ar    1  UNL1        0.0310
     34 C           8.4437   -6.0339   26.5336 C.ar    1  UNL1        0.0493
     35 C           9.2391   -7.2900   26.3343 C.ar    1  UNL1        0.0146
     36 C           9.3895   -7.8723   24.9602 C.ar    1  UNL1        0.0028
     37 C           8.7446   -7.1985   23.7853 C.ar    1  UNL1        0.0192
     38 C           7.9493   -5.9425   23.9846 C.ar    1  UNL1        0.0821
     39 N           7.3044   -5.2688   22.8098 N.ar    1  UNL1       -0.2496
@<TRIPOS>BOND
     1    29    30    1
     2    30    31   ar
     3    31    32   ar
     4    32    33   ar
     5    33    34   ar
     6    34    23    1
     7    23    24    1
     8    24    25    1
     9    25    26    1
    10    26    22    1
    11    22    21    1
    12    21     1    1
    13     1     2   ar
    14     2     3   ar
    15     3     4   ar
    16     4     5   ar
    17     5     6   ar
    18     6     7    1
    19     7     8    1
    20     8     9    1
    21     9    10   ar
    22    10    14    1
    23    14    15    2
    24    14    16   am
    25    16    18    1
    26    18    19    1
    27    19    20    1
    28    10    11   ar
    29    11    12   ar
    30    12    13   ar
    31    26    27    1
    32    27    28    1
    33    34    35   ar
    34    35    36   ar
    35    36    37   ar
    36    37    38   ar
    37    38    39   ar
    38    39    30   ar
    39    38    33   ar
    40    28    23    1
    41     6     1   ar
    42    13     9   ar
    43    13     5    1
    44    20    18    1
    45    16    17    1
@<TRIPOS>MOLECULE
*****
 39 45 0 0 0
SMALL
GASTEIGER

@<TRIPOS>ATOM
      1 C           8.6029   -5.1812   23.4462 C.ar    1  UNL1        0.0146
      2 C           9.0792   -6.5146   22.9511 C.ar    1  UNL1       -0.0011
      3 C           9.1958   -7.6694   23.9012 C.ar    1  UNL1        0.0014
      4 C           8.8361   -7.4907   25.3465 C.ar    1  UNL1        0.0206
      5 C           8.3599   -6.1573   25.8416 C.ar    1  UNL1        0.0989
      6 C           8.2433   -5.0026   24.8914 C.ar    1  UNL1        0.1511
      7 O           7.7670   -3.6691   25.3865 O.3     1  UNL1       -0.4678
      8 C           7.4073   -3.4904   26.8318 C.3     1  UNL1        0.2510
      9 C           7.5240   -4.6453   27.7819 C.ar    1  UNL1        0.1087
     10 C           7.2433   -4.7692   29.2502 C.ar    1  UNL1        0.1516
     11 N           7.5461   -6.1793   29.6625 N.ar    1  UNL1       -0.2192
     12 C           8.0139   -6.9268   28.4491 C.ar    1  UNL1        0.1828
     13 N           8.0002   -5.9787   27.2868 N.ar    1  UNL1       -0.2851
     14 C           6.7470   -3.6752   30.1484 C.2     1  UNL1        0.2648
     15 O           6.7437   -2.2542   29.6683 O.2     1  UNL1       -0.2684
     16 N           6.2539   -4.0024   31.5268 N.am    1  UNL1       -0.3012
     17 H           6.2561   -4.9351   31.8419 H       1  UNL1        0.1497
     18 C           5.7576   -2.9084   32.4250 C.3     1  UNL1        0.0720
     19 C           5.9926   -1.6175   33.1521 C.3     1  UNL1        0.0213
     20 C           4.6629   -2.3042   33.2537 C.3     1  UNL1        0.0213
     21 C           8.4863   -4.0263   22.4960 C.3     1  UNL1        0.0468
     22 C           7.6933   -4.1728   21.2312 C.3     1  UNL1        0.0770
     23 N           4.1916   -1.4584   20.4438 N.pl3   1  UNL1       -0.3046
     24 C           5.5606   -0.8782   20.6418 C.3     1  UNL1        0.1081
     25 C           6.7279   -1.7830   20.9043 C.3     1  UNL1        0.0938
     26 N           6.5261   -3.2680   20.9688 N.3     1  UNL1       -0.2695
     27 C           5.1570   -3.8482   20.7708 C.3     1  UNL1        0.0938
     28 C           3.9898   -2.9434   20.5084 C.3     1  UNL1        0.1081
     29 C           0.0268    1.8844   24.7716 C.3     1  UNL1        0.0521
     30 C           0.7762    1.2749   23.6241 C.ar    1  UNL1        0.0593
     31 C           1.9434    0.3701   23.8865 C.ar    1  UNL1        0.0148
     32 C           2.6928   -0.2394   22.7390 C.ar    1  UNL1        0.0039
     33 C           2.2750    0.0559   21.3290 C.ar    1  UNL1        0.0310
     34 C           3.0244   -0.5536   20.1814 C.ar    1  UNL1        0.0493
     35 C           2.6065   -0.2583   18.7713 C.ar    1  UNL1        0.0146
     36 C           1.4393    0.6465   18.5089 C.ar    1  UNL1        0.0028
     37 C           0.6899    1.2560   19.6564 C.ar    1  UNL1        0.0192
     38 C           1.1077    0.9607   21.0664 C.ar    1  UNL1        0.0821
     39 N           0.3583    1.5702   22.2140 N.ar    1  UNL1       -0.2496
@<TRIPOS>BOND
     1    29    30    1
     2    30    31   ar
     3    31    32   ar
     4    32    33   ar
     5    33    34   ar
     6    34    23    1
     7    23    24    1
     8    24    25    1
     9    25    26    1
    10    26    22    1
    11    22    21    1
    12    21     1    1
    13     1     2   ar
    14     2     3   ar
    15     3     4   ar
    16     4     5   ar
    17     5     6   ar
    18     6     7    1
    19     7     8    1
    20     8     9    1
    21     9    10   ar
    22    10    14    1
    23    14    15    2
    24    14    16   am
    25    16    18    1
    26    18    19    1
    27    19    20    1
    28    10    11   ar
    29    11    12   ar
    30    12    13   ar
    31    26    27    1
    32    27    28    1
    33    34    35   ar
    34    35    36   ar
    35    36    37   ar
    36    37    38   ar
    37    38    39   ar
    38    39    30   ar
    39    38    33   ar
    40    28    23    1
    41     6     1   ar
    42    13     9   ar
    43    13     5    1
    44    20    18    1
    45    16    17    1
@<TRIPOS>MOLECULE
*****
 39 45 0 0 0
SMALL
GASTEIGER

@<TRIPOS>ATOM
      1 C          -0.8129    3.3342   23.6687 C.ar    1  UNL1        0.0146
      2 C          -2.2020    3.8305   23.9406 C.ar    1  UNL1       -0.0011
      3 C          -2.8408    3.5786   25.2742 C.ar    1  UNL1        0.0014
      4 C          -2.0904    2.8305   26.3359 C.ar    1  UNL1        0.0206
      5 C          -0.7013    2.3342   26.0640 C.ar    1  UNL1        0.0989
      6 C          -0.0625    2.5861   24.7304 C.ar    1  UNL1        0.1511
      7 O           1.3267    2.0898   24.4585 O.3     1  UNL1       -0.4678
      8 C           2.0770    1.3416   25.5202 C.3     1  UNL1        0.2510
      9 C           1.4382    1.0897   26.8538 C.ar    1  UNL1        0.1087
     10 C           1.9288    0.3873   28.0850 C.ar    1  UNL1        0.1516
     11 N           0.8428    0.4494   29.1178 N.ar    1  UNL1       -0.2192
     12 C          -0.3189    1.1902   28.5249 C.ar    1  UNL1        0.1828
     13 N           0.0491    1.5860   27.1257 N.ar    1  UNL1       -0.2851
     14 C           3.2698   -0.2631   28.2537 C.2     1  UNL1        0.2648
     15 O           4.1546    0.1287   29.3998 O.2     1  UNL1       -0.2684
     16 N           3.7261   -1.3055   27.2763 N.am    1  UNL1       -0.3012
     17 H           3.1454   -1.5627   26.5240 H       1  UNL1        0.1497
     18 C           5.0672   -1.9559   27.4450 C.3     1  UNL1        0.0720
     19 C           5.9179   -3.0479   28.0229 C.3     1  UNL1        0.0213
     20 C           6.5394   -1.9905   27.1593 C.3     1  UNL1        0.0213
     21 C          -0.1740    3.5861   22.3351 C.3     1  UNL1        0.0468
     22 C          -0.3870    2.6205   21.2071 C.3     1  UNL1        0.0770
     23 N           2.7112   -0.5196   20.3182 N.pl3   1  UNL1       -0.3046
     24 C           1.2528   -0.8519   20.2057 C.3     1  UNL1        0.1081
     25 C           0.2200    0.1948   20.5020 C.3     1  UNL1        0.0938
     26 N           0.6457    1.5738   20.9108 N.3     1  UNL1       -0.2695
     27 C           2.1041    1.9061   21.0233 C.3     1  UNL1        0.0938
     28 C           3.1368    0.8594   20.7270 C.3     1  UNL1        0.1081
     29 C           6.5073   -4.4133   24.5228 C.3     1  UNL1        0.0521
     30 C           5.8165   -3.7015   23.3976 C.ar    1  UNL1        0.0593
     31 C           4.7838   -2.6548   23.6939 C.ar    1  UNL1        0.0148
     32 C           4.0929   -1.9431   22.5686 C.ar    1  UNL1        0.0039
     33 C           4.4347   -2.2781   21.1471 C.ar    1  UNL1        0.0310
     34 C           3.7439   -1.5664   20.0219 C.ar    1  UNL1        0.0493
     35 C           4.0858   -1.9014   18.6002 C.ar    1  UNL1        0.0146
     36 C           5.1185   -2.9481   18.3039 C.ar    1  UNL1        0.0028
     37 C           5.8093   -3.6599   19.4291 C.ar    1  UNL1        0.0192
     38 C           5.4675   -3.3249   20.8507 C.ar    1  UNL1        0.0821
     39 N           6.1584   -4.0366   21.9759 N.ar    1  UNL1       -0.2496
@<TRIPOS>BOND
     1    29    30    1
     2    30    31   ar
     3    31    32   ar
     4    32    33   ar
     5    33    34   ar
     6    34    23    1
     7    23    24    1
     8    24    25    1
     9    25    26    1
    10    26    22    1
    11    22    21    1
    12    21     1    1
    13     1     2   ar
    14     2     3   ar
    15     3     4   ar
    16     4     5   ar
    17     5     6   ar
    18     6     7    1
    19     7     8    1
    20     8     9    1
    21     9    10   ar
    22    10    14    1
    23    14    15    2
    24    14    16   am
    25    16    18    1
    26    18    19    1
    27    19    20    1
    28    10    11   ar
    29    11    12   ar
    30    12    13   ar
    31    26    27    1
    32    27    28    1
    33    34    35   ar
    34    35    36   ar
    35    36    37   ar
    36    37    38   ar
    37    38    39   ar
    38    39    30   ar
    39    38    33   ar
    40    28    23    1
    41     6     1   ar
    42    13     9   ar
    43    13     5    1
    44    20    18    1
    45    16    17    1
@<TRIPOS>MOLECULE
*****
 39 45 0 0 0
SMALL
GASTEIGER

@<TRIPOS>ATOM
      1 C           8.2892   -6.7157   25.4627 C.ar    1  UNL1        0.0146
      2 C           9.0526   -8.0058   25.4102 C.ar    1  UNL1       -0.0011
      3 C           9.4702   -8.6825   26.6820 C.ar    1  UNL1        0.0014
      4 C           9.1244   -8.0690   28.0065 C.ar    1  UNL1        0.0206
      5 C           8.3611   -6.7789   28.0590 C.ar    1  UNL1        0.0989
      6 C           7.9435   -6.1023   26.7872 C.ar    1  UNL1        0.1511
      7 O           7.1800   -4.8121   26.8397 O.3     1  UNL1       -0.4678
      8 C           6.8342   -4.1986   28.1642 C.3     1  UNL1        0.2510
      9 C           7.2519   -4.8754   29.4361 C.ar    1  UNL1        0.1087
     10 C           7.0554   -4.5114   30.8779 C.ar    1  UNL1        0.1516
     11 N           7.6974   -5.5766   31.7164 N.ar    1  UNL1       -0.2192
     12 C           8.2906   -6.5989   30.7928 C.ar    1  UNL1        0.1828
     13 N           8.0153   -6.1655   29.3835 N.ar    1  UNL1       -0.2851
     14 C           6.3422   -3.2957   31.3910 C.2     1  UNL1        0.2648
     15 O           6.5111   -1.9775   30.6955 O.2     1  UNL1       -0.2684
     16 N           5.4600   -3.3983   32.5999 N.am    1  UNL1       -0.3012
     17 H           5.3490   -4.2634   33.0564 H       1  UNL1        0.1497
     18 C           4.7467   -2.1826   33.1131 C.3     1  UNL1        0.0720
     19 C           3.9440   -0.9419   32.8554 C.3     1  UNL1        0.0213
     20 C           4.3141   -1.3175   34.2597 C.3     1  UNL1        0.0213
     21 C           7.8716   -6.0389   24.1908 C.3     1  UNL1        0.0468
     22 C           8.6191   -4.8338   23.7021 C.3     1  UNL1        0.0770
     23 N           6.8173   -2.2034   20.5265 N.pl3   1  UNL1       -0.3046
     24 C           6.8352   -3.6924   20.3458 C.3     1  UNL1        0.1081
     25 C           7.4358   -4.5692   21.4044 C.3     1  UNL1        0.0938
     26 N           8.0185   -3.9570   22.6436 N.3     1  UNL1       -0.2695
     27 C           8.0007   -2.4680   22.8242 C.3     1  UNL1        0.0938
     28 C           7.4001   -1.5912   21.7657 C.3     1  UNL1        0.1081
     29 C           0.4832    0.3899   19.8917 C.3     1  UNL1        0.0521
     30 C           1.9166   -0.0392   19.7858 C.ar    1  UNL1        0.0593
     31 C           2.5171   -0.9160   20.8443 C.ar    1  UNL1        0.0148
     32 C           3.9505   -1.3451   20.7384 C.ar    1  UNL1        0.0039
     33 C           4.7833   -0.8975   19.5739 C.ar    1  UNL1        0.0310
     34 C           6.2167   -1.3266   19.4680 C.ar    1  UNL1        0.0493
     35 C           7.0495   -0.8790   18.3034 C.ar    1  UNL1        0.0146
     36 C           6.4489   -0.0022   17.2449 C.ar    1  UNL1        0.0028
     37 C           5.0156    0.4269   17.3508 C.ar    1  UNL1        0.0192
     38 C           4.1828   -0.0207   18.5153 C.ar    1  UNL1        0.0821
     39 N           2.7494    0.4085   18.6212 N.ar    1  UNL1       -0.2496
@<TRIPOS>BOND
     1    29    30    1
     2    30    31   ar
     3    31    32   ar
     4    32    33   ar
     5    33    34   ar
     6    34    23    1
     7    23    24    1
     8    24    25    1
     9    25    26    1
    10    26    22    1
    11    22    21    1
    12    21     1    1
    13     1     2   ar
    14     2     3   ar
    15     3     4   ar
    16     4     5   ar
    17     5     6   ar
    18     6     7    1
    19     7     8    1
    20     8     9    1
    21     9    10   ar
    22    10    14    1
    23    14    15    2
    24    14    16   am
    25    16    18    1
    26    18    19    1
    27    19    20    1
    28    10    11   ar
    29    11    12   ar
    30    12    13   ar
    31    26    27    1
    32    27    28    1
    33    34    35   ar
    34    35    36   ar
    35    36    37   ar
    36    37    38   ar
    37    38    39   ar
    38    39    30   ar
    39    38    33   ar
    40    28    23    1
    41     6     1   ar
    42    13     9   ar
    43    13     5    1
    44    20    18    1
    45    16    17    1
@<TRIPOS>MOLECULE
*****
 39 45 0 0 0
SMALL
GASTEIGER

@<TRIPOS>ATOM
      1 C           8.4277   -2.9248   28.8373 C.ar    1  UNL1        0.0146
      2 C           9.3866   -3.5952   29.7759 C.ar    1  UNL1       -0.0011
      3 C           9.0493   -3.7163   31.2324 C.ar    1  UNL1        0.0014
      4 C           7.7532   -3.1671   31.7504 C.ar    1  UNL1        0.0206
      5 C           6.7942   -2.4967   30.8118 C.ar    1  UNL1        0.0989
      6 C           7.1315   -2.3755   29.3552 C.ar    1  UNL1        0.1511
      7 O           6.1726   -1.7051   28.4166 O.3     1  UNL1       -0.4678
      8 C           4.8764   -1.1558   28.9345 C.3     1  UNL1        0.2510
      9 C           4.5392   -1.2770   30.3911 C.ar    1  UNL1        0.1087
     10 C           3.3459   -0.8348   31.1852 C.ar    1  UNL1        0.1516
     11 N           3.5674   -1.2319   32.6146 N.ar    1  UNL1       -0.2192
     12 C           4.8975   -1.9195   32.7039 C.ar    1  UNL1        0.1828
     13 N           5.4981   -1.9474   31.3297 N.ar    1  UNL1       -0.2851
     14 C           2.1425   -0.1208   30.6448 C.2     1  UNL1        0.2648
     15 O           1.6353    1.1155   31.3259 O.2     1  UNL1       -0.2684
     16 N           1.4464   -0.6433   29.4231 N.am    1  UNL1       -0.3012
     17 H           1.7793   -1.4548   28.9760 H       1  UNL1        0.1497
     18 C           0.2430    0.0707   28.8827 C.3     1  UNL1        0.0720
     19 C          -1.2469    0.2178   28.7888 C.3     1  UNL1        0.0213
     20 C          -0.3516    1.1603   28.0404 C.3     1  UNL1        0.0213
     21 C           8.7649   -2.8036   27.3807 C.3     1  UNL1        0.0468
     22 C           8.3560   -3.8839   26.4238 C.3     1  UNL1        0.0770
     23 N           6.9215   -2.8092   22.2962 N.pl3   1  UNL1       -0.3046
     24 C           6.7645   -4.2122   22.8031 C.3     1  UNL1        0.1081
     25 C           7.2427   -4.5705   24.1790 C.3     1  UNL1        0.0938
     26 N           7.8779   -3.5257   25.0480 N.3     1  UNL1       -0.2695
     27 C           8.0348   -2.1227   24.5410 C.3     1  UNL1        0.0938
     28 C           7.5566   -1.7644   23.1652 C.3     1  UNL1        0.1081
     29 C           0.9252   -0.2256   20.1470 C.3     1  UNL1        0.0521
     30 C           2.3047   -0.7819   20.3403 C.ar    1  UNL1        0.0593
     31 C           2.7829   -1.1401   21.7162 C.ar    1  UNL1        0.0148
     32 C           4.1624   -1.6965   21.9095 C.ar    1  UNL1        0.0039
     33 C           5.0638   -1.8946   20.7270 C.ar    1  UNL1        0.0310
     34 C           6.4433   -2.4509   20.9204 C.ar    1  UNL1        0.0493
     35 C           7.3446   -2.6490   19.7378 C.ar    1  UNL1        0.0146
     36 C           6.8665   -2.2908   18.3620 C.ar    1  UNL1        0.0028
     37 C           5.4869   -1.7345   18.1686 C.ar    1  UNL1        0.0192
     38 C           4.5856   -1.5364   19.3511 C.ar    1  UNL1        0.0821
     39 N           3.2061   -0.9800   19.1578 N.ar    1  UNL1       -0.2496
@<TRIPOS>BOND
     1    29    30    1
     2    30    31   ar
     3    31    32   ar
     4    32    33   ar
     5    33    34   ar
     6    34    23    1
     7    23    24    1
     8    24    25    1
     9    25    26    1
    10    26    22    1
    11    22    21    1
    12    21     1    1
    13     1     2   ar
    14     2     3   ar
    15     3     4   ar
    16     4     5   ar
    17     5     6   ar
    18     6     7    1
    19     7     8    1
    20     8     9    1
    21     9    10   ar
    22    10    14    1
    23    14    15    2
    24    14    16   am
    25    16    18    1
    26    18    19    1
    27    19    20    1
    28    10    11   ar
    29    11    12   ar
    30    12    13   ar
    31    26    27    1
    32    27    28    1
    33    34    35   ar
    34    35    36   ar
    35    36    37   ar
    36    37    38   ar
    37    38    39   ar
    38    39    30   ar
    39    38    33   ar
    40    28    23    1
    41     6     1   ar
    42    13     9   ar
    43    13     5    1
    44    20    18    1
    45    16    17    1
@<TRIPOS>MOLECULE
*****
 39 45 0 0 0
SMALL
GASTEIGER

@<TRIPOS>ATOM
      1 C           1.7435    0.6622   22.7232 C.ar    1  UNL1        0.0146
      2 C           1.0837    0.7253   21.3777 C.ar    1  UNL1       -0.0011
      3 C           1.4660   -0.2545   20.3083 C.ar    1  UNL1        0.0014
      4 C           2.5082   -1.2974   20.5844 C.ar    1  UNL1        0.0206
      5 C           3.1680   -1.3605   21.9299 C.ar    1  UNL1        0.0989
      6 C           2.7857   -0.3807   22.9993 C.ar    1  UNL1        0.1511
      7 O           3.4456   -0.4437   24.3450 O.3     1  UNL1       -0.4678
      8 C           4.4878   -1.4866   24.6211 C.3     1  UNL1        0.2510
      9 C           4.8701   -2.4664   23.5516 C.ar    1  UNL1        0.1087
     10 C           5.8562   -3.5965   23.5318 C.ar    1  UNL1        0.1516
     11 N           5.8058   -4.2319   22.1739 N.ar    1  UNL1       -0.2192
     12 C           4.7885   -3.4945   21.3546 C.ar    1  UNL1        0.1828
     13 N           4.2102   -2.4034   22.2060 N.ar    1  UNL1       -0.2851
     14 C           6.7379   -4.0174   24.6700 C.2     1  UNL1        0.2648
     15 O           8.2172   -4.1528   24.4624 O.2     1  UNL1       -0.2684
     16 N           6.1401   -4.3028   26.0158 N.am    1  UNL1       -0.3012
     17 H           5.1692   -4.2139   26.1521 H       1  UNL1        0.1497
     18 C           7.0218   -4.7237   27.1540 C.3     1  UNL1        0.0720
     19 C           7.5286   -5.7901   28.0792 C.3     1  UNL1        0.0213
     20 C           8.0424   -4.3861   28.2003 C.3     1  UNL1        0.0213
     21 C           1.3612    1.6421   23.7928 C.3     1  UNL1        0.0468
     22 C           0.3238    1.2734   24.8116 C.3     1  UNL1        0.0770
     23 N           1.1372    1.9264   29.1890 N.pl3   1  UNL1       -0.3046
     24 C          -0.1032    1.2023   28.7565 C.3     1  UNL1        0.1081
     25 C          -0.3743    0.9846   27.2973 C.3     1  UNL1        0.0938
     26 N           0.5949    1.4911   26.2707 N.3     1  UNL1       -0.2695
     27 C           1.8353    2.2153   26.7032 C.3     1  UNL1        0.0938
     28 C           2.1064    2.4329   28.1623 C.3     1  UNL1        0.1081
     29 C           4.8600   -1.7246   33.6679 C.3     1  UNL1        0.0521
     30 C           3.9971   -0.7574   32.9130 C.ar    1  UNL1        0.0593
     31 C           3.7260   -0.9751   31.4538 C.ar    1  UNL1        0.0148
     32 C           2.8630   -0.0079   30.6989 C.ar    1  UNL1        0.0039
     33 C           2.2712    1.1769   31.4030 C.ar    1  UNL1        0.0310
     34 C           1.4083    2.1441   30.6481 C.ar    1  UNL1        0.0493
     35 C           0.8165    3.3290   31.3523 C.ar    1  UNL1        0.0146
     36 C           1.0876    3.5466   32.8115 C.ar    1  UNL1        0.0028
     37 C           1.9505    2.5795   33.5664 C.ar    1  UNL1        0.0192
     38 C           2.5423    1.3946   32.8623 C.ar    1  UNL1        0.0821
     39 N           3.4052    0.4275   33.6172 N.ar    1  UNL1       -0.2496
@<TRIPOS>BOND
     1    29    30    1
     2    30    31   ar
     3    31    32   ar
     4    32    33   ar
     5    33    34   ar
     6    34    23    1
     7    23    24    1
     8    24    25    1
     9    25    26    1
    10    26    22    1
    11    22    21    1
    12    21     1    1
    13     1     2   ar
    14     2     3   ar
    15     3     4   ar
    16     4     5   ar
    17     5     6   ar
    18     6     7    1
    19     7     8    1
    20     8     9    1
    21     9    10   ar
    22    10    14    1
    23    14    15    2
    24    14    16   am
    25    16    18    1
    26    18    19    1
    27    19    20    1
    28    10    11   ar
    29    11    12   ar
    30    12    13   ar
    31    26    27    1
    32    27    28    1
    33    34    35   ar
    34    35    36   ar
    35    36    37   ar
    36    37    38   ar
    37    38    39   ar
    38    39    30   ar
    39    38    33   ar
    40    28    23    1
    41     6     1   ar
    42    13     9   ar
    43    13     5    1
    44    20    18    1
    45    16    17    1
@<TRIPOS>MOLECULE
*****
 39 45 0 0 0
SMALL
GASTEIGER

@<TRIPOS>ATOM
      1 C           7.2046   -4.6901   29.4608 C.ar    1  UNL1        0.0146
      2 C           7.9470   -5.8451   30.0648 C.ar    1  UNL1       -0.0011
      3 C           8.5668   -6.8842   29.1782 C.ar    1  UNL1        0.0014
      4 C           8.4443   -6.7683   27.6877 C.ar    1  UNL1        0.0206
      5 C           7.7020   -5.6132   27.0838 C.ar    1  UNL1        0.0989
      6 C           7.0821   -4.5742   27.9704 C.ar    1  UNL1        0.1511
      7 O           6.3397   -3.4191   27.3664 O.3     1  UNL1       -0.4678
      8 C           6.2172   -3.3031   25.8759 C.3     1  UNL1        0.2510
      9 C           6.8371   -4.3423   24.9894 C.ar    1  UNL1        0.1087
     10 C           6.8808   -4.4922   23.4976 C.ar    1  UNL1        0.1516
     11 N           7.6502   -5.7400   23.1795 N.ar    1  UNL1       -0.2192
     12 C           8.0820   -6.3612   24.4747 C.ar    1  UNL1        0.1828
     13 N           7.5795   -5.4973   25.5933 N.ar    1  UNL1       -0.2851
     14 C           6.2635   -3.5584   22.4991 C.2     1  UNL1        0.2648
     15 O           7.1066   -2.5169   21.8251 O.2     1  UNL1       -0.2684
     16 N           4.8029   -3.6662   22.1747 N.am    1  UNL1       -0.3012
     17 H           4.2495   -4.3498   22.6170 H       1  UNL1        0.1497
     18 C           4.1856   -2.7324   21.1762 C.3     1  UNL1        0.0720
     19 C           3.5221   -1.4255   20.8571 C.3     1  UNL1        0.0213
     20 C           3.7799   -2.4219   19.7658 C.3     1  UNL1        0.0213
     21 C           6.5847   -3.6509   30.3474 C.3     1  UNL1        0.0468
     22 C           7.2926   -3.2095   31.5940 C.3     1  UNL1        0.0770
     23 N           5.2061   -0.5145   34.5322 N.pl3   1  UNL1       -0.3046
     24 C           4.4760   -1.6808   33.9349 C.3     1  UNL1        0.1081
     25 C           5.1716   -2.5792   32.9555 C.3     1  UNL1        0.0938
     26 N           6.5971   -2.3112   32.5734 N.3     1  UNL1       -0.2695
     27 C           7.3271   -1.1448   33.1707 C.3     1  UNL1        0.0938
     28 C           6.6316   -0.2465   34.1501 C.3     1  UNL1        0.1081
     29 C           0.7253    4.6043   33.5469 C.3     1  UNL1        0.0521
     30 C           1.6716    3.5492   34.0381 C.ar    1  UNL1        0.0593
     31 C           2.3672    2.6509   33.0587 C.ar    1  UNL1        0.0148
     32 C           3.3135    1.5958   33.5499 C.ar    1  UNL1        0.0039
     33 C           3.5642    1.4390   35.0204 C.ar    1  UNL1        0.0310
     34 C           4.5106    0.3838   35.5115 C.ar    1  UNL1        0.0493
     35 C           4.7613    0.2271   36.9822 C.ar    1  UNL1        0.0146
     36 C           4.0658    1.1254   37.9615 C.ar    1  UNL1        0.0028
     37 C           3.1195    2.1805   37.4704 C.ar    1  UNL1        0.0192
     38 C           2.8687    2.3373   35.9999 C.ar    1  UNL1        0.0821
     39 N           1.9224    3.3924   35.5087 N.ar    1  UNL1       -0.2496
@<TRIPOS>BOND
     1    29    30    1
     2    30    31   ar
     3    31    32   ar
     4    32    33   ar
     5    33    34   ar
     6    34    23    1
     7    23    24    1
     8    24    25    1
     9    25    26    1
    10    26    22    1
    11    22    21    1
    12    21     1    1
    13     1     2   ar
    14     2     3   ar
    15     3     4   ar
    16     4     5   ar
    17     5     6   ar
    18     6     7    1
    19     7     8    1
    20     8     9    1
    21     9    10   ar
    22    10    14    1
    23    14    15    2
    24    14    16   am
    25    16    18    1
    26    18    19    1
    27    19    20    1
    28    10    11   ar
    29    11    12   ar
    30    12    13   ar
    31    26    27    1
    32    27    28    1
    33    34    35   ar
    34    35    36   ar
    35    36    37   ar
    36    37    38   ar
    37    38    39   ar
    38    39    30   ar
    39    38    33   ar
    40    28    23    1
    41     6     1   ar
    42    13     9   ar
    43    13     5    1
    44    20    18    1
    45    16    17    1
@<TRIPOS>MOLECULE
*****
 39 45 0 0 0
SMALL
GASTEIGER

@<TRIPOS>ATOM
      1 C           7.6195   -3.2184   28.6732 C.ar    1  UNL1        0.0146
      2 C           8.2923   -4.4793   29.1284 C.ar    1  UNL1       -0.0011
      3 C           7.9781   -5.0516   30.4788 C.ar    1  UNL1        0.0014
      4 C           6.9909   -4.3630   31.3740 C.ar    1  UNL1        0.0206
      5 C           6.3180   -3.1021   30.9188 C.ar    1  UNL1        0.0989
      6 C           6.6323   -2.5298   29.5684 C.ar    1  UNL1        0.1511
      7 O           5.9594   -1.2688   29.1131 O.3     1  UNL1       -0.4678
      8 C           4.9723   -0.5802   30.0083 C.3     1  UNL1        0.2510
      9 C           4.6580   -1.1526   31.3588 C.ar    1  UNL1        0.1087
     10 C           3.7355   -0.6991   32.4511 C.ar    1  UNL1        0.1516
     11 N           3.8382   -1.6798   33.5815 N.ar    1  UNL1       -0.2192
     12 C           4.8242   -2.7393   33.1877 C.ar    1  UNL1        0.1828
     13 N           5.3309   -2.4135   31.8140 N.ar    1  UNL1       -0.2851
     14 C           2.8634    0.5209   32.4188 C.2     1  UNL1        0.2648
     15 O           1.9849    0.7837   31.2318 O.2     1  UNL1       -0.2684
     16 N           2.8698    1.4782   33.5737 N.am    1  UNL1       -0.3012
     17 H           3.4464    1.3058   34.3528 H       1  UNL1        0.1497
     18 C           1.9977    2.6982   33.5414 C.3     1  UNL1        0.0720
     19 C           0.9710    3.5431   32.8470 C.3     1  UNL1        0.0213
     20 C           1.5138    3.9664   34.1798 C.3     1  UNL1        0.0213
     21 C           7.9337   -2.6460   27.3227 C.3     1  UNL1        0.0468
     22 C           8.2363   -3.5601   26.1726 C.3     1  UNL1        0.0770
     23 N           6.5481   -2.6807   22.0950 N.pl3   1  UNL1       -0.3046
     24 C           7.5392   -1.7408   22.7151 C.3     1  UNL1        0.1081
     25 C           8.1019   -2.0340   24.0743 C.3     1  UNL1        0.0938
     26 N           7.6736   -3.2670   24.8134 N.3     1  UNL1       -0.2695
     27 C           6.6825   -4.2068   24.1933 C.3     1  UNL1        0.0938
     28 C           6.1198   -3.9137   22.8341 C.3     1  UNL1        0.1081
     29 C           0.5599    0.1203   20.2120 C.3     1  UNL1        0.0521
     30 C           1.9163   -0.5066   20.3430 C.ar    1  UNL1        0.0593
     31 C           2.4790   -0.7998   21.7022 C.ar    1  UNL1        0.0148
     32 C           3.8354   -1.4267   21.8331 C.ar    1  UNL1        0.0039
     33 C           4.6291   -1.7606   20.6049 C.ar    1  UNL1        0.0310
     34 C           5.9855   -2.3875   20.7359 C.ar    1  UNL1        0.0493
     35 C           6.7792   -2.7213   19.5075 C.ar    1  UNL1        0.0146
     36 C           6.2165   -2.4282   18.1484 C.ar    1  UNL1        0.0028
     37 C           4.8601   -1.8012   18.0174 C.ar    1  UNL1        0.0192
     38 C           4.0664   -1.4674   19.2456 C.ar    1  UNL1        0.0821
     39 N           2.7100   -0.8404   19.1147 N.ar    1  UNL1       -0.2496
@<TRIPOS>BOND
     1    29    30    1
     2    30    31   ar
     3    31    32   ar
     4    32    33   ar
     5    33    34   ar
     6    34    23    1
     7    23    24    1
     8    24    25    1
     9    25    26    1
    10    26    22    1
    11    22    21    1
    12    21     1    1
    13     1     2   ar
    14     2     3   ar
    15     3     4   ar
    16     4     5   ar
    17     5     6   ar
    18     6     7    1
    19     7     8    1
    20     8     9    1
    21     9    10   ar
    22    10    14    1
    23    14    15    2
    24    14    16   am
    25    16    18    1
    26    18    19    1
    27    19    20    1
    28    10    11   ar
    29    11    12   ar
    30    12    13   ar
    31    26    27    1
    32    27    28    1
    33    34    35   ar
    34    35    36   ar
    35    36    37   ar
    36    37    38   ar
    37    38    39   ar
    38    39    30   ar
    39    38    33   ar
    40    28    23    1
    41     6     1   ar
    42    13     9   ar
    43    13     5    1
    44    20    18    1
    45    16    17    1
