@<TRIPOS>MOLECULE
*****
 35 38 0 0 0
SMALL
GASTEIGER

@<TRIPOS>ATOM
      1 C          -9.4402  -17.5870   22.5767 C.2     1  UNL1        0.1349
      2 C          -8.1226  -16.8735   22.5066 C.2     1  UNL1        0.1353
      3 N          -6.9486  -17.5299   21.8426 N.pl3   1  UNL1       -0.1998
      4 C          -7.0921  -18.8998   21.2487 C.2     1  UNL1        0.3440
      5 N          -8.4097  -19.6133   21.3188 N.2     1  UNL1       -0.0630
      6 C          -9.5837  -18.9569   21.9828 C.3     1  UNL1        0.2210
      7 C         -10.2105  -20.2555   21.5696 C.3     1  UNL1        0.0631
      8 H          -6.0839  -17.0616   21.7966 H       1  UNL1        0.2983
      9 C         -10.9754  -18.7516   22.5032 C.ar    1  UNL1        0.0261
     10 C         -12.0655  -18.3056   21.5743 C.ar    1  UNL1        0.0024
     11 C         -13.4572  -18.1003   22.0950 C.ar    1  UNL1        0.0295
     12 C         -13.7588  -18.3411   23.5444 C.ar    1  UNL1        0.1401
     13 F         -15.1506  -18.1358   24.0650 F       1  UNL1       -0.2042
     14 C         -12.6688  -18.7871   24.4733 C.ar    1  UNL1        0.0295
     15 C         -11.2771  -18.9923   23.9528 C.ar    1  UNL1        0.0024
     16 C          -5.9181  -19.5561   20.5847 C.ar    1  UNL1        0.1931
     17 N          -4.7457  -18.8514   19.9693 N.ar    1  UNL1       -0.2297
     18 C          -3.8134  -19.8922   19.4238 C.ar    1  UNL1        0.1067
     19 C          -4.4096  -21.2402   19.7020 C.ar    1  UNL1        0.0577
     20 S          -5.7105  -21.0324   20.4194 S.2     1  UNL1       -0.0586
     21 C         -10.6142  -16.9307   23.2407 C.2     1  UNL1        0.3446
     22 O         -10.9538  -16.9989   23.9586 O.2     1  UNL1       -0.2450
     23 C         -11.0336  -15.5169   21.1017 C.3     1  UNL1        0.2559
     24 O         -11.4136  -15.8989   22.5016 O.3     1  UNL1       -0.4414
     25 C          -7.9790  -15.5036   23.1006 C.3     1  UNL1        0.1407
     26 N          -7.3759  -15.3366   24.4637 N.3     1  UNL1       -0.2578
     27 C          -8.1285  -15.0785   25.7353 C.3     1  UNL1        0.1401
     28 C          -7.1320  -14.9808   26.8522 C.3     1  UNL1        0.2801
     29 F          -8.3451  -14.7527   27.7042 F       1  UNL1       -0.2028
     30 F          -6.3890  -14.8353   28.1471 F       1  UNL1       -0.2028
     31 C          -5.7634  -15.1784   26.2707 C.3     1  UNL1        0.0897
     32 C          -5.9142  -15.3983   24.7946 C.3     1  UNL1        0.1003
     33 C          -4.7990  -15.6378   23.8205 C.2     1  UNL1        0.0650
     34 O          -4.1658  -16.9942   23.7241 O.co2   1  UNL1       -0.5478
     35 O          -4.3169  -14.5210   22.9427 O.co2   1  UNL1       -0.5478
@<TRIPOS>UNITY_ATOM_ATTR
34 1
charge -1
@<TRIPOS>BOND
     1    23    24    1
     2    24    21    1
     3    21    22    2
     4    21     1    1
     5     1     2    2
     6     2    25    1
     7    25    26    1
     8    26    27    1
     9    27    28    1
    10    28    29    1
    11    28    30    1
    12    28    31    1
    13    31    32    1
    14    32    33    1
    15    33    34   ar
    16    33    35   ar
    17     2     3    1
    18     3     4    1
    19     4    16    1
    20    16    17   ar
    21    17    18   ar
    22    18    19   ar
    23    19    20   ar
    24     4     5    2
    25     5     6    1
    26     6     7    1
    27     6     9    1
    28     9    10   ar
    29    10    11   ar
    30    11    12   ar
    31    12    13    1
    32    12    14   ar
    33    14    15   ar
    34     6     1    1
    35    15     9   ar
    36    32    26    1
    37    20    16   ar
    38     3     8    1
@<TRIPOS>MOLECULE
*****
 35 38 0 0 0
SMALL
GASTEIGER

@<TRIPOS>ATOM
      1 C          -4.7236  -18.0968   21.9602 C.2     1  UNL1        0.1349
      2 C          -5.7512  -17.4997   22.8754 C.2     1  UNL1        0.1353
      3 N          -7.1811  -17.9448   22.7896 N.pl3   1  UNL1       -0.1998
      4 C          -7.5834  -18.9869   21.7886 C.2     1  UNL1        0.3440
      5 N          -6.5558  -19.5840   20.8734 N.2     1  UNL1       -0.0630
      6 C          -5.1259  -19.1390   20.9593 C.3     1  UNL1        0.2210
      7 C          -5.0187  -20.1483   19.8549 C.3     1  UNL1        0.0631
      8 H          -7.8555  -17.5529   23.3902 H       1  UNL1        0.2983
      9 C          -3.6588  -19.0445   20.6615 C.ar    1  UNL1        0.0261
     10 C          -2.6692  -19.7610   21.5316 C.ar    1  UNL1        0.0024
     11 C          -1.2020  -19.6665   21.2338 C.ar    1  UNL1        0.0295
     12 C          -0.7247  -18.8554   20.0658 C.ar    1  UNL1        0.1401
     13 F           0.7425  -18.7609   19.7679 F       1  UNL1       -0.2042
     14 C          -1.7143  -18.1389   19.1956 C.ar    1  UNL1        0.0295
     15 C          -3.1814  -18.2334   19.4935 C.ar    1  UNL1        0.0024
     16 C          -9.0133  -19.4320   21.7028 C.ar    1  UNL1        0.1931
     17 N          -9.8197  -20.0280   22.8183 N.ar    1  UNL1       -0.2297
     18 C         -11.1926  -20.3236   22.2913 C.ar    1  UNL1        0.1067
     19 C         -11.2347  -19.9103   20.8500 C.ar    1  UNL1        0.0577
     20 S          -9.8878  -19.3593   20.4863 S.2     1  UNL1       -0.0586
     21 C          -3.2937  -17.6517   22.0461 C.2     1  UNL1        0.3446
     22 O          -2.6364  -17.9604   22.3749 O.2     1  UNL1       -0.2450
     23 C          -1.5221  -15.7793   21.7217 C.3     1  UNL1        0.2559
     24 O          -2.8719  -16.3576   21.4158 O.3     1  UNL1       -0.4414
     25 C          -5.3489  -16.4575   23.8764 C.3     1  UNL1        0.1407
     26 N          -6.3483  -15.9493   24.8728 N.3     1  UNL1       -0.2578
     27 C          -6.1064  -15.7461   26.3392 C.3     1  UNL1        0.1401
     28 C          -7.3737  -15.2263   26.9505 C.3     1  UNL1        0.2801
     29 F          -6.5788  -15.2361   28.2223 F       1  UNL1       -0.2028
     30 F          -8.4748  -14.7085   27.8276 F       1  UNL1       -0.2028
     31 C          -8.3989  -15.1082   25.8618 C.3     1  UNL1        0.0897
     32 C          -7.7652  -15.5551   24.5778 C.3     1  UNL1        0.1003
     33 C          -8.4314  -15.5998   23.2346 C.2     1  UNL1        0.0650
     34 O          -7.7811  -14.9439   22.0527 O.co2   1  UNL1       -0.5478
     35 O          -9.7479  -16.3004   23.0733 O.co2   1  UNL1       -0.5478
@<TRIPOS>UNITY_ATOM_ATTR
34 1
charge -1
@<TRIPOS>BOND
     1    23    24    1
     2    24    21    1
     3    21    22    2
     4    21     1    1
     5     1     2    2
     6     2    25    1
     7    25    26    1
     8    26    27    1
     9    27    28    1
    10    28    29    1
    11    28    30    1
    12    28    31    1
    13    31    32    1
    14    32    33    1
    15    33    34   ar
    16    33    35   ar
    17     2     3    1
    18     3     4    1
    19     4    16    1
    20    16    17   ar
    21    17    18   ar
    22    18    19   ar
    23    19    20   ar
    24     4     5    2
    25     5     6    1
    26     6     7    1
    27     6     9    1
    28     9    10   ar
    29    10    11   ar
    30    11    12   ar
    31    12    13    1
    32    12    14   ar
    33    14    15   ar
    34     6     1    1
    35    15     9   ar
    36    32    26    1
    37    20    16   ar
    38     3     8    1
@<TRIPOS>MOLECULE
*****
 35 38 0 0 0
SMALL
GASTEIGER

@<TRIPOS>ATOM
      1 C           5.6690   -2.4056   23.6510 C.2     1  UNL1        0.1349
      2 C           6.2670   -2.4682   25.0252 C.2     1  UNL1        0.1353
      3 N           5.5551   -1.8327   26.1825 N.pl3   1  UNL1       -0.1998
      4 C           4.2454   -1.1345   25.9656 C.2     1  UNL1        0.3440
      5 N           3.6474   -1.0719   24.5914 N.2     1  UNL1       -0.0630
      6 C           4.3593   -1.7075   23.4341 C.3     1  UNL1        0.2210
      7 C           3.1510   -1.1646   22.7304 C.3     1  UNL1        0.0631
      8 H           5.9476   -1.8737   27.0845 H       1  UNL1        0.2983
      9 C           4.6514   -2.1545   22.0323 C.ar    1  UNL1        0.0261
     10 C           5.3319   -1.2223   21.0743 C.ar    1  UNL1        0.0024
     11 C           5.6240   -1.6694   19.6725 C.ar    1  UNL1        0.0295
     12 C           5.2356   -3.0486   19.2289 C.ar    1  UNL1        0.1401
     13 F           5.5277   -3.4956   17.8271 F       1  UNL1       -0.2042
     14 C           4.5550   -3.9807   20.1870 C.ar    1  UNL1        0.0295
     15 C           4.2630   -3.5337   21.5886 C.ar    1  UNL1        0.0024
     16 C           3.5335   -0.4990   27.1229 C.ar    1  UNL1        0.1931
     17 N           2.8113   -1.2240   28.2196 N.ar    1  UNL1       -0.2297
     18 C           2.2504   -0.1999   29.1612 C.ar    1  UNL1        0.1067
     19 C           2.6259    1.1580   28.6465 C.ar    1  UNL1        0.0577
     20 S           3.4189    0.9732   27.3867 S.2     1  UNL1       -0.0586
     21 C           6.3809   -3.0412   22.4937 C.2     1  UNL1        0.3446
     22 O           6.2832   -3.7211   22.0892 O.2     1  UNL1       -0.2450
     23 C           8.7073   -3.1549   21.3427 C.3     1  UNL1        0.2559
     24 O           7.5535   -2.3501   21.8633 O.3     1  UNL1       -0.4414
     25 C           7.5768   -3.1663   25.2421 C.3     1  UNL1        0.1407
     26 N           7.5994   -4.6169   25.6233 N.3     1  UNL1       -0.2578
     27 C           7.7674   -5.7732   24.6826 C.3     1  UNL1        0.1401
     28 C           7.7298   -7.0368   25.4899 C.3     1  UNL1        0.2801
     29 F           7.9216   -7.7055   24.1611 F       1  UNL1       -0.2028
     30 F           7.7323   -8.4402   26.0195 F       1  UNL1       -0.2028
     31 C           7.5386   -6.6615   26.9296 C.3     1  UNL1        0.0897
     32 C           7.4580   -5.1659   27.0120 C.3     1  UNL1        0.1003
     33 C           7.2692   -4.3608   28.2634 C.2     1  UNL1        0.0650
     34 O           8.3078   -4.4009   29.3449 O.co2   1  UNL1       -0.5478
     35 O           6.0418   -3.5154   28.4334 O.co2   1  UNL1       -0.5478
@<TRIPOS>UNITY_ATOM_ATTR
34 1
charge -1
@<TRIPOS>BOND
     1    23    24    1
     2    24    21    1
     3    21    22    2
     4    21     1    1
     5     1     2    2
     6     2    25    1
     7    25    26    1
     8    26    27    1
     9    27    28    1
    10    28    29    1
    11    28    30    1
    12    28    31    1
    13    31    32    1
    14    32    33    1
    15    33    34   ar
    16    33    35   ar
    17     2     3    1
    18     3     4    1
    19     4    16    1
    20    16    17   ar
    21    17    18   ar
    22    18    19   ar
    23    19    20   ar
    24     4     5    2
    25     5     6    1
    26     6     7    1
    27     6     9    1
    28     9    10   ar
    29    10    11   ar
    30    11    12   ar
    31    12    13    1
    32    12    14   ar
    33    14    15   ar
    34     6     1    1
    35    15     9   ar
    36    32    26    1
    37    20    16   ar
    38     3     8    1
@<TRIPOS>MOLECULE
*****
 35 38 0 0 0
SMALL
GASTEIGER

@<TRIPOS>ATOM
      1 C           3.4565   -1.2878   22.1955 C.2     1  UNL1        0.1349
      2 C           4.2810   -2.4148   22.7433 C.2     1  UNL1        0.1353
      3 N           4.6223   -2.4537   24.2034 N.pl3   1  UNL1       -0.1998
      4 C           4.1391   -1.3656   25.1158 C.2     1  UNL1        0.3440
      5 N           3.3146   -0.2386   24.5680 N.2     1  UNL1       -0.0630
      6 C           2.9733   -0.1997   23.1079 C.3     1  UNL1        0.2210
      7 C           2.2890    1.0530   23.5688 C.3     1  UNL1        0.0631
      8 H           5.1634   -3.1934   24.5629 H       1  UNL1        0.2983
      9 C           2.3944    0.2743   21.8078 C.ar    1  UNL1        0.0261
     10 C           3.1312    1.2883   20.9840 C.ar    1  UNL1        0.0024
     11 C           2.5521    1.7623   19.6839 C.ar    1  UNL1        0.0295
     12 C           1.2363    1.2222   19.2078 C.ar    1  UNL1        0.1401
     13 F           0.6572    1.6962   17.9077 F       1  UNL1       -0.2042
     14 C           0.4994    0.2081   20.0316 C.ar    1  UNL1        0.0295
     15 C           1.0785   -0.2658   21.3316 C.ar    1  UNL1        0.0024
     16 C           4.4804   -1.4045   26.5759 C.ar    1  UNL1        0.1931
     17 N           3.6985   -0.7595   27.6816 N.ar    1  UNL1       -0.2297
     18 C           4.3983   -1.0515   28.9758 C.ar    1  UNL1        0.1067
     19 C           5.6128   -1.8771   28.6700 C.ar    1  UNL1        0.0577
     20 S           5.6635   -2.0952   27.1868 S.2     1  UNL1       -0.0586
     21 C           3.1152   -1.2490   20.7354 C.2     1  UNL1        0.3446
     22 O           2.4694   -1.4472   20.3121 O.2     1  UNL1       -0.2450
     23 C           4.0377   -1.1758   18.3077 C.3     1  UNL1        0.2559
     24 O           4.1221   -0.7479   19.7429 O.3     1  UNL1       -0.4414
     25 C           4.7642   -3.5030   21.8309 C.3     1  UNL1        0.1407
     26 N           6.1667   -3.4689   21.2999 N.3     1  UNL1       -0.2578
     27 C           6.5980   -2.8887   19.9855 C.3     1  UNL1        0.1401
     28 C           8.0819   -3.0702   19.8633 C.3     1  UNL1        0.2801
     29 F           7.8982   -2.3859   18.5413 F       1  UNL1       -0.2028
     30 F           9.5274   -3.1086   19.4648 F       1  UNL1       -0.2028
     31 C           8.5678   -3.7625   21.1022 C.3     1  UNL1        0.0897
     32 C           7.3841   -4.0089   21.9900 C.3     1  UNL1        0.1003
     33 C           7.4128   -4.6779   23.3322 C.2     1  UNL1        0.0650
     34 O           7.1906   -3.8712   24.5771 O.co2   1  UNL1       -0.5478
     35 O           7.6637   -6.1536   23.4296 O.co2   1  UNL1       -0.5478
@<TRIPOS>UNITY_ATOM_ATTR
34 1
charge -1
@<TRIPOS>BOND
     1    23    24    1
     2    24    21    1
     3    21    22    2
     4    21     1    1
     5     1     2    2
     6     2    25    1
     7    25    26    1
     8    26    27    1
     9    27    28    1
    10    28    29    1
    11    28    30    1
    12    28    31    1
    13    31    32    1
    14    32    33    1
    15    33    34   ar
    16    33    35   ar
    17     2     3    1
    18     3     4    1
    19     4    16    1
    20    16    17   ar
    21    17    18   ar
    22    18    19   ar
    23    19    20   ar
    24     4     5    2
    25     5     6    1
    26     6     7    1
    27     6     9    1
    28     9    10   ar
    29    10    11   ar
    30    11    12   ar
    31    12    13    1
    32    12    14   ar
    33    14    15   ar
    34     6     1    1
    35    15     9   ar
    36    32    26    1
    37    20    16   ar
    38     3     8    1
@<TRIPOS>MOLECULE
*****
 35 38 0 0 0
SMALL
GASTEIGER

@<TRIPOS>ATOM
      1 C           3.1144   -0.9755   22.3820 C.2     1  UNL1        0.1349
      2 C           3.8953   -2.1039   22.9876 C.2     1  UNL1        0.1353
      3 N           4.2130   -2.0943   24.4535 N.pl3   1  UNL1       -0.1998
      4 C           3.7499   -0.9562   25.3138 C.2     1  UNL1        0.3440
      5 N           2.9690    0.1722   24.7082 N.2     1  UNL1       -0.0630
      6 C           2.6512    0.1626   23.2423 C.3     1  UNL1        0.2210
      7 C           1.9991    1.4530   23.6417 C.3     1  UNL1        0.0631
      8 H           4.7256   -2.8349   24.8510 H       1  UNL1        0.2983
      9 C           2.1070    0.6011   21.9151 C.ar    1  UNL1        0.0261
     10 C           2.8791    1.5717   21.0714 C.ar    1  UNL1        0.0024
     11 C           2.3347    2.0102   19.7442 C.ar    1  UNL1        0.0295
     12 C           1.0182    1.4781   19.2608 C.ar    1  UNL1        0.1401
     13 F           0.4739    1.9166   17.9335 F       1  UNL1       -0.2042
     14 C           0.2461    0.5075   20.1045 C.ar    1  UNL1        0.0295
     15 C           0.7904    0.0690   21.4316 C.ar    1  UNL1        0.0024
     16 C           4.0676   -0.9465   26.7798 C.ar    1  UNL1        0.1931
     17 N           5.3950   -1.2749   27.3964 N.ar    1  UNL1       -0.2297
     18 C           5.2615   -1.1381   28.8842 C.ar    1  UNL1        0.1067
     19 C           3.8517   -0.7252   29.1871 C.ar    1  UNL1        0.0577
     20 S           3.1138   -0.6067   27.8865 S.2     1  UNL1       -0.0586
     21 C           2.7966   -0.9852   20.9160 C.2     1  UNL1        0.3446
     22 O           2.1585   -1.1996   20.4891 O.2     1  UNL1       -0.2450
     23 C           3.7259   -0.9429   18.4902 C.3     1  UNL1        0.2559
     24 O           3.8177   -0.5124   19.9242 O.3     1  UNL1       -0.4414
     25 C           4.3585   -3.2421   22.1273 C.3     1  UNL1        0.1407
     26 N           5.4227   -3.0168   21.0945 N.3     1  UNL1       -0.2578
     27 C           6.5946   -2.0895   21.2237 C.3     1  UNL1        0.1401
     28 C           7.3980   -2.1788   19.9602 C.3     1  UNL1        0.2801
     29 F           8.2798   -1.1709   20.6357 F       1  UNL1       -0.2028
     30 F           8.3857   -2.0574   18.8379 F       1  UNL1       -0.2028
     31 C           6.7226   -3.1614   19.0500 C.3     1  UNL1        0.0897
     32 C           5.5018   -3.6793   19.7510 C.3     1  UNL1        0.1003
     33 C           4.5306   -4.6833   19.2045 C.2     1  UNL1        0.0650
     34 O           4.9918   -6.0734   18.8806 O.co2   1  UNL1       -0.5478
     35 O           3.0983   -4.2974   18.9819 O.co2   1  UNL1       -0.5478
@<TRIPOS>UNITY_ATOM_ATTR
34 1
charge -1
@<TRIPOS>BOND
     1    23    24    1
     2    24    21    1
     3    21    22    2
     4    21     1    1
     5     1     2    2
     6     2    25    1
     7    25    26    1
     8    26    27    1
     9    27    28    1
    10    28    29    1
    11    28    30    1
    12    28    31    1
    13    31    32    1
    14    32    33    1
    15    33    34   ar
    16    33    35   ar
    17     2     3    1
    18     3     4    1
    19     4    16    1
    20    16    17   ar
    21    17    18   ar
    22    18    19   ar
    23    19    20   ar
    24     4     5    2
    25     5     6    1
    26     6     7    1
    27     6     9    1
    28     9    10   ar
    29    10    11   ar
    30    11    12   ar
    31    12    13    1
    32    12    14   ar
    33    14    15   ar
    34     6     1    1
    35    15     9   ar
    36    32    26    1
    37    20    16   ar
    38     3     8    1
@<TRIPOS>MOLECULE
*****
 35 38 0 0 0
SMALL
GASTEIGER

@<TRIPOS>ATOM
      1 C           5.3241   -2.7920   23.7578 C.2     1  UNL1        0.1349
      2 C           5.7646   -2.9651   25.1812 C.2     1  UNL1        0.1353
      3 N           5.0830   -2.1987   26.2757 N.pl3   1  UNL1       -0.1998
      4 C           3.9609   -1.2592   25.9469 C.2     1  UNL1        0.3440
      5 N           3.5203   -1.0861   24.5236 N.2     1  UNL1       -0.0630
      6 C           4.2019   -1.8525   23.4291 C.3     1  UNL1        0.2210
      7 C           3.1951   -1.0868   22.6229 C.3     1  UNL1        0.0631
      8 H           5.3721   -2.3123   27.2099 H       1  UNL1        0.2983
      9 C           4.5338   -2.3530   22.0545 C.ar    1  UNL1        0.0261
     10 C           5.4639   -1.5704   21.1756 C.ar    1  UNL1        0.0024
     11 C           5.7957   -2.0710   19.8010 C.ar    1  UNL1        0.0295
     12 C           5.1974   -3.3540   19.3054 C.ar    1  UNL1        0.1401
     13 F           5.5292   -3.8545   17.9308 F       1  UNL1       -0.2042
     14 C           4.2672   -4.1366   20.1843 C.ar    1  UNL1        0.0295
     15 C           3.9354   -3.6361   21.5588 C.ar    1  UNL1        0.0024
     16 C           3.2793   -0.4928   27.0415 C.ar    1  UNL1        0.1931
     17 N           2.7334   -1.0699   28.3139 N.ar    1  UNL1       -0.2297
     18 C           2.1406    0.0515   29.1146 C.ar    1  UNL1        0.1067
     19 C           2.3202    1.3216   28.3371 C.ar    1  UNL1        0.0577
     20 S           3.0239    0.9852   27.0559 S.2     1  UNL1       -0.0586
     21 C           6.0056   -3.5585   22.6633 C.2     1  UNL1        0.3446
     22 O           5.8217   -4.2142   22.2489 O.2     1  UNL1       -0.2450
     23 C           8.4918   -4.0486   22.0901 C.3     1  UNL1        0.2559
     24 O           7.3332   -3.0972   22.1392 O.3     1  UNL1       -0.4414
     25 C           6.8868   -3.9047   25.5100 C.3     1  UNL1        0.1407
     26 N           6.9249   -4.5897   26.8439 N.3     1  UNL1       -0.2578
     27 C           6.5859   -3.9660   28.1653 C.3     1  UNL1        0.1401
     28 C           6.7602   -5.0095   29.2287 C.3     1  UNL1        0.2801
     29 F           6.3312   -3.9112   30.1557 F       1  UNL1       -0.2028
     30 F           6.8449   -5.8234   30.4858 F       1  UNL1       -0.2028
     31 C           7.2071   -6.2781   28.5644 C.3     1  UNL1        0.0897
     32 C           7.3088   -6.0185   27.0906 C.3     1  UNL1        0.1003
     33 C           7.7220   -7.0133   26.0467 C.2     1  UNL1        0.0650
     34 O           8.7638   -6.6465   25.0318 O.co2   1  UNL1       -0.5478
     35 O           7.0933   -8.3750   26.0176 O.co2   1  UNL1       -0.5478
@<TRIPOS>UNITY_ATOM_ATTR
34 1
charge -1
@<TRIPOS>BOND
     1    23    24    1
     2    24    21    1
     3    21    22    2
     4    21     1    1
     5     1     2    2
     6     2    25    1
     7    25    26    1
     8    26    27    1
     9    27    28    1
    10    28    29    1
    11    28    30    1
    12    28    31    1
    13    31    32    1
    14    32    33    1
    15    33    34   ar
    16    33    35   ar
    17     2     3    1
    18     3     4    1
    19     4    16    1
    20    16    17   ar
    21    17    18   ar
    22    18    19   ar
    23    19    20   ar
    24     4     5    2
    25     5     6    1
    26     6     7    1
    27     6     9    1
    28     9    10   ar
    29    10    11   ar
    30    11    12   ar
    31    12    13    1
    32    12    14   ar
    33    14    15   ar
    34     6     1    1
    35    15     9   ar
    36    32    26    1
    37    20    16   ar
    38     3     8    1
@<TRIPOS>MOLECULE
*****
 35 38 0 0 0
SMALL
GASTEIGER

@<TRIPOS>ATOM
      1 C          -2.6607    3.9087   23.2221 C.2     1  UNL1        0.1349
      2 C          -1.2734    3.5162   23.6361 C.2     1  UNL1        0.1353
      3 N          -0.3795    2.7933   22.6726 N.pl3   1  UNL1       -0.1998
      4 C          -0.8728    2.4628   21.2952 C.2     1  UNL1        0.3440
      5 N          -2.2600    2.8553   20.8812 N.2     1  UNL1       -0.0630
      6 C          -3.1540    3.5782   21.8446 C.3     1  UNL1        0.2210
      7 C          -4.0680    3.4879   20.6587 C.3     1  UNL1        0.0631
      8 H           0.5311    2.5357   22.9444 H       1  UNL1        0.2983
      9 C          -4.3654    4.2698   22.3961 C.ar    1  UNL1        0.0261
     10 C          -4.4803    5.7630   22.3115 C.ar    1  UNL1        0.0024
     11 C          -5.6918    6.4544   22.8631 C.ar    1  UNL1        0.0295
     12 C          -6.7883    5.6527   23.4992 C.ar    1  UNL1        0.1401
     13 F          -7.9998    6.3443   24.0508 F       1  UNL1       -0.2042
     14 C          -6.6734    4.1595   23.5839 C.ar    1  UNL1        0.0295
     15 C          -5.4620    3.4681   23.0324 C.ar    1  UNL1        0.0024
     16 C           0.0212    1.7399   20.3317 C.ar    1  UNL1        0.1931
     17 N           0.5175    2.2722   19.0201 N.ar    1  UNL1       -0.2297
     18 C           1.3789    1.2190   18.3885 C.ar    1  UNL1        0.1067
     19 C           1.4149    0.0358   19.3097 C.ar    1  UNL1        0.0577
     20 S           0.5758    0.3577   20.5107 S.2     1  UNL1       -0.0586
     21 C          -3.5546    4.6316   24.1855 C.2     1  UNL1        0.3446
     22 O          -3.7676    5.3942   24.2779 O.2     1  UNL1       -0.2450
     23 C          -4.3879    4.4546   26.6400 C.3     1  UNL1        0.2559
     24 O          -4.2668    3.8701   25.2639 O.3     1  UNL1       -0.4414
     25 C          -0.7800    3.8467   25.0136 C.3     1  UNL1        0.1407
     26 N          -0.4383    2.7448   25.9722 N.3     1  UNL1       -0.2578
     27 C          -1.3580    2.1520   26.9983 C.3     1  UNL1        0.1401
     28 C          -0.6050    1.0831   27.7334 C.3     1  UNL1        0.2801
     29 F          -1.8887    0.9204   28.4920 F       1  UNL1       -0.2028
     30 F          -0.1204   -0.0199   28.6270 F       1  UNL1       -0.2028
     31 C           0.7801    1.0152   27.1616 C.3     1  UNL1        0.0897
     32 C           0.8831    2.0422   26.0731 C.3     1  UNL1        0.1003
     33 C           2.0948    2.3181   25.2331 C.2     1  UNL1        0.0650
     34 O           2.1703    1.7926   23.8302 O.co2   1  UNL1       -0.5478
     35 O           3.2310    3.1195   25.7959 O.co2   1  UNL1       -0.5478
@<TRIPOS>UNITY_ATOM_ATTR
34 1
charge -1
@<TRIPOS>BOND
     1    23    24    1
     2    24    21    1
     3    21    22    2
     4    21     1    1
     5     1     2    2
     6     2    25    1
     7    25    26    1
     8    26    27    1
     9    27    28    1
    10    28    29    1
    11    28    30    1
    12    28    31    1
    13    31    32    1
    14    32    33    1
    15    33    34   ar
    16    33    35   ar
    17     2     3    1
    18     3     4    1
    19     4    16    1
    20    16    17   ar
    21    17    18   ar
    22    18    19   ar
    23    19    20   ar
    24     4     5    2
    25     5     6    1
    26     6     7    1
    27     6     9    1
    28     9    10   ar
    29    10    11   ar
    30    11    12   ar
    31    12    13    1
    32    12    14   ar
    33    14    15   ar
    34     6     1    1
    35    15     9   ar
    36    32    26    1
    37    20    16   ar
    38     3     8    1
@<TRIPOS>MOLECULE
*****
 35 38 0 0 0
SMALL
GASTEIGER

@<TRIPOS>ATOM
      1 C           5.2120   -0.8134   31.1502 C.2     1  UNL1        0.1349
      2 C           4.9044   -0.4492   29.7280 C.2     1  UNL1        0.1353
      3 N           5.2640   -1.3916   28.6178 N.pl3   1  UNL1       -0.1998
      4 C           5.9311   -2.6983   28.9298 C.2     1  UNL1        0.3440
      5 N           6.2386   -3.0626   30.3520 N.2     1  UNL1       -0.0630
      6 C           5.8791   -2.1202   31.4622 C.3     1  UNL1        0.2210
      7 C           6.4957   -3.2340   32.2554 C.3     1  UNL1        0.0631
      8 H           5.0621   -1.1525   27.6844 H       1  UNL1        0.2983
      9 C           5.7337   -1.5646   32.8479 C.ar    1  UNL1        0.0261
     10 C           4.5199   -1.8948   33.6649 C.ar    1  UNL1        0.0024
     11 C           4.3746   -1.3392   35.0507 C.ar    1  UNL1        0.0295
     12 C           5.4432   -0.4534   35.6193 C.ar    1  UNL1        0.1401
     13 F           5.2979    0.1022   37.0051 F       1  UNL1       -0.2042
     14 C           6.6571   -0.1232   34.8023 C.ar    1  UNL1        0.0295
     15 C           6.8023   -0.6788   33.4167 C.ar    1  UNL1        0.0024
     16 C           6.2906   -3.6408   27.8196 C.ar    1  UNL1        0.1931
     17 N           6.5246   -3.2662   26.3862 N.ar    1  UNL1       -0.2297
     18 C           6.8579   -4.5171   25.6286 C.ar    1  UNL1        0.1067
     19 C           6.8299   -5.6650   26.5938 C.ar    1  UNL1        0.0577
     20 S           6.4793   -5.1233   27.9480 S.2     1  UNL1       -0.0586
     21 C           4.8524    0.1290   32.2604 C.2     1  UNL1        0.3446
     22 O           5.2671    0.6437   32.7060 O.2     1  UNL1       -0.2450
     23 C           2.9150    1.5100   33.3041 C.3     1  UNL1        0.2559
     24 O           3.4325    0.2224   32.7346 O.3     1  UNL1       -0.4414
     25 C           4.2373    0.8576   29.4160 C.3     1  UNL1        0.1407
     26 N           2.7999    0.8825   28.9878 N.3     1  UNL1       -0.2578
     27 C           1.6196    1.1419   29.8763 C.3     1  UNL1        0.1401
     28 C           0.3807    1.0720   29.0335 C.3     1  UNL1        0.2801
     29 F          -0.3237    1.3731   30.3231 F       1  UNL1       -0.2028
     30 F          -1.0054    1.0651   28.4603 F       1  UNL1       -0.2028
     31 C           0.7954    0.7695   27.6241 C.3     1  UNL1        0.0897
     32 C           2.2906    0.6524   27.5958 C.3     1  UNL1        0.1003
     33 C           3.1291    0.3570   26.3877 C.2     1  UNL1        0.0650
     34 O           3.6118   -1.0402   26.1332 O.co2   1  UNL1       -0.5478
     35 O           3.4850    1.4588   25.4340 O.co2   1  UNL1       -0.5478
@<TRIPOS>UNITY_ATOM_ATTR
34 1
charge -1
@<TRIPOS>BOND
     1    23    24    1
     2    24    21    1
     3    21    22    2
     4    21     1    1
     5     1     2    2
     6     2    25    1
     7    25    26    1
     8    26    27    1
     9    27    28    1
    10    28    29    1
    11    28    30    1
    12    28    31    1
    13    31    32    1
    14    32    33    1
    15    33    34   ar
    16    33    35   ar
    17     2     3    1
    18     3     4    1
    19     4    16    1
    20    16    17   ar
    21    17    18   ar
    22    18    19   ar
    23    19    20   ar
    24     4     5    2
    25     5     6    1
    26     6     7    1
    27     6     9    1
    28     9    10   ar
    29    10    11   ar
    30    11    12   ar
    31    12    13    1
    32    12    14   ar
    33    14    15   ar
    34     6     1    1
    35    15     9   ar
    36    32    26    1
    37    20    16   ar
    38     3     8    1
@<TRIPOS>MOLECULE
*****
 35 38 0 0 0
SMALL
GASTEIGER

@<TRIPOS>ATOM
      1 C           3.4958    0.2056   21.8489 C.2     1  UNL1        0.1349
      2 C           4.7126   -0.5498   22.2946 C.2     1  UNL1        0.1353
      3 N           4.8945   -0.8909   23.7439 N.pl3   1  UNL1       -0.1998
      4 C           3.8597   -0.4766   24.7476 C.2     1  UNL1        0.3440
      5 N           2.6429    0.2788   24.3019 N.2     1  UNL1       -0.0630
      6 C           2.4609    0.6199   22.8526 C.3     1  UNL1        0.2210
      7 C           1.2122    1.2258   23.4216 C.3     1  UNL1        0.0631
      8 H           5.6932   -1.3868   24.0364 H       1  UNL1        0.2983
      9 C           1.8452    1.1715   21.6009 C.ar    1  UNL1        0.0261
     10 C           2.2318    2.5363   21.1133 C.ar    1  UNL1        0.0024
     11 C           1.6160    3.0878   19.8616 C.ar    1  UNL1        0.0295
     12 C           0.6137    2.2744   19.0975 C.ar    1  UNL1        0.1401
     13 F          -0.0020    2.8260   17.8458 F       1  UNL1       -0.2042
     14 C           0.2272    0.9096   19.5851 C.ar    1  UNL1        0.0295
     15 C           0.8429    0.3581   20.8368 C.ar    1  UNL1        0.0024
     16 C           4.0416   -0.8177   26.1969 C.ar    1  UNL1        0.1931
     17 N           3.1139   -0.4425   27.3142 N.ar    1  UNL1       -0.2297
     18 C           3.6821   -0.9868   28.5912 C.ar    1  UNL1        0.1067
     19 C           4.9611   -1.6985   28.2632 C.ar    1  UNL1        0.0577
     20 S           5.1833   -1.5940   26.7834 S.2     1  UNL1       -0.0586
     21 C           3.3138    0.5467   20.3996 C.2     1  UNL1        0.3446
     22 O           3.4184    1.2096   19.9693 O.2     1  UNL1       -0.2450
     23 C           3.2061   -0.4115   17.9871 C.3     1  UNL1        0.2559
     24 O           2.8337   -0.4991   19.4375 O.3     1  UNL1       -0.4414
     25 C           5.7475   -0.9642   21.2909 C.3     1  UNL1        0.1407
     26 N           5.4810   -2.1196   20.3722 N.3     1  UNL1       -0.2578
     27 C           4.5743   -3.2805   20.6557 C.3     1  UNL1        0.1401
     28 C           4.6074   -4.1954   19.4674 C.3     1  UNL1        0.2801
     29 F           3.6452   -5.0180   20.2719 F       1  UNL1       -0.2028
     30 F           4.4393   -5.2822   18.4474 F       1  UNL1       -0.2028
     31 C           5.5345   -3.5999   18.4496 C.3     1  UNL1        0.0897
     32 C           6.0744   -2.3170   19.0089 C.3     1  UNL1        0.1003
     33 C           7.0385   -1.3937   18.3248 C.2     1  UNL1        0.0650
     34 O           8.3742   -1.1100   18.9455 O.co2   1  UNL1       -0.5478
     35 O           6.6670   -0.7540   17.0198 O.co2   1  UNL1       -0.5478
@<TRIPOS>UNITY_ATOM_ATTR
34 1
charge -1
@<TRIPOS>BOND
     1    23    24    1
     2    24    21    1
     3    21    22    2
     4    21     1    1
     5     1     2    2
     6     2    25    1
     7    25    26    1
     8    26    27    1
     9    27    28    1
    10    28    29    1
    11    28    30    1
    12    28    31    1
    13    31    32    1
    14    32    33    1
    15    33    34   ar
    16    33    35   ar
    17     2     3    1
    18     3     4    1
    19     4    16    1
    20    16    17   ar
    21    17    18   ar
    22    18    19   ar
    23    19    20   ar
    24     4     5    2
    25     5     6    1
    26     6     7    1
    27     6     9    1
    28     9    10   ar
    29    10    11   ar
    30    11    12   ar
    31    12    13    1
    32    12    14   ar
    33    14    15   ar
    34     6     1    1
    35    15     9   ar
    36    32    26    1
    37    20    16   ar
    38     3     8    1
