@<TRIPOS>MOLECULE
*****
 40 43 0 0 0
SMALL
GASTEIGER

@<TRIPOS>ATOM
      1 N          -9.5193  -15.3080   23.5666 N.am    1  UNL1       -0.2683
      2 C         -10.2637  -16.5703   23.2465 C.2     1  UNL1        0.3044
      3 O          -9.6768  -17.9008   23.6143 O.2     1  UNL1       -0.2525
      4 N         -11.5949  -16.5020   22.5587 N.am    1  UNL1       -0.2902
      5 H          -9.9045  -14.4347   23.3253 H       1  UNL1        0.1564
      6 H         -11.9801  -15.6288   22.3174 H       1  UNL1        0.1509
      7 C          -6.7757  -15.3105   26.4342 C.ar    1  UNL1       -0.0209
      8 C          -8.1069  -15.2422   25.7463 C.ar    1  UNL1        0.0104
      9 C          -8.1880  -15.3762   24.2545 C.ar    1  UNL1        0.0514
     10 C          -6.9379  -15.5785   23.4506 C.ar    1  UNL1        0.0178
     11 C          -5.6068  -15.6468   24.1384 C.ar    1  UNL1        0.0383
     12 C          -5.5256  -15.5127   25.6302 C.ar    1  UNL1       -0.0011
     13 C          -4.3566  -15.8490   23.3345 C.ar    1  UNL1        0.1839
     14 N          -3.7751  -14.8787   22.3494 N.ar    1  UNL1       -0.1081
     15 N          -2.5276  -15.4871   21.7806 N.ar    1  UNL1       -0.0227
     16 N          -2.3381  -16.8335   22.4142 N.ar    1  UNL1       -0.0429
     17 N          -3.4684  -17.0571   23.3745 N.ar    1  UNL1       -0.2113
     18 C          -3.6744  -18.2751   24.2255 C.3     1  UNL1        0.1573
     19 C          -7.0447  -13.8738   28.5821 C.3     1  UNL1        0.0050
     20 C          -6.6946  -15.1764   27.9260 C.3     1  UNL1        0.0264
     21 C         -12.3393  -17.7644   22.2386 C.3     1  UNL1        0.0770
     22 C         -13.5207  -18.1696   23.0694 C.3     1  UNL1        0.0214
     23 C         -11.9023  -18.6214   21.0878 C.3     1  UNL1        0.0661
     24 C         -10.7997  -18.1570   20.1830 C.3     1  UNL1        0.1738
     25 O         -10.8517  -16.7840   19.5811 O.3     1  UNL1       -0.3697
     26 H         -10.0684  -16.6444   19.0262 H       1  UNL1        0.2119
     27 N          -9.6452  -19.0655   19.8800 N.3     1  UNL1       -0.2511
     28 C          -9.7082  -19.9906   18.7009 C.3     1  UNL1        0.0742
     29 C          -8.5537  -20.8991   18.3981 C.3     1  UNL1        0.0175
     30 C          -7.3363  -20.8826   19.2742 C.3     1  UNL1        0.0031
     31 C          -7.2734  -19.9575   20.4533 C.3     1  UNL1        0.0205
     32 C          -8.4279  -19.0490   20.7562 C.3     1  UNL1        0.0745
     33 C          -6.0560  -19.9410   21.3295 C.3     1  UNL1        0.0277
     34 C          -4.7281  -19.5371   20.7608 C.ar    1  UNL1       -0.0220
     35 C          -3.4640  -20.1183   21.3215 C.ar    1  UNL1       -0.0020
     36 C          -2.1361  -19.7145   20.7528 C.ar    1  UNL1        0.0293
     37 C          -2.0721  -18.7294   19.6234 C.ar    1  UNL1        0.1401
     38 F          -0.7441  -18.3255   19.0547 F       1  UNL1       -0.2042
     39 C          -3.3361  -18.1481   19.0627 C.ar    1  UNL1        0.0293
     40 C          -4.6642  -18.5520   19.6314 C.ar    1  UNL1       -0.0020
@<TRIPOS>BOND
     1    19    20    1
     2    20     7    1
     3     7     8   ar
     4     8     9   ar
     5     9     1    1
     6     1     2   am
     7     2     3    2
     8     2     4   am
     9     4    21    1
    10    21    22    1
    11    21    23    1
    12    23    24    1
    13    24    25    1
    14    24    27    1
    15    27    28    1
    16    28    29    1
    17    29    30    1
    18    30    31    1
    19    31    33    1
    20    33    34    1
    21    34    35   ar
    22    35    36   ar
    23    36    37   ar
    24    37    38    1
    25    37    39   ar
    26    39    40   ar
    27    31    32    1
    28     9    10   ar
    29    10    11   ar
    30    11    13    1
    31    13    14   ar
    32    14    15   ar
    33    15    16   ar
    34    16    17   ar
    35    17    18    1
    36    11    12   ar
    37    12     7   ar
    38    32    27    1
    39    17    13   ar
    40    40    34   ar
    41     1     5    1
    42     4     6    1
    43    25    26    1
@<TRIPOS>MOLECULE
*****
 40 43 0 0 0
SMALL
GASTEIGER

@<TRIPOS>ATOM
      1 N           4.8261   -2.9025   32.5668 N.am    1  UNL1       -0.2683
      2 C           6.1096   -3.0815   31.8115 C.2     1  UNL1        0.3044
      3 O           7.0360   -1.9172   31.6204 O.2     1  UNL1       -0.2525
      4 N           6.4668   -4.4246   31.2473 N.am    1  UNL1       -0.2902
      5 H           4.2181   -3.6666   32.6922 H       1  UNL1        0.1564
      6 H           5.8588   -5.1887   31.3727 H       1  UNL1        0.1509
      7 C           4.5643    0.1625   35.0742 C.ar    1  UNL1       -0.0209
      8 C           4.9215   -1.1806   34.5100 C.ar    1  UNL1        0.0104
      9 C           4.4689   -1.5592   33.1309 C.ar    1  UNL1        0.0514
     10 C           3.6592   -0.5947   32.3161 C.ar    1  UNL1        0.0178
     11 C           3.3020    0.7484   32.8803 C.ar    1  UNL1        0.0383
     12 C           3.7546    1.1270   34.2593 C.ar    1  UNL1       -0.0011
     13 C           2.4923    1.7130   32.0654 C.ar    1  UNL1        0.1839
     14 N           0.9968    1.7318   31.9508 N.ar    1  UNL1       -0.1081
     15 N           0.6160    2.8585   31.0367 N.ar    1  UNL1       -0.0227
     16 N           1.8763    3.5360   30.5863 N.ar    1  UNL1       -0.0429
     17 N           3.0359    2.8280   31.2221 N.ar    1  UNL1       -0.2113
     18 C           4.4846    3.1743   31.0455 C.3     1  UNL1        0.1573
     19 C           4.0129    0.6895   37.5578 C.3     1  UNL1        0.0050
     20 C           5.0169    0.5412   36.4532 C.3     1  UNL1        0.0264
     21 C           7.7504   -4.6036   30.4921 C.3     1  UNL1        0.0770
     22 C           9.0315   -4.8398   31.2358 C.3     1  UNL1        0.0214
     23 C           7.7529   -4.5465   28.9932 C.3     1  UNL1        0.0661
     24 C           6.4589   -4.4187   28.2454 C.3     1  UNL1        0.1738
     25 O           5.5408   -5.5990   28.1279 O.3     1  UNL1       -0.3697
     26 H           4.7551   -5.3479   27.6174 H       1  UNL1        0.2119
     27 N           6.0830   -3.1104   27.6150 N.3     1  UNL1       -0.2511
     28 C           6.4116   -2.8500   26.1748 C.3     1  UNL1        0.0742
     29 C           6.0357   -1.5418   25.5445 C.3     1  UNL1        0.0175
     30 C           5.3313   -0.4940   26.3544 C.3     1  UNL1        0.0031
     31 C           5.0027   -0.7544   27.7946 C.3     1  UNL1        0.0205
     32 C           5.3786   -2.0626   28.4249 C.3     1  UNL1        0.0745
     33 C           4.2983    0.2933   28.6045 C.3     1  UNL1        0.0277
     34 C           2.8230    0.5055   28.4359 C.ar    1  UNL1       -0.0220
     35 C           1.8507   -0.4142   29.1133 C.ar    1  UNL1       -0.0020
     36 C           0.3754   -0.2020   28.9447 C.ar    1  UNL1        0.0293
     37 C          -0.1276    0.9299   28.0988 C.ar    1  UNL1        0.1401
     38 F          -1.6030    1.1421   27.9302 F       1  UNL1       -0.2042
     39 C           0.8446    1.8497   27.4214 C.ar    1  UNL1        0.0293
     40 C           2.3200    1.6375   27.5900 C.ar    1  UNL1       -0.0020
@<TRIPOS>BOND
     1    19    20    1
     2    20     7    1
     3     7     8   ar
     4     8     9   ar
     5     9     1    1
     6     1     2   am
     7     2     3    2
     8     2     4   am
     9     4    21    1
    10    21    22    1
    11    21    23    1
    12    23    24    1
    13    24    25    1
    14    24    27    1
    15    27    28    1
    16    28    29    1
    17    29    30    1
    18    30    31    1
    19    31    33    1
    20    33    34    1
    21    34    35   ar
    22    35    36   ar
    23    36    37   ar
    24    37    38    1
    25    37    39   ar
    26    39    40   ar
    27    31    32    1
    28     9    10   ar
    29    10    11   ar
    30    11    13    1
    31    13    14   ar
    32    14    15   ar
    33    15    16   ar
    34    16    17   ar
    35    17    18    1
    36    11    12   ar
    37    12     7   ar
    38    32    27    1
    39    17    13   ar
    40    40    34   ar
    41     1     5    1
    42     4     6    1
    43    25    26    1
@<TRIPOS>MOLECULE
*****
 40 43 0 0 0
SMALL
GASTEIGER

@<TRIPOS>ATOM
      1 N           5.0821   -3.3317   32.9357 N.am    1  UNL1       -0.2683
      2 C           6.2350   -3.6390   32.0266 C.2     1  UNL1        0.3044
      3 O           6.8858   -2.5382   31.2424 O.2     1  UNL1       -0.2525
      4 N           6.7371   -5.0469   31.9018 N.am    1  UNL1       -0.2902
      5 H           4.6550   -4.0541   33.4504 H       1  UNL1        0.1564
      6 H           6.3100   -5.7693   32.4165 H       1  UNL1        0.1509
      7 C           4.3516    0.2702   34.4334 C.ar    1  UNL1       -0.0209
      8 C           4.8537   -1.1377   34.3085 C.ar    1  UNL1        0.0104
      9 C           4.5800   -1.9237   33.0606 C.ar    1  UNL1        0.0514
     10 C           3.8043   -1.3017   31.9375 C.ar    1  UNL1        0.0178
     11 C           3.3022    0.1062   32.0623 C.ar    1  UNL1        0.0383
     12 C           3.5759    0.8922   33.3103 C.ar    1  UNL1       -0.0011
     13 C           2.5265    0.7283   30.9392 C.ar    1  UNL1        0.1839
     14 N           1.0468    0.9738   30.9197 N.ar    1  UNL1       -0.1081
     15 N           0.7000    1.6113   29.6069 N.ar    1  UNL1       -0.0227
     16 N           1.9654    1.7597   28.8151 N.ar    1  UNL1       -0.0429
     17 N           3.0941    1.2140   29.6385 N.ar    1  UNL1       -0.2113
     18 C           4.5372    1.1630   29.2325 C.3     1  UNL1        0.1573
     19 C           3.4900    1.6724   36.4437 C.3     1  UNL1        0.0050
     20 C           4.6253    1.0561   35.6813 C.3     1  UNL1        0.0264
     21 C           7.8900   -5.3541   30.9927 C.3     1  UNL1        0.0770
     22 C           9.2810   -4.9504   31.3828 C.3     1  UNL1        0.0214
     23 C           7.6519   -6.0651   29.6935 C.3     1  UNL1        0.0661
     24 C           7.1102   -5.3120   28.5148 C.3     1  UNL1        0.1738
     25 O           6.2640   -4.0921   28.7285 O.3     1  UNL1       -0.3697
     26 H           5.9982   -3.7285   27.8695 H       1  UNL1        0.2119
     27 N           7.4148   -5.7790   27.1221 N.3     1  UNL1       -0.2511
     28 C           7.5638   -7.2442   26.8382 C.3     1  UNL1        0.0742
     29 C           7.8684   -7.7111   25.4456 C.3     1  UNL1        0.0175
     30 C           8.0239   -6.7127   24.3370 C.3     1  UNL1        0.0031
     31 C           7.8748   -5.2474   24.6210 C.3     1  UNL1        0.0205
     32 C           7.5703   -4.7805   26.0136 C.3     1  UNL1        0.0745
     33 C           8.0303   -4.2489   23.5124 C.3     1  UNL1        0.0277
     34 C           6.8945   -3.9962   22.5659 C.ar    1  UNL1       -0.0220
     35 C           7.1223   -4.0675   21.0849 C.ar    1  UNL1       -0.0020
     36 C           5.9865   -3.8148   20.1384 C.ar    1  UNL1        0.0293
     37 C           4.6228   -3.4908   20.6727 C.ar    1  UNL1        0.1401
     38 F           3.4869   -3.2381   19.7261 F       1  UNL1       -0.2042
     39 C           4.3950   -3.4195   22.1536 C.ar    1  UNL1        0.0293
     40 C           5.5309   -3.6722   23.1002 C.ar    1  UNL1       -0.0020
@<TRIPOS>BOND
     1    19    20    1
     2    20     7    1
     3     7     8   ar
     4     8     9   ar
     5     9     1    1
     6     1     2   am
     7     2     3    2
     8     2     4   am
     9     4    21    1
    10    21    22    1
    11    21    23    1
    12    23    24    1
    13    24    25    1
    14    24    27    1
    15    27    28    1
    16    28    29    1
    17    29    30    1
    18    30    31    1
    19    31    33    1
    20    33    34    1
    21    34    35   ar
    22    35    36   ar
    23    36    37   ar
    24    37    38    1
    25    37    39   ar
    26    39    40   ar
    27    31    32    1
    28     9    10   ar
    29    10    11   ar
    30    11    13    1
    31    13    14   ar
    32    14    15   ar
    33    15    16   ar
    34    16    17   ar
    35    17    18    1
    36    11    12   ar
    37    12     7   ar
    38    32    27    1
    39    17    13   ar
    40    40    34   ar
    41     1     5    1
    42     4     6    1
    43    25    26    1
@<TRIPOS>MOLECULE
*****
 40 43 0 0 0
SMALL
GASTEIGER

@<TRIPOS>ATOM
      1 N           0.5944    3.2206   23.3978 N.am    1  UNL1       -0.2683
      2 C           0.0078    2.9997   22.0350 C.2     1  UNL1        0.3044
      3 O          -1.3985    2.4965   21.8964 O.2     1  UNL1       -0.2525
      4 N           0.8275    3.2819   20.8109 N.am    1  UNL1       -0.2902
      5 H           1.5174    3.5508   23.4888 H       1  UNL1        0.1564
      6 H           1.7505    3.6121   20.9019 H       1  UNL1        0.1509
      7 C          -0.5924    1.6170   26.8285 C.ar    1  UNL1       -0.0209
      8 C           0.2273    1.8993   25.6045 C.ar    1  UNL1        0.0104
      9 C          -0.2254    2.9383   24.6219 C.ar    1  UNL1        0.0514
     10 C          -1.4977    3.6951   24.8634 C.ar    1  UNL1        0.0178
     11 C          -2.3174    3.4128   26.0875 C.ar    1  UNL1        0.0383
     12 C          -1.8647    2.3737   27.0700 C.ar    1  UNL1       -0.0011
     13 C          -3.5899    4.1696   26.3290 C.ar    1  UNL1        0.1839
     14 N          -3.8792    5.0555   27.5043 N.ar    1  UNL1       -0.1081
     15 N          -5.2644    5.6068   27.3394 N.ar    1  UNL1       -0.0227
     16 N          -5.8312    5.0615   26.0621 N.ar    1  UNL1       -0.0429
     17 N          -4.7963    4.1733   25.4377 N.ar    1  UNL1       -0.2113
     18 C          -4.9422    3.4209   24.1483 C.3     1  UNL1        0.1573
     19 C          -1.1453   -0.1338   28.6667 C.3     1  UNL1        0.0050
     20 C          -0.1397    0.5779   27.8111 C.3     1  UNL1        0.0264
     21 C           0.2409    3.0610   19.4482 C.3     1  UNL1        0.0770
     22 C          -0.7297    4.0534   18.8796 C.3     1  UNL1        0.0214
     23 C           0.6249    1.8479   18.6540 C.3     1  UNL1        0.0661
     24 C           0.8993    0.5496   19.3534 C.3     1  UNL1        0.1738
     25 O          -0.0323    0.0625   20.4233 O.3     1  UNL1       -0.3697
     26 H           0.2880   -0.7851   20.7696 H       1  UNL1        0.2119
     27 N           2.1054   -0.2616   18.9828 N.3     1  UNL1       -0.2511
     28 C           3.0179    0.2080   17.8888 C.3     1  UNL1        0.0742
     29 C           4.2240   -0.6032   17.5183 C.3     1  UNL1        0.0175
     30 C           4.5176   -1.8840   18.2417 C.3     1  UNL1        0.0031
     31 C           3.6051   -2.3536   19.3357 C.3     1  UNL1        0.0205
     32 C           2.3991   -1.5424   19.7063 C.3     1  UNL1        0.0745
     33 C           3.8987   -3.6344   20.0592 C.3     1  UNL1        0.0277
     34 C           4.9558   -3.6696   21.1228 C.ar    1  UNL1       -0.0220
     35 C           6.3941   -3.8654   20.7445 C.ar    1  UNL1       -0.0020
     36 C           7.4512   -3.9007   21.8081 C.ar    1  UNL1        0.0293
     37 C           7.0701   -3.7402   23.2500 C.ar    1  UNL1        0.1401
     38 F           8.1273   -3.7755   24.3136 F       1  UNL1       -0.2042
     39 C           5.6319   -3.5444   23.6282 C.ar    1  UNL1        0.0293
     40 C           4.5747   -3.5091   22.5646 C.ar    1  UNL1       -0.0020
@<TRIPOS>BOND
     1    19    20    1
     2    20     7    1
     3     7     8   ar
     4     8     9   ar
     5     9     1    1
     6     1     2   am
     7     2     3    2
     8     2     4   am
     9     4    21    1
    10    21    22    1
    11    21    23    1
    12    23    24    1
    13    24    25    1
    14    24    27    1
    15    27    28    1
    16    28    29    1
    17    29    30    1
    18    30    31    1
    19    31    33    1
    20    33    34    1
    21    34    35   ar
    22    35    36   ar
    23    36    37   ar
    24    37    38    1
    25    37    39   ar
    26    39    40   ar
    27    31    32    1
    28     9    10   ar
    29    10    11   ar
    30    11    13    1
    31    13    14   ar
    32    14    15   ar
    33    15    16   ar
    34    16    17   ar
    35    17    18    1
    36    11    12   ar
    37    12     7   ar
    38    32    27    1
    39    17    13   ar
    40    40    34   ar
    41     1     5    1
    42     4     6    1
    43    25    26    1
@<TRIPOS>MOLECULE
*****
 40 43 0 0 0
SMALL
GASTEIGER

@<TRIPOS>ATOM
      1 N          -0.0441    0.4910   20.5095 N.am    1  UNL1       -0.2683
      2 C          -0.3463    1.9591   20.5661 C.2     1  UNL1        0.3044
      3 O           0.7082    2.9250   21.0189 O.2     1  UNL1       -0.2525
      4 N          -1.7031    2.4614   20.1699 N.am    1  UNL1       -0.2902
      5 H          -0.7362   -0.1430   20.2123 H       1  UNL1        0.1564
      6 H          -2.3952    1.8275   19.8727 H       1  UNL1        0.1509
      7 C           3.0532   -0.5736   22.7507 C.ar    1  UNL1       -0.0209
      8 C           1.6965   -0.0714   22.3545 C.ar    1  UNL1        0.0104
      9 C           1.3127   -0.0113   20.9057 C.ar    1  UNL1        0.0514
     10 C           2.2856   -0.4533   19.8531 C.ar    1  UNL1        0.0178
     11 C           3.6423   -0.9555   20.2493 C.ar    1  UNL1        0.0383
     12 C           4.0261   -1.0157   21.6982 C.ar    1  UNL1       -0.0011
     13 C           4.6153   -1.3976   19.1967 C.ar    1  UNL1        0.1839
     14 N           5.5418   -0.5073   18.4228 N.ar    1  UNL1       -0.1081
     15 N           6.3317   -1.3670   17.4810 N.ar    1  UNL1       -0.0227
     16 N           5.8934   -2.7886   17.6729 N.ar    1  UNL1       -0.0429
     17 N           4.8327   -2.8075   18.7333 N.ar    1  UNL1       -0.2113
     18 C           4.1152   -4.0230   19.2410 C.3     1  UNL1        0.1573
     19 C           2.7300    0.2325   25.1993 C.3     1  UNL1        0.0050
     20 C           3.4370   -0.6338   24.1996 C.3     1  UNL1        0.0264
     21 C          -2.0053    3.9295   20.2266 C.3     1  UNL1        0.0770
     22 C          -1.5316    4.8357   19.1290 C.3     1  UNL1        0.0214
     23 C          -2.7812    4.4916   21.3807 C.3     1  UNL1        0.0661
     24 C          -3.6046    3.5828   22.2445 C.3     1  UNL1        0.1738
     25 O          -4.4440    2.5094   21.6174 O.3     1  UNL1       -0.3697
     26 H          -4.9092    2.0161   22.3111 H       1  UNL1        0.2119
     27 N          -3.5885    3.7474   23.7354 N.3     1  UNL1       -0.2511
     28 C          -4.8790    3.7983   24.4982 C.3     1  UNL1        0.0742
     29 C          -4.8629    3.9628   25.9891 C.3     1  UNL1        0.0175
     30 C          -3.5564    4.0766   26.7170 C.3     1  UNL1        0.0031
     31 C          -2.2659    4.0257   25.9542 C.3     1  UNL1        0.0205
     32 C          -2.2820    3.8611   24.4633 C.3     1  UNL1        0.0745
     33 C          -0.9593    4.1394   26.6821 C.3     1  UNL1        0.0277
     34 C          -0.4285    2.9702   27.4575 C.ar    1  UNL1       -0.0220
     35 C           0.6393    3.1777   28.4904 C.ar    1  UNL1       -0.0020
     36 C           1.1701    2.0085   29.2658 C.ar    1  UNL1        0.0293
     37 C           0.6332    0.6318   29.0082 C.ar    1  UNL1        0.1401
     38 F           1.1640   -0.5374   29.7836 F       1  UNL1       -0.2042
     39 C          -0.4345    0.4242   27.9753 C.ar    1  UNL1        0.0293
     40 C          -0.9654    1.5935   27.1999 C.ar    1  UNL1       -0.0020
@<TRIPOS>BOND
     1    19    20    1
     2    20     7    1
     3     7     8   ar
     4     8     9   ar
     5     9     1    1
     6     1     2   am
     7     2     3    2
     8     2     4   am
     9     4    21    1
    10    21    22    1
    11    21    23    1
    12    23    24    1
    13    24    25    1
    14    24    27    1
    15    27    28    1
    16    28    29    1
    17    29    30    1
    18    30    31    1
    19    31    33    1
    20    33    34    1
    21    34    35   ar
    22    35    36   ar
    23    36    37   ar
    24    37    38    1
    25    37    39   ar
    26    39    40   ar
    27    31    32    1
    28     9    10   ar
    29    10    11   ar
    30    11    13    1
    31    13    14   ar
    32    14    15   ar
    33    15    16   ar
    34    16    17   ar
    35    17    18    1
    36    11    12   ar
    37    12     7   ar
    38    32    27    1
    39    17    13   ar
    40    40    34   ar
    41     1     5    1
    42     4     6    1
    43    25    26    1
@<TRIPOS>MOLECULE
*****
 40 43 0 0 0
SMALL
GASTEIGER

@<TRIPOS>ATOM
      1 N           0.1683   -0.0054   20.4881 N.am    1  UNL1       -0.2683
      2 C           0.0112    1.4861   20.5132 C.2     1  UNL1        0.3044
      3 O           1.1873    2.3588   20.8380 O.2     1  UNL1       -0.2525
      4 N          -1.3219    2.1050   20.2137 N.am    1  UNL1       -0.2902
      5 H          -0.6036   -0.5782   20.2750 H       1  UNL1        0.1564
      6 H          -2.0938    1.5323   20.0006 H       1  UNL1        0.1509
      7 C           3.5057   -2.1106   20.0639 C.ar    1  UNL1       -0.0209
      8 C           2.1726   -1.4917   19.7644 C.ar    1  UNL1        0.0104
      9 C           1.5014   -0.6243   20.7877 C.ar    1  UNL1        0.0514
     10 C           2.1634   -0.3758   22.1106 C.ar    1  UNL1        0.0178
     11 C           3.4965   -0.9947   22.4101 C.ar    1  UNL1        0.0383
     12 C           4.1676   -1.8621   21.3868 C.ar    1  UNL1       -0.0011
     13 C           4.1586   -0.7462   23.7330 C.ar    1  UNL1        0.1839
     14 N           4.2311   -1.7126   24.8780 N.ar    1  UNL1       -0.1081
     15 N           4.9816   -1.0514   25.9958 N.ar    1  UNL1       -0.0227
     16 N           5.3729    0.3237   25.5417 N.ar    1  UNL1       -0.0429
     17 N           4.8642    0.5123   24.1432 N.ar    1  UNL1       -0.2113
     18 C           5.0319    1.7432   23.3026 C.3     1  UNL1        0.1573
     19 C           3.9763   -4.4643   19.0696 C.3     1  UNL1        0.0050
     20 C           4.1768   -2.9780   19.0406 C.3     1  UNL1        0.0264
     21 C          -1.4790    3.5966   20.2388 C.3     1  UNL1        0.0770
     22 C          -0.9116    4.4293   19.1275 C.3     1  UNL1        0.0214
     23 C          -2.2033    4.2554   21.3751 C.3     1  UNL1        0.0661
     24 C          -3.3040    3.5258   22.0865 C.3     1  UNL1        0.1738
     25 O          -4.2269    2.6270   21.3181 O.3     1  UNL1       -0.3697
     26 H          -4.8759    2.2360   21.9238 H       1  UNL1        0.2119
     27 N          -3.4819    3.6951   23.5663 N.3     1  UNL1       -0.2511
     28 C          -4.8602    3.7298   24.1570 C.3     1  UNL1        0.0742
     29 C          -5.0380    3.8990   25.6367 C.3     1  UNL1        0.0175
     30 C          -3.8374    4.0336   26.5258 C.3     1  UNL1        0.0031
     31 C          -2.4590    3.9990   25.9351 C.3     1  UNL1        0.0205
     32 C          -2.2813    3.8297   24.4554 C.3     1  UNL1        0.0745
     33 C          -1.2585    4.1336   26.8242 C.3     1  UNL1        0.0277
     34 C          -0.5117    2.9102   27.2664 C.ar    1  UNL1       -0.0220
     35 C           0.9864    2.9317   27.3404 C.ar    1  UNL1       -0.0020
     36 C           1.7331    1.7083   27.7826 C.ar    1  UNL1        0.0293
     37 C           0.9819    0.4633   28.1508 C.ar    1  UNL1        0.1401
     38 F           1.7287   -0.7602   28.5930 F       1  UNL1       -0.2042
     39 C          -0.5161    0.4417   28.0768 C.ar    1  UNL1        0.0293
     40 C          -1.2629    1.6651   27.6346 C.ar    1  UNL1       -0.0020
@<TRIPOS>BOND
     1    19    20    1
     2    20     7    1
     3     7     8   ar
     4     8     9   ar
     5     9     1    1
     6     1     2   am
     7     2     3    2
     8     2     4   am
     9     4    21    1
    10    21    22    1
    11    21    23    1
    12    23    24    1
    13    24    25    1
    14    24    27    1
    15    27    28    1
    16    28    29    1
    17    29    30    1
    18    30    31    1
    19    31    33    1
    20    33    34    1
    21    34    35   ar
    22    35    36   ar
    23    36    37   ar
    24    37    38    1
    25    37    39   ar
    26    39    40   ar
    27    31    32    1
    28     9    10   ar
    29    10    11   ar
    30    11    13    1
    31    13    14   ar
    32    14    15   ar
    33    15    16   ar
    34    16    17   ar
    35    17    18    1
    36    11    12   ar
    37    12     7   ar
    38    32    27    1
    39    17    13   ar
    40    40    34   ar
    41     1     5    1
    42     4     6    1
    43    25    26    1
@<TRIPOS>MOLECULE
*****
 40 43 0 0 0
SMALL
GASTEIGER

@<TRIPOS>ATOM
      1 N           6.1090   -3.8788   24.7029 N.am    1  UNL1       -0.2683
      2 C           7.0575   -4.8466   25.3460 C.2     1  UNL1        0.3044
      3 O           8.5228   -4.7817   25.0317 O.2     1  UNL1       -0.2525
      4 N           6.5408   -5.8793   26.3033 N.am    1  UNL1       -0.2902
      5 H           5.1472   -3.9214   24.9091 H       1  UNL1        0.1564
      6 H           5.5791   -5.9219   26.5096 H       1  UNL1        0.1509
      7 C           7.9845   -0.6787   23.2916 C.ar    1  UNL1       -0.0209
      8 C           7.4677   -1.7114   24.2489 C.ar    1  UNL1        0.0104
      9 C           6.6257   -2.8461   23.7455 C.ar    1  UNL1        0.0514
     10 C           6.3005   -2.9482   22.2848 C.ar    1  UNL1        0.0178
     11 C           6.8173   -1.9155   21.3275 C.ar    1  UNL1        0.0383
     12 C           7.6593   -0.7807   21.8309 C.ar    1  UNL1       -0.0011
     13 C           6.4921   -2.0175   19.8666 C.ar    1  UNL1        0.1839
     14 N           7.4753   -2.2555   18.7590 N.ar    1  UNL1       -0.1081
     15 N           6.7175   -2.2845   17.4648 N.ar    1  UNL1       -0.0227
     16 N           5.2660   -2.0645   17.7726 N.ar    1  UNL1       -0.0429
     17 N           5.1267   -1.8995   19.2570 N.ar    1  UNL1       -0.2113
     18 C           3.8467   -1.6587   20.0010 C.3     1  UNL1        0.1573
     19 C           8.9653    0.6901   25.2701 C.3     1  UNL1        0.0050
     20 C           8.8264    0.4561   23.7950 C.3     1  UNL1        0.0264
     21 C           7.4894   -6.8471   26.9465 C.3     1  UNL1        0.0770
     22 C           8.0311   -8.0025   26.1580 C.3     1  UNL1        0.0214
     23 C           7.8962   -6.6596   28.3780 C.3     1  UNL1        0.0661
     24 C           7.2610   -5.5797   29.2029 C.3     1  UNL1        0.1738
     25 O           6.4695   -5.9376   30.4257 O.3     1  UNL1       -0.3697
     26 H           6.1304   -5.1285   30.8396 H       1  UNL1        0.2119
     27 N           7.4174   -4.1419   28.8049 N.3     1  UNL1       -0.2511
     28 C           8.7875   -3.5530   28.6439 C.3     1  UNL1        0.0742
     29 C           8.9438   -2.1152   28.2459 C.3     1  UNL1        0.0175
     30 C           7.7300   -1.2664   28.0089 C.3     1  UNL1        0.0031
     31 C           6.3599   -1.8553   28.1698 C.3     1  UNL1        0.0205
     32 C           6.2036   -3.2931   28.5678 C.3     1  UNL1        0.0745
     33 C           5.1461   -1.0065   27.9328 C.3     1  UNL1        0.0277
     34 C           4.8185   -0.5368   26.5465 C.ar    1  UNL1       -0.0220
     35 C           5.4130    0.7385   26.0266 C.ar    1  UNL1       -0.0020
     36 C           5.0854    1.2083   24.6403 C.ar    1  UNL1        0.0293
     37 C           4.1632    0.4028   23.7738 C.ar    1  UNL1        0.1401
     38 F           3.8356    0.8726   22.3874 F       1  UNL1       -0.2042
     39 C           3.5687   -0.8724   24.2936 C.ar    1  UNL1        0.0293
     40 C           3.8963   -1.3422   25.6800 C.ar    1  UNL1       -0.0020
@<TRIPOS>BOND
     1    19    20    1
     2    20     7    1
     3     7     8   ar
     4     8     9   ar
     5     9     1    1
     6     1     2   am
     7     2     3    2
     8     2     4   am
     9     4    21    1
    10    21    22    1
    11    21    23    1
    12    23    24    1
    13    24    25    1
    14    24    27    1
    15    27    28    1
    16    28    29    1
    17    29    30    1
    18    30    31    1
    19    31    33    1
    20    33    34    1
    21    34    35   ar
    22    35    36   ar
    23    36    37   ar
    24    37    38    1
    25    37    39   ar
    26    39    40   ar
    27    31    32    1
    28     9    10   ar
    29    10    11   ar
    30    11    13    1
    31    13    14   ar
    32    14    15   ar
    33    15    16   ar
    34    16    17   ar
    35    17    18    1
    36    11    12   ar
    37    12     7   ar
    38    32    27    1
    39    17    13   ar
    40    40    34   ar
    41     1     5    1
    42     4     6    1
    43    25    26    1
@<TRIPOS>MOLECULE
*****
 40 43 0 0 0
SMALL
GASTEIGER

@<TRIPOS>ATOM
      1 N           5.4615   -0.5011   26.4098 N.am    1  UNL1       -0.2683
      2 C           4.2595   -0.3592   27.2958 C.2     1  UNL1        0.3044
      3 O           3.4353   -1.5643   27.6403 O.2     1  UNL1       -0.2525
      4 N           3.8817    0.9876   27.8373 N.am    1  UNL1       -0.2902
      5 H           6.0025    0.2897   26.1836 H       1  UNL1        0.1564
      6 H           4.4227    1.7785   27.6112 H       1  UNL1        0.1509
      7 C           6.9290   -4.1827   26.2029 C.ar    1  UNL1       -0.0209
      8 C           6.5513   -2.8358   26.7443 C.ar    1  UNL1        0.0104
      9 C           5.8393   -1.8481   25.8683 C.ar    1  UNL1        0.0514
     10 C           5.5051   -2.2072   24.4508 C.ar    1  UNL1        0.0178
     11 C           5.8829   -3.5540   23.9093 C.ar    1  UNL1        0.0383
     12 C           6.5948   -4.5418   24.7854 C.ar    1  UNL1       -0.0011
     13 C           5.5487   -3.9132   22.4918 C.ar    1  UNL1        0.1839
     14 N           4.2671   -4.5320   22.0177 N.ar    1  UNL1       -0.1081
     15 N           4.3636   -4.7179   20.5325 N.ar    1  UNL1       -0.0227
     16 N           5.7050   -4.2140   20.0885 N.ar    1  UNL1       -0.0429
     17 N           6.4373   -3.7167   21.2995 N.ar    1  UNL1       -0.2113
     18 C           7.8163   -3.1266   21.3153 C.3     1  UNL1        0.1573
     19 C           7.3669   -6.6377   26.9314 C.3     1  UNL1        0.0050
     20 C           7.6410   -5.1704   27.0789 C.3     1  UNL1        0.0264
     21 C           2.6797    1.1295   28.7233 C.3     1  UNL1        0.0770
     22 C           1.3119    1.2463   28.1187 C.3     1  UNL1        0.0214
     23 C           2.8455    1.1545   30.2139 C.3     1  UNL1        0.0661
     24 C           2.7293   -0.1159   31.0029 C.3     1  UNL1        0.1738
     25 O           1.8936   -1.2478   30.4831 O.3     1  UNL1       -0.3697
     26 H           1.9259   -1.9877   31.1095 H       1  UNL1        0.2119
     27 N           3.4487   -0.2542   32.3119 N.3     1  UNL1       -0.2511
     28 C           4.0992   -1.5558   32.6762 C.3     1  UNL1        0.0742
     29 C           4.8186   -1.6941   33.9851 C.3     1  UNL1        0.0175
     30 C           4.8876   -0.5309   34.9297 C.3     1  UNL1        0.0031
     31 C           4.2371    0.7706   34.5653 C.3     1  UNL1        0.0205
     32 C           3.5176    0.9090   33.2564 C.3     1  UNL1        0.0745
     33 C           4.3060    1.9339   35.5099 C.3     1  UNL1        0.0277
     34 C           3.3696    2.0068   36.6794 C.ar    1  UNL1       -0.0220
     35 C           2.4640    3.1915   36.8424 C.ar    1  UNL1       -0.0020
     36 C           1.5276    3.2644   38.0119 C.ar    1  UNL1        0.0293
     37 C           1.4967    2.1527   39.0185 C.ar    1  UNL1        0.1401
     38 F           0.5603    2.2257   40.1881 F       1  UNL1       -0.2042
     39 C           2.4023    0.9681   38.8556 C.ar    1  UNL1        0.0293
     40 C           3.3387    0.8951   37.6860 C.ar    1  UNL1       -0.0020
@<TRIPOS>BOND
     1    19    20    1
     2    20     7    1
     3     7     8   ar
     4     8     9   ar
     5     9     1    1
     6     1     2   am
     7     2     3    2
     8     2     4   am
     9     4    21    1
    10    21    22    1
    11    21    23    1
    12    23    24    1
    13    24    25    1
    14    24    27    1
    15    27    28    1
    16    28    29    1
    17    29    30    1
    18    30    31    1
    19    31    33    1
    20    33    34    1
    21    34    35   ar
    22    35    36   ar
    23    36    37   ar
    24    37    38    1
    25    37    39   ar
    26    39    40   ar
    27    31    32    1
    28     9    10   ar
    29    10    11   ar
    30    11    13    1
    31    13    14   ar
    32    14    15   ar
    33    15    16   ar
    34    16    17   ar
    35    17    18    1
    36    11    12   ar
    37    12     7   ar
    38    32    27    1
    39    17    13   ar
    40    40    34   ar
    41     1     5    1
    42     4     6    1
    43    25    26    1
@<TRIPOS>MOLECULE
*****
 40 43 0 0 0
SMALL
GASTEIGER

@<TRIPOS>ATOM
      1 N           4.6709   -2.7552   23.8242 N.am    1  UNL1       -0.2683
      2 C           6.0606   -3.2092   24.1594 C.2     1  UNL1        0.3044
      3 O           7.0685   -2.2235   24.6720 O.2     1  UNL1       -0.2525
      4 N           6.4425   -4.6489   23.9821 N.am    1  UNL1       -0.2902
      5 H           4.0094   -3.4021   23.4877 H       1  UNL1        0.1564
      6 H           5.7811   -5.2958   23.6457 H       1  UNL1        0.1509
      7 C           4.3456    1.1460   23.1720 C.ar    1  UNL1       -0.0209
      8 C           4.7275   -0.2937   22.9947 C.ar    1  UNL1        0.0104
      9 C           4.2889   -1.3154   24.0015 C.ar    1  UNL1        0.0514
     10 C           3.4686   -0.8975   25.1857 C.ar    1  UNL1        0.0178
     11 C           3.0867    0.5422   25.3630 C.ar    1  UNL1        0.0383
     12 C           3.5252    1.5639   24.3561 C.ar    1  UNL1       -0.0011
     13 C           2.2663    0.9602   26.5472 C.ar    1  UNL1        0.1839
     14 N           2.7594    1.0973   27.9572 N.ar    1  UNL1       -0.1081
     15 N           1.6067    1.5363   28.8108 N.ar    1  UNL1       -0.0227
     16 N           0.4012    1.6705   27.9282 N.ar    1  UNL1       -0.0429
     17 N           0.8089    1.3145   26.5293 N.ar    1  UNL1       -0.2113
     18 C          -0.0841    1.3130   25.3241 C.3     1  UNL1        0.1573
     19 C           4.2915    2.0863   20.7507 C.3     1  UNL1        0.0050
     20 C           4.7841    2.1677   22.1651 C.3     1  UNL1        0.0264
     21 C           7.8323   -5.1029   24.3173 C.3     1  UNL1        0.0770
     22 C           8.1778   -5.4823   25.7269 C.3     1  UNL1        0.0214
     23 C           8.8765   -5.1775   23.2431 C.3     1  UNL1        0.0661
     24 C           8.4749   -5.0994   21.8000 C.3     1  UNL1        0.1738
     25 O           8.5958   -6.3090   20.9213 O.3     1  UNL1       -0.3697
     26 H           8.2965   -6.0889   20.0253 H       1  UNL1        0.2119
     27 N           7.9525   -3.8115   21.2356 N.3     1  UNL1       -0.2511
     28 C           8.5686   -2.5074   21.6476 C.3     1  UNL1        0.0742
     29 C           8.0461   -1.2196   21.0832 C.3     1  UNL1        0.0175
     30 C           6.9075   -1.2359   20.1068 C.3     1  UNL1        0.0031
     31 C           6.2914   -2.5400   19.6948 C.3     1  UNL1        0.0205
     32 C           6.8139   -3.8278   20.2592 C.3     1  UNL1        0.0745
     33 C           5.1529   -2.5562   18.7184 C.3     1  UNL1        0.0277
     34 C           3.9551   -1.6832   18.9484 C.ar    1  UNL1       -0.0220
     35 C           3.5726   -0.6509   17.9294 C.ar    1  UNL1       -0.0020
     36 C           2.3748    0.2222   18.1594 C.ar    1  UNL1        0.0293
     37 C           1.5594    0.0631   19.4083 C.ar    1  UNL1        0.1401
     38 F           0.3616    0.9363   19.6383 F       1  UNL1       -0.2042
     39 C           1.9418   -0.9691   20.4273 C.ar    1  UNL1        0.0293
     40 C           3.1397   -1.8423   20.1973 C.ar    1  UNL1       -0.0020
@<TRIPOS>BOND
     1    19    20    1
     2    20     7    1
     3     7     8   ar
     4     8     9   ar
     5     9     1    1
     6     1     2   am
     7     2     3    2
     8     2     4   am
     9     4    21    1
    10    21    22    1
    11    21    23    1
    12    23    24    1
    13    24    25    1
    14    24    27    1
    15    27    28    1
    16    28    29    1
    17    29    30    1
    18    30    31    1
    19    31    33    1
    20    33    34    1
    21    34    35   ar
    22    35    36   ar
    23    36    37   ar
    24    37    38    1
    25    37    39   ar
    26    39    40   ar
    27    31    32    1
    28     9    10   ar
    29    10    11   ar
    30    11    13    1
    31    13    14   ar
    32    14    15   ar
    33    15    16   ar
    34    16    17   ar
    35    17    18    1
    36    11    12   ar
    37    12     7   ar
    38    32    27    1
    39    17    13   ar
    40    40    34   ar
    41     1     5    1
    42     4     6    1
    43    25    26    1
