@<TRIPOS>MOLECULE
*****
 37 40 0 0 0
SMALL
GASTEIGER

@<TRIPOS>ATOM
      1 C         -17.1976    3.0861   19.9414 C.3     1  UNL1        0.0478
      2 C         -15.0743    4.7238   23.5553 C.ar    1  UNL1       -0.0062
      3 C         -14.5154    4.9638   22.1841 C.ar    1  UNL1       -0.0032
      4 C         -15.2232    4.4179   20.9796 C.ar    1  UNL1       -0.0045
      5 C         -16.4899    3.6320   21.1461 C.ar    1  UNL1       -0.0205
      6 C         -17.0488    3.3919   22.5172 C.ar    1  UNL1       -0.0045
      7 C         -16.3410    3.9378   23.7218 C.ar    1  UNL1       -0.0032
      8 C         -14.3666    5.2697   24.7599 C.3     1  UNL1        0.0991
      9 C          -9.9065    5.8617   24.6729 C.3     1  UNL1        0.0743
     10 C         -10.4774    4.4806   24.8015 C.3     1  UNL1        0.0369
     11 C         -11.9641    4.2832   24.8305 C.3     1  UNL1        0.0741
     12 N         -12.8799    5.4670   24.7309 N.3     1  UNL1       -0.2689
     13 C         -12.3090    6.8481   24.6022 C.3     1  UNL1        0.0741
     14 C         -10.8223    7.0454   24.5732 C.3     1  UNL1        0.0369
     15 C          -6.1947    6.5795   25.8798 C.3     1  UNL1        0.0946
     16 C          -7.6813    6.3822   25.9088 C.2     1  UNL1        0.2229
     17 O          -8.4295    6.5080   27.2028 O.2     1  UNL1       -0.2751
     18 N          -8.4199    6.0590   24.6438 N.am    1  UNL1       -0.3059
     19 H          -7.9288    5.9764   23.7946 H       1  UNL1        0.1494
     20 C         -17.5127    1.6220   19.8561 C.3     1  UNL1        0.0984
     21 N         -16.4101    0.6292   19.6365 N.am    1  UNL1       -0.2740
     22 C         -15.0815    1.0875   19.1121 C.3     1  UNL1        0.1152
     23 C         -16.6359   -0.8221   19.9411 C.2     1  UNL1        0.2491
     24 O         -17.9644   -1.2805   20.4654 O.2     1  UNL1       -0.2699
     25 C         -15.5332   -1.8150   19.7214 C.ar    1  UNL1        0.0536
     26 C         -14.6509   -2.2211   20.8645 C.ar    1  UNL1        0.0045
     27 C         -13.5482   -3.2139   20.6448 C.ar    1  UNL1        0.0001
     28 C         -13.3278   -3.8007   19.2820 C.ar    1  UNL1        0.0000
     29 C         -14.2101   -3.3946   18.1390 C.ar    1  UNL1        0.0001
     30 C         -15.3128   -2.4018   18.3587 C.ar    1  UNL1        0.0045
     31 C         -12.2251   -4.7936   19.0624 C.ar    1  UNL1        0.0001
     32 C         -12.5451   -6.2532   18.9319 C.ar    1  UNL1        0.0023
     33 C         -11.4423   -7.2461   18.7122 C.ar    1  UNL1        0.0296
     34 C         -10.0196   -6.7793   18.6230 C.ar    1  UNL1        0.1401
     35 F          -8.9169   -7.7721   18.4034 F       1  UNL1       -0.2042
     36 C          -9.6996   -5.3196   18.7535 C.ar    1  UNL1        0.0296
     37 C         -10.8024   -4.3268   18.9732 C.ar    1  UNL1        0.0023
@<TRIPOS>BOND
     1    15    16    1
     2    16    17    2
     3    16    18   am
     4    18     9    1
     5     9    10    1
     6    10    11    1
     7    11    12    1
     8    12     8    1
     9     8     2    1
    10     2     3   ar
    11     3     4   ar
    12     4     5   ar
    13     5     1    1
    14     1    20    1
    15    20    21    1
    16    21    22    1
    17    21    23   am
    18    23    24    2
    19    23    25    1
    20    25    26   ar
    21    26    27   ar
    22    27    28   ar
    23    28    31    1
    24    31    32   ar
    25    32    33   ar
    26    33    34   ar
    27    34    35    1
    28    34    36   ar
    29    36    37   ar
    30    28    29   ar
    31    29    30   ar
    32     5     6   ar
    33     6     7   ar
    34    12    13    1
    35    13    14    1
    36    14     9    1
    37     7     2   ar
    38    30    25   ar
    39    37    31   ar
    40    18    19    1
@<TRIPOS>MOLECULE
*****
 37 40 0 0 0
SMALL
GASTEIGER

@<TRIPOS>ATOM
      1 C           8.9497   -5.9480   26.1319 C.3     1  UNL1        0.0478
      2 C           7.4582   -4.6219   30.1652 C.ar    1  UNL1       -0.0062
      3 C           6.5322   -5.3244   29.2169 C.ar    1  UNL1       -0.0032
      4 C           7.0294   -5.7664   27.8725 C.ar    1  UNL1       -0.0045
      5 C           8.4525   -5.5060   27.4763 C.ar    1  UNL1       -0.0205
      6 C           9.3785   -4.8036   28.4246 C.ar    1  UNL1       -0.0045
      7 C           8.8813   -4.3616   29.7690 C.ar    1  UNL1       -0.0032
      8 C           6.9611   -4.1799   31.5096 C.3     1  UNL1        0.0991
      9 C           4.3403   -0.5380   31.8535 C.3     1  UNL1        0.0743
     10 C           5.2316   -0.7106   30.6594 C.3     1  UNL1        0.0369
     11 C           6.1051   -1.9246   30.5448 C.3     1  UNL1        0.0741
     12 N           6.0875   -2.9660   31.6242 N.3     1  UNL1       -0.2689
     13 C           5.1962   -2.7934   32.8183 C.3     1  UNL1        0.0741
     14 C           4.3226   -1.5794   32.9329 C.3     1  UNL1        0.0369
     15 C           1.2877    1.9468   31.3462 C.3     1  UNL1        0.0946
     16 C           2.1613    0.7328   31.2315 C.2     1  UNL1        0.2229
     17 O           1.7294   -0.4243   30.3803 O.2     1  UNL1       -0.2751
     18 N           3.4667    0.6759   31.9681 N.am    1  UNL1       -0.3059
     19 H           3.7502    1.4354   32.5268 H       1  UNL1        0.1494
     20 C           9.4114   -4.9305   25.1313 C.3     1  UNL1        0.0984
     21 N           8.4074   -4.0995   24.3887 N.am    1  UNL1       -0.2740
     22 C           8.1277   -2.6923   24.8266 C.3     1  UNL1        0.1152
     23 C           7.6831   -4.6757   23.2083 C.2     1  UNL1        0.2491
     24 O           7.9628   -6.0828   22.7704 O.2     1  UNL1       -0.2699
     25 C           6.6790   -3.8447   22.4658 C.ar    1  UNL1        0.0536
     26 C           5.2706   -3.7410   22.9712 C.ar    1  UNL1        0.0045
     27 C           4.2666   -2.9100   22.2287 C.ar    1  UNL1        0.0001
     28 C           4.6710   -2.1827   20.9807 C.ar    1  UNL1        0.0000
     29 C           6.0794   -2.2864   20.4752 C.ar    1  UNL1        0.0001
     30 C           7.0834   -3.1173   21.2178 C.ar    1  UNL1        0.0045
     31 C           3.6669   -1.3516   20.2381 C.ar    1  UNL1        0.0001
     32 C           2.3077   -1.1146   20.8264 C.ar    1  UNL1        0.0023
     33 C           1.3036   -0.2835   20.0838 C.ar    1  UNL1        0.0296
     34 C           1.6589    0.3104   18.7530 C.ar    1  UNL1        0.1401
     35 F           0.6549    1.1414   18.0105 F       1  UNL1       -0.2042
     36 C           3.0182    0.0733   18.1648 C.ar    1  UNL1        0.0296
     37 C           4.0222   -0.7577   18.9073 C.ar    1  UNL1        0.0023
@<TRIPOS>BOND
     1    15    16    1
     2    16    17    2
     3    16    18   am
     4    18     9    1
     5     9    10    1
     6    10    11    1
     7    11    12    1
     8    12     8    1
     9     8     2    1
    10     2     3   ar
    11     3     4   ar
    12     4     5   ar
    13     5     1    1
    14     1    20    1
    15    20    21    1
    16    21    22    1
    17    21    23   am
    18    23    24    2
    19    23    25    1
    20    25    26   ar
    21    26    27   ar
    22    27    28   ar
    23    28    31    1
    24    31    32   ar
    25    32    33   ar
    26    33    34   ar
    27    34    35    1
    28    34    36   ar
    29    36    37   ar
    30    28    29   ar
    31    29    30   ar
    32     5     6   ar
    33     6     7   ar
    34    12    13    1
    35    13    14    1
    36    14     9    1
    37     7     2   ar
    38    30    25   ar
    39    37    31   ar
    40    18    19    1
@<TRIPOS>MOLECULE
*****
 37 40 0 0 0
SMALL
GASTEIGER

@<TRIPOS>ATOM
      1 C           0.5024    4.4501   18.4656 C.3     1  UNL1        0.0478
      2 C           2.7774    0.5683   18.3814 C.ar    1  UNL1       -0.0062
      3 C           3.5180    1.8702   18.4634 C.ar    1  UNL1       -0.0032
      4 C           2.7597    3.1640   18.4915 C.ar    1  UNL1       -0.0045
      5 C           1.2607    3.1561   18.4375 C.ar    1  UNL1       -0.0205
      6 C           0.5200    1.8544   18.3555 C.ar    1  UNL1       -0.0045
      7 C           1.2784    0.5604   18.3274 C.ar    1  UNL1       -0.0032
      8 C           3.5357   -0.7255   18.3533 C.3     1  UNL1        0.0991
      9 C           4.6383   -2.7714   22.2068 C.3     1  UNL1        0.0743
     10 C           3.6676   -1.6278   22.2158 C.3     1  UNL1        0.0369
     11 C           3.3001   -0.9459   20.9313 C.3     1  UNL1        0.0741
     12 N           3.9032   -1.4075   19.6378 N.3     1  UNL1       -0.2689
     13 C           4.8739   -2.5510   19.6288 C.3     1  UNL1        0.0741
     14 C           5.2414   -3.2330   20.9133 C.3     1  UNL1        0.0369
     15 C           6.5550   -3.6581   25.5668 C.3     1  UNL1        0.0946
     16 C           6.1875   -2.9761   24.2823 C.2     1  UNL1        0.2229
     17 O           7.0017   -1.8169   23.7889 O.2     1  UNL1       -0.2751
     18 N           5.0058   -3.4533   23.4912 N.am    1  UNL1       -0.3059
     19 H           4.4714   -4.2141   23.8151 H       1  UNL1        0.1494
     20 C          -0.2003    4.8805   19.7189 C.3     1  UNL1        0.0984
     21 N           0.2023    4.2994   21.0418 N.am    1  UNL1       -0.2740
     22 C           1.3882    4.8533   21.7746 C.3     1  UNL1        0.1152
     23 C          -0.5808    3.1643   21.6320 C.2     1  UNL1        0.2491
     24 O          -1.7667    2.6104   20.8993 O.2     1  UNL1       -0.2699
     25 C          -0.1781    2.5832   22.9549 C.ar    1  UNL1        0.0536
     26 C          -0.8030    3.0932   24.2196 C.ar    1  UNL1        0.0045
     27 C          -0.4003    2.5121   25.5424 C.ar    1  UNL1        0.0001
     28 C           0.6273    1.4209   25.6007 C.ar    1  UNL1        0.0000
     29 C           1.2522    0.9109   24.3361 C.ar    1  UNL1        0.0001
     30 C           0.8495    1.4921   23.0132 C.ar    1  UNL1        0.0045
     31 C           1.0301    0.8398   26.9237 C.ar    1  UNL1        0.0001
     32 C           2.4489    0.4109   27.1537 C.ar    1  UNL1        0.0023
     33 C           2.8516   -0.1703   28.4767 C.ar    1  UNL1        0.0296
     34 C           1.8354   -0.3224   29.5695 C.ar    1  UNL1        0.1401
     35 F           2.2381   -0.9035   30.8924 F       1  UNL1       -0.2042
     36 C           0.4166    0.1065   29.3394 C.ar    1  UNL1        0.0296
     37 C           0.0139    0.6876   28.0165 C.ar    1  UNL1        0.0023
@<TRIPOS>BOND
     1    15    16    1
     2    16    17    2
     3    16    18   am
     4    18     9    1
     5     9    10    1
     6    10    11    1
     7    11    12    1
     8    12     8    1
     9     8     2    1
    10     2     3   ar
    11     3     4   ar
    12     4     5   ar
    13     5     1    1
    14     1    20    1
    15    20    21    1
    16    21    22    1
    17    21    23   am
    18    23    24    2
    19    23    25    1
    20    25    26   ar
    21    26    27   ar
    22    27    28   ar
    23    28    31    1
    24    31    32   ar
    25    32    33   ar
    26    33    34   ar
    27    34    35    1
    28    34    36   ar
    29    36    37   ar
    30    28    29   ar
    31    29    30   ar
    32     5     6   ar
    33     6     7   ar
    34    12    13    1
    35    13    14    1
    36    14     9    1
    37     7     2   ar
    38    30    25   ar
    39    37    31   ar
    40    18    19    1
@<TRIPOS>MOLECULE
*****
 37 40 0 0 0
SMALL
GASTEIGER

@<TRIPOS>ATOM
      1 C           3.0314   -0.1273   17.7154 C.3     1  UNL1        0.0478
      2 C           1.1017    1.4830   21.4483 C.ar    1  UNL1       -0.0062
      3 C           2.2073    2.2496   20.7848 C.ar    1  UNL1       -0.0032
      4 C           2.8505    1.7128   19.5406 C.ar    1  UNL1       -0.0045
      5 C           2.3881    0.4095   18.9597 C.ar    1  UNL1       -0.0205
      6 C           1.2826   -0.3572   19.6231 C.ar    1  UNL1       -0.0045
      7 C           0.6394    0.1796   20.8674 C.ar    1  UNL1       -0.0032
      8 C           0.4585    2.0198   22.6925 C.3     1  UNL1        0.0991
      9 C           2.1554    0.9832   26.7294 C.3     1  UNL1        0.0743
     10 C           1.0793    2.0216   26.6123 C.3     1  UNL1        0.0369
     11 C           0.5137    2.3672   25.2666 C.3     1  UNL1        0.0741
     12 N           1.0242    1.6743   24.0381 N.3     1  UNL1       -0.2689
     13 C           2.1002    0.6359   24.1552 C.3     1  UNL1        0.0741
     14 C           2.6658    0.2904   25.5008 C.3     1  UNL1        0.0369
     15 C           2.4461   -0.4449   30.4207 C.3     1  UNL1        0.0946
     16 C           1.8805   -0.0994   29.0751 C.2     1  UNL1        0.2229
     17 O           0.4743   -0.4910   28.7295 O.2     1  UNL1       -0.2751
     18 N           2.7210    0.6377   28.0750 N.am    1  UNL1       -0.3059
     19 H           3.6439    0.8947   28.3018 H       1  UNL1        0.1494
     20 C           4.1808   -1.0854   17.8188 C.3     1  UNL1        0.0984
     21 N           4.7794   -1.3968   19.1585 N.am    1  UNL1       -0.2740
     22 C           5.8891   -0.5452   19.7004 C.3     1  UNL1        0.1152
     23 C           4.2685   -2.5597   19.9562 C.2     1  UNL1        0.2491
     24 O           3.1589   -3.4113   19.4144 O.2     1  UNL1       -0.2699
     25 C           4.8672   -2.8711   21.2959 C.ar    1  UNL1        0.0536
     26 C           6.1063   -3.7115   21.3867 C.ar    1  UNL1        0.0045
     27 C           6.7049   -4.0228   22.7263 C.ar    1  UNL1        0.0001
     28 C           6.0644   -3.4937   23.9752 C.ar    1  UNL1        0.0000
     29 C           4.8253   -2.6533   23.8845 C.ar    1  UNL1        0.0001
     30 C           4.2267   -2.3420   22.5449 C.ar    1  UNL1        0.0045
     31 C           6.6631   -3.8051   25.3149 C.ar    1  UNL1        0.0001
     32 C           6.9230   -5.2292   25.7075 C.ar    1  UNL1        0.0023
     33 C           7.5217   -5.5406   27.0472 C.ar    1  UNL1        0.0296
     34 C           7.8604   -4.4278   27.9943 C.ar    1  UNL1        0.1401
     35 F           8.4590   -4.7390   29.3339 F       1  UNL1       -0.2042
     36 C           7.6004   -3.0035   27.6016 C.ar    1  UNL1        0.0296
     37 C           7.0017   -2.6923   26.2620 C.ar    1  UNL1        0.0023
@<TRIPOS>BOND
     1    15    16    1
     2    16    17    2
     3    16    18   am
     4    18     9    1
     5     9    10    1
     6    10    11    1
     7    11    12    1
     8    12     8    1
     9     8     2    1
    10     2     3   ar
    11     3     4   ar
    12     4     5   ar
    13     5     1    1
    14     1    20    1
    15    20    21    1
    16    21    22    1
    17    21    23   am
    18    23    24    2
    19    23    25    1
    20    25    26   ar
    21    26    27   ar
    22    27    28   ar
    23    28    31    1
    24    31    32   ar
    25    32    33   ar
    26    33    34   ar
    27    34    35    1
    28    34    36   ar
    29    36    37   ar
    30    28    29   ar
    31    29    30   ar
    32     5     6   ar
    33     6     7   ar
    34    12    13    1
    35    13    14    1
    36    14     9    1
    37     7     2   ar
    38    30    25   ar
    39    37    31   ar
    40    18    19    1
@<TRIPOS>MOLECULE
*****
 37 40 0 0 0
SMALL
GASTEIGER

@<TRIPOS>ATOM
      1 C           3.6023   -0.5801   17.5211 C.3     1  UNL1        0.0478
      2 C           1.3517    0.8986   21.1265 C.ar    1  UNL1       -0.0062
      3 C           1.9758    1.8788   20.1779 C.ar    1  UNL1       -0.0032
      4 C           2.7259    1.3859   18.9761 C.ar    1  UNL1       -0.0045
      5 C           2.8521   -0.0872   18.7229 C.ar    1  UNL1       -0.0205
      6 C           2.2281   -1.0674   19.6715 C.ar    1  UNL1       -0.0045
      7 C           1.4779   -0.5745   20.8733 C.ar    1  UNL1       -0.0032
      8 C           0.6016    1.3915   22.3283 C.3     1  UNL1        0.0991
      9 C           2.4291    1.0322   26.4247 C.3     1  UNL1        0.0743
     10 C           3.3063    1.0161   25.2081 C.3     1  UNL1        0.0369
     11 C           2.6971    1.1358   23.8426 C.3     1  UNL1        0.0741
     12 N           1.2107    1.2717   23.6937 N.3     1  UNL1       -0.2689
     13 C           0.3335    1.2878   24.9104 C.3     1  UNL1        0.0741
     14 C           0.9427    1.1681   26.2759 C.3     1  UNL1        0.0369
     15 C           4.0500   -0.5529   29.6820 C.3     1  UNL1        0.0946
     16 C           3.4408   -0.4332   28.3165 C.2     1  UNL1        0.2229
     17 O           3.2342   -1.6592   27.4773 O.2     1  UNL1       -0.2751
     18 N           3.0382    0.9125   27.7902 N.am    1  UNL1       -0.3059
     19 H           3.1738    1.7171   28.3410 H       1  UNL1        0.1494
     20 C           5.0093   -1.0788   17.6678 C.3     1  UNL1        0.0984
     21 N           5.3507   -2.0501   18.7586 N.am    1  UNL1       -0.2740
     22 C           5.0625   -3.5113   18.5792 C.3     1  UNL1        0.1152
     23 C           5.9804   -1.5604   20.0289 C.2     1  UNL1        0.2491
     24 O           6.2687   -0.0994   20.2084 O.2     1  UNL1       -0.2699
     25 C           6.3219   -2.5318   21.1198 C.ar    1  UNL1        0.0536
     26 C           5.3575   -2.7659   22.2445 C.ar    1  UNL1        0.0045
     27 C           5.6990   -3.7372   23.3353 C.ar    1  UNL1        0.0001
     28 C           7.0048   -4.4746   23.3013 C.ar    1  UNL1        0.0000
     29 C           7.9691   -4.2405   22.1765 C.ar    1  UNL1        0.0001
     30 C           7.6277   -3.2692   21.0857 C.ar    1  UNL1        0.0045
     31 C           7.3462   -5.4460   24.3921 C.ar    1  UNL1        0.0001
     32 C           8.1282   -6.6859   24.0745 C.ar    1  UNL1        0.0023
     33 C           8.4696   -7.6573   25.1654 C.ar    1  UNL1        0.0296
     34 C           8.0290   -7.3887   26.5738 C.ar    1  UNL1        0.1401
     35 F           8.3704   -8.3600   27.6646 F       1  UNL1       -0.2042
     36 C           7.2470   -6.1486   26.8914 C.ar    1  UNL1        0.0296
     37 C           6.9056   -5.1773   25.8006 C.ar    1  UNL1        0.0023
@<TRIPOS>BOND
     1    15    16    1
     2    16    17    2
     3    16    18   am
     4    18     9    1
     5     9    10    1
     6    10    11    1
     7    11    12    1
     8    12     8    1
     9     8     2    1
    10     2     3   ar
    11     3     4   ar
    12     4     5   ar
    13     5     1    1
    14     1    20    1
    15    20    21    1
    16    21    22    1
    17    21    23   am
    18    23    24    2
    19    23    25    1
    20    25    26   ar
    21    26    27   ar
    22    27    28   ar
    23    28    31    1
    24    31    32   ar
    25    32    33   ar
    26    33    34   ar
    27    34    35    1
    28    34    36   ar
    29    36    37   ar
    30    28    29   ar
    31    29    30   ar
    32     5     6   ar
    33     6     7   ar
    34    12    13    1
    35    13    14    1
    36    14     9    1
    37     7     2   ar
    38    30    25   ar
    39    37    31   ar
    40    18    19    1
@<TRIPOS>MOLECULE
*****
 37 40 0 0 0
SMALL
GASTEIGER

@<TRIPOS>ATOM
      1 C           8.5034   -3.5948   31.7987 C.3     1  UNL1        0.0478
      2 C           4.8920   -0.9348   32.1638 C.ar    1  UNL1       -0.0062
      3 C           6.1723   -0.3887   31.6048 C.ar    1  UNL1       -0.0032
      4 C           7.3761   -1.2753   31.4831 C.ar    1  UNL1       -0.0045
      5 C           7.2995   -2.7081   31.9204 C.ar    1  UNL1       -0.0205
      6 C           6.0192   -3.2543   32.4795 C.ar    1  UNL1       -0.0045
      7 C           4.8154   -2.3676   32.6012 C.ar    1  UNL1       -0.0032
      8 C           3.6882   -0.0482   32.2855 C.3     1  UNL1        0.0991
      9 C           0.9279    0.4929   28.7730 C.3     1  UNL1        0.0743
     10 C           0.7613    1.3451   29.9961 C.3     1  UNL1        0.0369
     11 C           1.6814    1.1647   31.1669 C.3     1  UNL1        0.0741
     12 N           2.7681    0.1322   31.1147 N.3     1  UNL1       -0.2689
     13 C           2.9347   -0.7200   29.8916 C.3     1  UNL1        0.0741
     14 C           2.0146   -0.5397   28.7208 C.3     1  UNL1        0.0369
     15 C          -0.5888    1.8651   25.3721 C.3     1  UNL1        0.0946
     16 C           0.3313    1.6848   26.5429 C.2     1  UNL1        0.2229
     17 O           1.5750    2.5160   26.6545 O.2     1  UNL1       -0.2751
     18 N           0.0078    0.6732   27.6022 N.am    1  UNL1       -0.3059
     19 H          -0.8084    0.1277   27.5290 H       1  UNL1        0.1494
     20 C           8.5421   -4.6672   30.7507 C.3     1  UNL1        0.0984
     21 N           7.7721   -4.4970   29.4748 N.am    1  UNL1       -0.2740
     22 C           6.5354   -5.3101   29.2309 C.3     1  UNL1        0.1152
     23 C           8.2389   -3.5138   28.4426 C.2     1  UNL1        0.2491
     24 O           9.4756   -2.7007   28.6864 O.2     1  UNL1       -0.2699
     25 C           7.4689   -3.3436   27.1665 C.ar    1  UNL1        0.0536
     26 C           6.4355   -2.2624   27.0527 C.ar    1  UNL1        0.0045
     27 C           5.6655   -2.0923   25.7767 C.ar    1  UNL1        0.0001
     28 C           5.9290   -3.0034   24.6146 C.ar    1  UNL1        0.0000
     29 C           6.9623   -4.0846   24.7285 C.ar    1  UNL1        0.0001
     30 C           7.7323   -4.2548   26.0045 C.ar    1  UNL1        0.0045
     31 C           5.1589   -2.8333   23.3385 C.ar    1  UNL1        0.0001
     32 C           4.2611   -1.6455   23.1571 C.ar    1  UNL1        0.0023
     33 C           3.4911   -1.4753   21.8810 C.ar    1  UNL1        0.0296
     34 C           3.6190   -2.4930   20.7865 C.ar    1  UNL1        0.1401
     35 F           2.8490   -2.3229   19.5105 F       1  UNL1       -0.2042
     36 C           4.5169   -3.6809   20.9680 C.ar    1  UNL1        0.0296
     37 C           5.2868   -3.8510   22.2440 C.ar    1  UNL1        0.0023
@<TRIPOS>BOND
     1    15    16    1
     2    16    17    2
     3    16    18   am
     4    18     9    1
     5     9    10    1
     6    10    11    1
     7    11    12    1
     8    12     8    1
     9     8     2    1
    10     2     3   ar
    11     3     4   ar
    12     4     5   ar
    13     5     1    1
    14     1    20    1
    15    20    21    1
    16    21    22    1
    17    21    23   am
    18    23    24    2
    19    23    25    1
    20    25    26   ar
    21    26    27   ar
    22    27    28   ar
    23    28    31    1
    24    31    32   ar
    25    32    33   ar
    26    33    34   ar
    27    34    35    1
    28    34    36   ar
    29    36    37   ar
    30    28    29   ar
    31    29    30   ar
    32     5     6   ar
    33     6     7   ar
    34    12    13    1
    35    13    14    1
    36    14     9    1
    37     7     2   ar
    38    30    25   ar
    39    37    31   ar
    40    18    19    1
@<TRIPOS>MOLECULE
*****
 37 40 0 0 0
SMALL
GASTEIGER

@<TRIPOS>ATOM
      1 C           0.5158    2.4574   18.2334 C.3     1  UNL1        0.0478
      2 C           2.8971   -1.0916   19.6421 C.ar    1  UNL1       -0.0062
      3 C           3.5180   -0.0941   18.7097 C.ar    1  UNL1       -0.0032
      4 C           2.7242    1.0889   18.2401 C.ar    1  UNL1       -0.0045
      5 C           1.3096    1.2744   18.7030 C.ar    1  UNL1       -0.0205
      6 C           0.6886    0.2769   19.6354 C.ar    1  UNL1       -0.0045
      7 C           1.4824   -0.9061   20.1050 C.ar    1  UNL1       -0.0032
      8 C           3.6908   -2.2746   20.1117 C.3     1  UNL1        0.0991
      9 C           5.5896   -2.2343   24.1913 C.3     1  UNL1        0.0743
     10 C           5.3334   -3.5385   23.4961 C.3     1  UNL1        0.0369
     11 C           4.7005   -3.5519   22.1362 C.3     1  UNL1        0.0741
     12 N           4.3237   -2.2611   21.4715 N.3     1  UNL1       -0.2689
     13 C           4.5799   -0.9569   22.1667 C.3     1  UNL1        0.0741
     14 C           5.2128   -0.9435   23.5266 C.3     1  UNL1        0.0369
     15 C           6.0203   -1.9234   28.1242 C.3     1  UNL1        0.0946
     16 C           5.3874   -1.9368   26.7643 C.2     1  UNL1        0.2229
     17 O           3.9192   -1.6662   26.6177 O.2     1  UNL1       -0.2751
     18 N           6.2225   -2.2208   25.5511 N.am    1  UNL1       -0.3059
     19 H           7.1860   -2.3984   25.6474 H       1  UNL1        0.1494
     20 C           0.2979    3.6256   19.1488 C.3     1  UNL1        0.0984
     21 N           0.4656    3.4591   20.6300 N.am    1  UNL1       -0.2740
     22 C           1.7463    3.8748   21.2913 C.3     1  UNL1        0.1152
     23 C          -0.6472    2.8769   21.4501 C.2     1  UNL1        0.2491
     24 O          -1.9278    2.4611   20.7890 O.2     1  UNL1       -0.2699
     25 C          -0.4794    2.7104   22.9315 C.ar    1  UNL1        0.0536
     26 C          -1.2696    3.5661   23.8766 C.ar    1  UNL1        0.0045
     27 C          -1.1017    3.3997   25.3578 C.ar    1  UNL1        0.0001
     28 C          -0.1438    2.3774   25.8939 C.ar    1  UNL1        0.0000
     29 C           0.6464    1.5217   24.9488 C.ar    1  UNL1        0.0001
     30 C           0.4785    1.6882   23.4675 C.ar    1  UNL1        0.0045
     31 C           0.0240    2.2110   27.3752 C.ar    1  UNL1        0.0001
     32 C           0.8088    3.2206   28.1593 C.ar    1  UNL1        0.0023
     33 C           0.9766    3.0542   29.6406 C.ar    1  UNL1        0.0296
     34 C           0.3596    1.8780   30.3378 C.ar    1  UNL1        0.1401
     35 F           0.5274    1.7115   31.8190 F       1  UNL1       -0.2042
     36 C          -0.4252    0.8684   29.5536 C.ar    1  UNL1        0.0296
     37 C          -0.5929    1.0349   28.0724 C.ar    1  UNL1        0.0023
@<TRIPOS>BOND
     1    15    16    1
     2    16    17    2
     3    16    18   am
     4    18     9    1
     5     9    10    1
     6    10    11    1
     7    11    12    1
     8    12     8    1
     9     8     2    1
    10     2     3   ar
    11     3     4   ar
    12     4     5   ar
    13     5     1    1
    14     1    20    1
    15    20    21    1
    16    21    22    1
    17    21    23   am
    18    23    24    2
    19    23    25    1
    20    25    26   ar
    21    26    27   ar
    22    27    28   ar
    23    28    31    1
    24    31    32   ar
    25    32    33   ar
    26    33    34   ar
    27    34    35    1
    28    34    36   ar
    29    36    37   ar
    30    28    29   ar
    31    29    30   ar
    32     5     6   ar
    33     6     7   ar
    34    12    13    1
    35    13    14    1
    36    14     9    1
    37     7     2   ar
    38    30    25   ar
    39    37    31   ar
    40    18    19    1
@<TRIPOS>MOLECULE
*****
 37 40 0 0 0
SMALL
GASTEIGER

@<TRIPOS>ATOM
      1 C           3.8256   -0.9931   17.3147 C.3     1  UNL1        0.0478
      2 C           6.4885   -3.4361   19.9964 C.ar    1  UNL1       -0.0062
      3 C           6.9179   -2.0672   19.5584 C.ar    1  UNL1       -0.0032
      4 C           6.0303   -1.2529   18.6646 C.ar    1  UNL1       -0.0045
      5 C           4.7133   -1.8074   18.2086 C.ar    1  UNL1       -0.0205
      6 C           4.2839   -3.1763   18.6465 C.ar    1  UNL1       -0.0045
      7 C           5.1715   -3.9907   19.5404 C.ar    1  UNL1       -0.0032
      8 C           7.3761   -4.2504   20.8902 C.3     1  UNL1        0.0991
      9 C           6.6283   -4.3404   25.3267 C.3     1  UNL1        0.0743
     10 C           7.6804   -5.2243   24.7255 C.3     1  UNL1        0.0369
     11 C           7.9297   -5.1943   23.2466 C.3     1  UNL1        0.0741
     12 N           7.1268   -4.2804   22.3691 N.3     1  UNL1       -0.2689
     13 C           6.0747   -3.3965   22.9704 C.3     1  UNL1        0.0741
     14 C           5.8254   -3.4265   24.4492 C.3     1  UNL1        0.0369
     15 C           6.6990   -3.3261   29.1629 C.3     1  UNL1        0.0946
     16 C           6.9483   -3.2961   27.6841 C.2     1  UNL1        0.2229
     17 O           7.7670   -2.1918   27.0838 O.2     1  UNL1       -0.2751
     18 N           6.3790   -4.3704   26.8056 N.am    1  UNL1       -0.3059
     19 H           5.8416   -5.0951   27.1996 H       1  UNL1        0.1494
     20 C           3.1586    0.2419   17.8437 C.3     1  UNL1        0.0984
     21 N           2.6195    0.2621   19.2433 N.am    1  UNL1       -0.2740
     22 C           1.3294   -0.4345   19.5602 C.3     1  UNL1        0.1152
     23 C           3.3704    0.9790   20.3260 C.2     1  UNL1        0.2491
     24 O           4.6605    1.6756   20.0090 O.2     1  UNL1       -0.2699
     25 C           2.8313    0.9992   21.7256 C.ar    1  UNL1        0.0536
     26 C           3.2408   -0.0629   22.7025 C.ar    1  UNL1        0.0045
     27 C           2.7017   -0.0426   24.1021 C.ar    1  UNL1        0.0001
     28 C           1.7530    1.0397   24.5248 C.ar    1  UNL1        0.0000
     29 C           1.3434    2.1017   23.5479 C.ar    1  UNL1        0.0001
     30 C           1.8826    2.0814   22.1483 C.ar    1  UNL1        0.0045
     31 C           1.2138    1.0599   25.9244 C.ar    1  UNL1        0.0001
     32 C          -0.2167    1.4371   26.1717 C.ar    1  UNL1        0.0023
     33 C          -0.7559    1.4573   27.5714 C.ar    1  UNL1        0.0296
     34 C           0.1356    1.1003   28.7237 C.ar    1  UNL1        0.1401
     35 F          -0.4035    1.1205   30.1233 F       1  UNL1       -0.2042
     36 C           1.5662    0.7230   28.4763 C.ar    1  UNL1        0.0296
     37 C           2.1053    0.7028   27.0767 C.ar    1  UNL1        0.0023
@<TRIPOS>BOND
     1    15    16    1
     2    16    17    2
     3    16    18   am
     4    18     9    1
     5     9    10    1
     6    10    11    1
     7    11    12    1
     8    12     8    1
     9     8     2    1
    10     2     3   ar
    11     3     4   ar
    12     4     5   ar
    13     5     1    1
    14     1    20    1
    15    20    21    1
    16    21    22    1
    17    21    23   am
    18    23    24    2
    19    23    25    1
    20    25    26   ar
    21    26    27   ar
    22    27    28   ar
    23    28    31    1
    24    31    32   ar
    25    32    33   ar
    26    33    34   ar
    27    34    35    1
    28    34    36   ar
    29    36    37   ar
    30    28    29   ar
    31    29    30   ar
    32     5     6   ar
    33     6     7   ar
    34    12    13    1
    35    13    14    1
    36    14     9    1
    37     7     2   ar
    38    30    25   ar
    39    37    31   ar
    40    18    19    1
@<TRIPOS>MOLECULE
*****
 37 40 0 0 0
SMALL
GASTEIGER

@<TRIPOS>ATOM
      1 C           3.8939   -1.1745   17.6662 C.3     1  UNL1        0.0478
      2 C           2.0262    1.1402   21.0432 C.ar    1  UNL1       -0.0062
      3 C           2.9201    1.8370   20.0605 C.ar    1  UNL1       -0.0032
      4 C           3.5426    1.0654   18.9349 C.ar    1  UNL1       -0.0045
      5 C           3.2713   -0.4029   18.7919 C.ar    1  UNL1       -0.0205
      6 C           2.3775   -1.0996   19.7745 C.ar    1  UNL1       -0.0045
      7 C           1.7549   -0.3281   20.9002 C.ar    1  UNL1       -0.0032
      8 C           1.4036    1.9118   22.1688 C.3     1  UNL1        0.0991
      9 C          -2.6674    3.7579   21.6501 C.3     1  UNL1        0.0743
     10 C          -1.9784    3.8229   22.9809 C.3     1  UNL1        0.0369
     11 C          -0.6214    3.2076   23.1538 C.3     1  UNL1        0.0741
     12 N           0.0466    2.5272   21.9959 N.3     1  UNL1       -0.2689
     13 C          -0.6424    2.4621   20.6651 C.3     1  UNL1        0.0741
     14 C          -1.9994    3.0775   20.4922 C.3     1  UNL1        0.0369
     15 C          -6.5574    4.4334   22.0518 C.3     1  UNL1        0.0946
     16 C          -5.2004    3.8181   22.2247 C.2     1  UNL1        0.2229
     17 O          -5.0195    2.6475   23.1451 O.2     1  UNL1       -0.2751
     18 N          -4.0244    4.3732   21.4773 N.am    1  UNL1       -0.3059
     19 H          -4.1432    5.1415   20.8732 H       1  UNL1        0.1494
     20 C           5.2640   -1.7633   17.8281 C.3     1  UNL1        0.0984
     21 N           5.5591   -2.6682   18.9874 N.am    1  UNL1       -0.2740
     22 C           5.0083   -4.0633   19.0091 C.3     1  UNL1        0.1152
     23 C           6.4050   -2.1781   20.1250 C.2     1  UNL1        0.2491
     24 O           6.9558   -0.7831   20.1034 O.2     1  UNL1       -0.2699
     25 C           6.7002   -3.0832   21.2844 C.ar    1  UNL1        0.0536
     26 C           7.8959   -3.9879   21.2441 C.ar    1  UNL1        0.0045
     27 C           8.1910   -4.8928   22.4034 C.ar    1  UNL1        0.0001
     28 C           7.2903   -4.8930   23.6029 C.ar    1  UNL1        0.0000
     29 C           6.0946   -3.9883   23.6431 C.ar    1  UNL1        0.0001
     30 C           5.7995   -3.0834   22.4839 C.ar    1  UNL1        0.0045
     31 C           7.5854   -5.7981   24.7622 C.ar    1  UNL1        0.0001
     32 C           7.0959   -5.4426   26.1348 C.ar    1  UNL1        0.0023
     33 C           7.3911   -6.3476   27.2941 C.ar    1  UNL1        0.0296
     34 C           8.1757   -7.6081   27.0807 C.ar    1  UNL1        0.1401
     35 F           8.4709   -8.5131   28.2400 F       1  UNL1       -0.2042
     36 C           8.6652   -7.9635   25.7081 C.ar    1  UNL1        0.0296
     37 C           8.3701   -7.0585   24.5489 C.ar    1  UNL1        0.0023
@<TRIPOS>BOND
     1    15    16    1
     2    16    17    2
     3    16    18   am
     4    18     9    1
     5     9    10    1
     6    10    11    1
     7    11    12    1
     8    12     8    1
     9     8     2    1
    10     2     3   ar
    11     3     4   ar
    12     4     5   ar
    13     5     1    1
    14     1    20    1
    15    20    21    1
    16    21    22    1
    17    21    23   am
    18    23    24    2
    19    23    25    1
    20    25    26   ar
    21    26    27   ar
    22    27    28   ar
    23    28    31    1
    24    31    32   ar
    25    32    33   ar
    26    33    34   ar
    27    34    35    1
    28    34    36   ar
    29    36    37   ar
    30    28    29   ar
    31    29    30   ar
    32     5     6   ar
    33     6     7   ar
    34    12    13    1
    35    13    14    1
    36    14     9    1
    37     7     2   ar
    38    30    25   ar
    39    37    31   ar
    40    18    19    1
