@<TRIPOS>MOLECULE
*****
 21 22 0 0 0
SMALL
GASTEIGER

@<TRIPOS>ATOM
      1 C          -9.1153  -17.5565   21.9843 C.ar    1  UNL1        0.1427
      2 C          -7.6569  -17.9000   22.0535 C.ar    1  UNL1        0.0371
      3 C          -7.0675  -18.8700   21.0728 C.ar    1  UNL1        0.0045
      4 C          -7.9366  -19.4965   20.0230 C.ar    1  UNL1        0.0004
      5 C          -9.3951  -19.1529   19.9538 C.ar    1  UNL1        0.0076
      6 C          -9.9844  -18.1829   20.9345 C.ar    1  UNL1        0.0870
      7 C          -5.6090  -19.2136   21.1420 C.ar    1  UNL1        0.0193
      8 C          -4.9735  -20.0119   20.0424 C.ar    1  UNL1        0.0031
      9 C          -3.5151  -20.3554   20.1116 C.ar    1  UNL1        0.0207
     10 C          -2.6920  -19.9007   21.2803 C.ar    1  UNL1        0.0989
     11 N          -3.3274  -19.1025   22.3799 N.ar    1  UNL1       -0.2423
     12 C          -4.7860  -18.7589   22.3107 C.ar    1  UNL1        0.0988
     13 C         -11.4430  -17.8393   20.8653 C.2     1  UNL1        0.2457
     14 N         -12.3319  -18.1011   22.0448 N.am    1  UNL1       -0.3252
     15 O         -12.0125  -17.2340   19.6167 O.2     1  UNL1       -0.2703
     16 H         -11.9581  -18.4985   22.8643 H       1  UNL1        0.1453
     17 H         -13.2892  -17.8757   21.9994 H       1  UNL1        0.1453
     18 O          -9.7047  -16.5864   22.9650 O.3     1  UNL1       -0.4790
     19 C          -8.7595  -15.6035   25.1764 C.3     1  UNL1        0.0472
     20 C          -9.4116  -16.7288   24.4292 C.3     1  UNL1        0.1661
     21 C          -9.7707  -17.9966   25.1461 C.3     1  UNL1        0.0472
@<TRIPOS>BOND
     1    19    20    1
     2    20    21    1
     3    20    18    1
     4    18     1    1
     5     1     2   ar
     6     2     3   ar
     7     3     7    1
     8     7     8   ar
     9     8     9   ar
    10     9    10   ar
    11    10    11   ar
    12    11    12   ar
    13     3     4   ar
    14     4     5   ar
    15     5     6   ar
    16     6    13    1
    17    13    14   am
    18    13    15    2
    19     6     1   ar
    20    12     7   ar
    21    14    16    1
    22    14    17    1
@<TRIPOS>MOLECULE
*****
 21 22 0 0 0
SMALL
GASTEIGER

@<TRIPOS>ATOM
      1 C          -8.5572  -16.9585   23.2843 C.ar    1  UNL1        0.1427
      2 C          -7.1849  -17.4462   22.9253 C.ar    1  UNL1        0.0371
      3 C          -7.0217  -18.5865   21.9645 C.ar    1  UNL1        0.0045
      4 C          -8.2307  -19.2391   21.3627 C.ar    1  UNL1        0.0004
      5 C          -9.6030  -18.7514   21.7217 C.ar    1  UNL1        0.0076
      6 C          -9.7663  -17.6111   22.6825 C.ar    1  UNL1        0.0870
      7 C          -5.6493  -19.0741   21.6056 C.ar    1  UNL1        0.0193
      8 C          -4.4682  -18.6692   22.4369 C.ar    1  UNL1        0.0031
      9 C          -3.0959  -19.1568   22.0780 C.ar    1  UNL1        0.0207
     10 C          -2.9045  -20.0494   20.8877 C.ar    1  UNL1        0.0989
     11 N          -4.0856  -20.4544   20.0564 N.ar    1  UNL1       -0.2423
     12 C          -5.4580  -19.9667   20.4153 C.ar    1  UNL1        0.0988
     13 C         -11.1387  -17.1234   23.0414 C.2     1  UNL1        0.2457
     14 N         -11.5418  -15.7148   22.7203 N.am    1  UNL1       -0.3252
     15 O         -12.1079  -18.0444   23.7214 O.2     1  UNL1       -0.2703
     16 H         -10.9057  -15.1103   22.2740 H       1  UNL1        0.1453
     17 H         -12.4425  -15.3947   22.9559 H       1  UNL1        0.1453
     18 O          -8.7205  -15.8182   24.2451 O.3     1  UNL1       -0.4790
     19 C          -8.3180  -16.2243   26.7794 C.3     1  UNL1        0.0472
     20 C          -7.8345  -15.7214   25.4515 C.3     1  UNL1        0.1661
     21 C          -6.4650  -15.1215   25.3302 C.3     1  UNL1        0.0472
@<TRIPOS>BOND
     1    19    20    1
     2    20    21    1
     3    20    18    1
     4    18     1    1
     5     1     2   ar
     6     2     3   ar
     7     3     7    1
     8     7     8   ar
     9     8     9   ar
    10     9    10   ar
    11    10    11   ar
    12    11    12   ar
    13     3     4   ar
    14     4     5   ar
    15     5     6   ar
    16     6    13    1
    17    13    14   am
    18    13    15    2
    19     6     1   ar
    20    12     7   ar
    21    14    16    1
    22    14    17    1
@<TRIPOS>MOLECULE
*****
 21 22 0 0 0
SMALL
GASTEIGER

@<TRIPOS>ATOM
      1 C          -8.0995  -18.8044   22.2100 C.ar    1  UNL1        0.1427
      2 C          -6.6062  -18.7816   22.0711 C.ar    1  UNL1        0.0371
      3 C          -5.9678  -19.1722   20.7711 C.ar    1  UNL1        0.0045
      4 C          -6.8228  -19.5856   19.6101 C.ar    1  UNL1        0.0004
      5 C          -8.3161  -19.6084   19.7490 C.ar    1  UNL1        0.0076
      6 C          -8.9545  -19.2178   21.0490 C.ar    1  UNL1        0.0870
      7 C          -4.4744  -19.1494   20.6322 C.ar    1  UNL1        0.0193
      8 C          -3.8418  -18.4895   19.4429 C.ar    1  UNL1        0.0031
      9 C          -2.3484  -18.4667   19.3040 C.ar    1  UNL1        0.0207
     10 C          -1.4876  -19.1038   20.3543 C.ar    1  UNL1        0.0989
     11 N          -2.1202  -19.7637   21.5436 N.ar    1  UNL1       -0.2423
     12 C          -3.6136  -19.7865   21.6825 C.ar    1  UNL1        0.0988
     13 C         -10.4479  -19.2406   21.1879 C.2     1  UNL1        0.2457
     14 N         -11.0882  -20.0605   22.2686 N.am    1  UNL1       -0.3252
     15 O         -11.3010  -18.4435   20.2462 O.2     1  UNL1       -0.2703
     16 H         -10.5283  -20.5836   22.8866 H       1  UNL1        0.1453
     17 H         -12.0683  -20.0755   22.3597 H       1  UNL1        0.1453
     18 O          -8.7378  -18.4137   23.5100 O.3     1  UNL1       -0.4790
     19 C         -10.3764  -16.4042   23.3461 C.3     1  UNL1        0.0472
     20 C          -9.0603  -16.9748   23.7847 C.3     1  UNL1        0.1661
     21 C          -8.0667  -16.1064   24.4979 C.3     1  UNL1        0.0472
@<TRIPOS>BOND
     1    19    20    1
     2    20    21    1
     3    20    18    1
     4    18     1    1
     5     1     2   ar
     6     2     3   ar
     7     3     7    1
     8     7     8   ar
     9     8     9   ar
    10     9    10   ar
    11    10    11   ar
    12    11    12   ar
    13     3     4   ar
    14     4     5   ar
    15     5     6   ar
    16     6    13    1
    17    13    14   am
    18    13    15    2
    19     6     1   ar
    20    12     7   ar
    21    14    16    1
    22    14    17    1
@<TRIPOS>MOLECULE
*****
 21 22 0 0 0
SMALL
GASTEIGER

@<TRIPOS>ATOM
      1 C          -8.4628  -18.5304   22.0648 C.ar    1  UNL1        0.1427
      2 C          -6.9867  -18.5086   22.3302 C.ar    1  UNL1        0.0371
      3 C          -6.0301  -19.0128   21.2906 C.ar    1  UNL1        0.0045
      4 C          -6.5497  -19.5388   19.9855 C.ar    1  UNL1        0.0004
      5 C          -8.0258  -19.5605   19.7200 C.ar    1  UNL1        0.0076
      6 C          -8.9824  -19.0563   20.7596 C.ar    1  UNL1        0.0870
      7 C          -4.5539  -18.9911   21.5562 C.ar    1  UNL1        0.0193
      8 C          -3.9823  -18.0082   22.5345 C.ar    1  UNL1        0.0031
      9 C          -2.5062  -17.9864   22.8001 C.ar    1  UNL1        0.0207
     10 C          -1.6016  -18.9475   22.0873 C.ar    1  UNL1        0.0989
     11 N          -2.1732  -19.9305   21.1090 N.ar    1  UNL1       -0.2423
     12 C          -3.6494  -19.9522   20.8434 C.ar    1  UNL1        0.0988
     13 C         -10.4586  -19.0780   20.4941 C.2     1  UNL1        0.2457
     14 N         -11.1080  -17.9336   19.7739 N.am    1  UNL1       -0.3252
     15 O         -11.2853  -20.2441   20.9487 O.2     1  UNL1       -0.2703
     16 H         -10.5654  -17.1683   19.4756 H       1  UNL1        0.1453
     17 H         -12.0768  -17.9479   19.5996 H       1  UNL1        0.1453
     18 O          -9.4193  -18.0261   23.1044 O.3     1  UNL1       -0.4790
     19 C         -11.5980  -18.6511   24.3743 C.3     1  UNL1        0.0472
     20 C         -10.2068  -18.9973   23.9329 C.3     1  UNL1        0.1661
     21 C          -9.6032  -20.3148   24.3202 C.3     1  UNL1        0.0472
@<TRIPOS>BOND
     1    19    20    1
     2    20    21    1
     3    20    18    1
     4    18     1    1
     5     1     2   ar
     6     2     3   ar
     7     3     7    1
     8     7     8   ar
     9     8     9   ar
    10     9    10   ar
    11    10    11   ar
    12    11    12   ar
    13     3     4   ar
    14     4     5   ar
    15     5     6   ar
    16     6    13    1
    17    13    14   am
    18    13    15    2
    19     6     1   ar
    20    12     7   ar
    21    14    16    1
    22    14    17    1
@<TRIPOS>MOLECULE
*****
 21 22 0 0 0
SMALL
GASTEIGER

@<TRIPOS>ATOM
      1 C          -6.3342  -18.4479   22.4961 C.ar    1  UNL1        0.1427
      2 C          -7.8070  -18.5537   22.2321 C.ar    1  UNL1        0.0371
      3 C          -8.7137  -17.4076   22.5699 C.ar    1  UNL1        0.0045
      4 C          -8.1477  -16.1556   23.1717 C.ar    1  UNL1        0.0004
      5 C          -6.6750  -16.0498   23.4357 C.ar    1  UNL1        0.0076
      6 C          -5.7682  -17.1960   23.0979 C.ar    1  UNL1        0.0870
      7 C         -10.1865  -17.5134   22.3059 C.ar    1  UNL1        0.0193
      8 C         -11.1369  -17.7513   23.4418 C.ar    1  UNL1        0.0031
      9 C         -12.6097  -17.8572   23.1778 C.ar    1  UNL1        0.0207
     10 C         -13.1321  -17.7251   21.7779 C.ar    1  UNL1        0.0989
     11 N         -12.1818  -17.4873   20.6420 N.ar    1  UNL1       -0.2423
     12 C         -10.7089  -17.3814   20.9060 C.ar    1  UNL1        0.0988
     13 C          -4.2954  -17.0901   23.3620 C.2     1  UNL1        0.2457
     14 N          -3.6278  -18.0625   24.2887 N.am    1  UNL1       -0.3252
     15 O          -3.4902  -16.0119   22.6993 O.2     1  UNL1       -0.2703
     16 H          -4.1563  -18.7702   24.7236 H       1  UNL1        0.1453
     17 H          -2.6611  -17.9931   24.4620 H       1  UNL1        0.1453
     18 O          -5.4274  -19.5941   22.1584 O.3     1  UNL1       -0.4790
     19 C          -4.2882  -19.1795   19.8605 C.3     1  UNL1        0.0472
     20 C          -5.2127  -19.9836   20.7259 C.3     1  UNL1        0.1661
     21 C          -5.9224  -21.1772   20.1586 C.3     1  UNL1        0.0472
@<TRIPOS>BOND
     1    19    20    1
     2    20    21    1
     3    20    18    1
     4    18     1    1
     5     1     2   ar
     6     2     3   ar
     7     3     7    1
     8     7     8   ar
     9     8     9   ar
    10     9    10   ar
    11    10    11   ar
    12    11    12   ar
    13     3     4   ar
    14     4     5   ar
    15     5     6   ar
    16     6    13    1
    17    13    14   am
    18    13    15    2
    19     6     1   ar
    20    12     7   ar
    21    14    16    1
    22    14    17    1
@<TRIPOS>MOLECULE
*****
 21 22 0 0 0
SMALL
GASTEIGER

@<TRIPOS>ATOM
      1 C          -7.0427  -17.3345   22.7598 C.ar    1  UNL1        0.1427
      2 C          -8.5007  -17.6869   22.7533 C.ar    1  UNL1        0.0371
      3 C          -9.4287  -17.0581   23.7499 C.ar    1  UNL1        0.0045
      4 C          -8.8989  -16.0768   24.7530 C.ar    1  UNL1        0.0004
      5 C          -7.4409  -15.7244   24.7595 C.ar    1  UNL1        0.0076
      6 C          -6.5128  -16.3532   23.7629 C.ar    1  UNL1        0.0870
      7 C         -10.8868  -17.4106   23.7434 C.ar    1  UNL1        0.0193
      8 C         -11.8280  -16.6919   22.8228 C.ar    1  UNL1        0.0031
      9 C         -13.2860  -17.0443   22.8163 C.ar    1  UNL1        0.0207
     10 C         -13.8028  -18.1156   23.7303 C.ar    1  UNL1        0.0989
     11 N         -12.8615  -18.8343   24.6509 N.ar    1  UNL1       -0.2423
     12 C         -11.4035  -18.4818   24.6574 C.ar    1  UNL1        0.0988
     13 C          -5.0548  -16.0007   23.7694 C.2     1  UNL1        0.2457
     14 N          -4.5615  -14.8346   22.9651 N.am    1  UNL1       -0.3252
     15 O          -4.0901  -16.8142   24.5802 O.2     1  UNL1       -0.2703
     16 H          -5.1947  -14.3006   22.4329 H       1  UNL1        0.1453
     17 H          -3.6046  -14.6032   22.9694 H       1  UNL1        0.1453
     18 O          -6.1146  -17.9633   21.7632 O.3     1  UNL1       -0.4790
     19 C          -6.4027  -20.5428   21.8761 C.3     1  UNL1        0.0472
     20 C          -5.5414  -19.3241   22.0268 C.3     1  UNL1        0.1661
     21 C          -4.1067  -19.4662   22.4411 C.3     1  UNL1        0.0472
@<TRIPOS>BOND
     1    19    20    1
     2    20    21    1
     3    20    18    1
     4    18     1    1
     5     1     2   ar
     6     2     3   ar
     7     3     7    1
     8     7     8   ar
     9     8     9   ar
    10     9    10   ar
    11    10    11   ar
    12    11    12   ar
    13     3     4   ar
    14     4     5   ar
    15     5     6   ar
    16     6    13    1
    17    13    14   am
    18    13    15    2
    19     6     1   ar
    20    12     7   ar
    21    14    16    1
    22    14    17    1
@<TRIPOS>MOLECULE
*****
 21 22 0 0 0
SMALL
GASTEIGER

@<TRIPOS>ATOM
      1 C          -6.5264  -16.2705   23.6599 C.ar    1  UNL1        0.1427
      2 C          -7.3729  -16.8450   22.5630 C.ar    1  UNL1        0.0371
      3 C          -8.8584  -16.9540   22.7408 C.ar    1  UNL1        0.0045
      4 C          -9.4973  -16.4885   24.0156 C.ar    1  UNL1        0.0004
      5 C          -8.6508  -15.9141   25.1125 C.ar    1  UNL1        0.0076
      6 C          -7.1653  -15.8051   24.9347 C.ar    1  UNL1        0.0870
      7 C          -9.7049  -17.5285   21.6437 C.ar    1  UNL1        0.0193
      8 C          -9.3476  -18.8524   21.0358 C.ar    1  UNL1        0.0031
      9 C         -10.1940  -19.4269   19.9388 C.ar    1  UNL1        0.0207
     10 C         -11.3979  -18.6775   19.4497 C.ar    1  UNL1        0.0989
     11 N         -11.7553  -17.3536   20.0577 N.ar    1  UNL1       -0.2423
     12 C         -10.9087  -16.7791   21.1547 C.ar    1  UNL1        0.0988
     13 C          -6.3188  -15.2306   26.0317 C.2     1  UNL1        0.2457
     14 N          -6.6830  -15.4749   27.4662 N.am    1  UNL1       -0.3252
     15 O          -5.1082  -14.4118   25.6943 O.2     1  UNL1       -0.2703
     16 H          -7.4775  -16.0123   27.6876 H       1  UNL1        0.1453
     17 H          -6.1274  -15.0979   28.1862 H       1  UNL1        0.1453
     18 O          -5.0410  -16.1616   23.4821 O.3     1  UNL1       -0.4790
     19 C          -3.9479  -18.2941   22.4784 C.3     1  UNL1        0.0472
     20 C          -4.1753  -17.3760   23.6426 C.3     1  UNL1        0.1661
     21 C          -3.5370  -17.6723   24.9673 C.3     1  UNL1        0.0472
@<TRIPOS>BOND
     1    19    20    1
     2    20    21    1
     3    20    18    1
     4    18     1    1
     5     1     2   ar
     6     2     3   ar
     7     3     7    1
     8     7     8   ar
     9     8     9   ar
    10     9    10   ar
    11    10    11   ar
    12    11    12   ar
    13     3     4   ar
    14     4     5   ar
    15     5     6   ar
    16     6    13    1
    17    13    14   am
    18    13    15    2
    19     6     1   ar
    20    12     7   ar
    21    14    16    1
    22    14    17    1
@<TRIPOS>MOLECULE
*****
 21 22 0 0 0
SMALL
GASTEIGER

@<TRIPOS>ATOM
      1 C           3.3735   -2.0018   19.6719 C.ar    1  UNL1        0.1427
      2 C           2.3113   -0.9892   19.9822 C.ar    1  UNL1        0.0371
      3 C           2.0552    0.1439   19.0332 C.ar    1  UNL1        0.0045
      4 C           2.8611    0.2643   17.7739 C.ar    1  UNL1        0.0004
      5 C           3.9233   -0.7484   17.4636 C.ar    1  UNL1        0.0076
      6 C           4.1795   -1.8814   18.4126 C.ar    1  UNL1        0.0870
      7 C           0.9929    1.1566   19.3436 C.ar    1  UNL1        0.0193
      8 C           0.7156    2.2720   18.3798 C.ar    1  UNL1        0.0031
      9 C          -0.3465    3.2846   18.6901 C.ar    1  UNL1        0.0207
     10 C          -1.1314    3.1819   19.9643 C.ar    1  UNL1        0.0989
     11 N          -0.8541    2.0664   20.9281 N.ar    1  UNL1       -0.2423
     12 C           0.2081    1.0538   20.6177 C.ar    1  UNL1        0.0988
     13 C           5.2417   -2.8941   18.1023 C.2     1  UNL1        0.2457
     14 N           4.9807   -4.3518   18.3408 N.am    1  UNL1       -0.3252
     15 O           6.5648   -2.4490   17.5534 O.2     1  UNL1       -0.2703
     16 H           4.1123   -4.6439   18.7010 H       1  UNL1        0.1453
     17 H           5.6779   -5.0165   18.1371 H       1  UNL1        0.1453
     18 O           3.6297   -3.1348   20.6209 O.3     1  UNL1       -0.4790
     19 C           5.9142   -3.5671   21.7802 C.3     1  UNL1        0.0472
     20 C           4.5510   -2.9413   21.7887 C.3     1  UNL1        0.1661
     21 C           4.1091   -2.1221   22.9650 C.3     1  UNL1        0.0472
@<TRIPOS>BOND
     1    19    20    1
     2    20    21    1
     3    20    18    1
     4    18     1    1
     5     1     2   ar
     6     2     3   ar
     7     3     7    1
     8     7     8   ar
     9     8     9   ar
    10     9    10   ar
    11    10    11   ar
    12    11    12   ar
    13     3     4   ar
    14     4     5   ar
    15     5     6   ar
    16     6    13    1
    17    13    14   am
    18    13    15    2
    19     6     1   ar
    20    12     7   ar
    21    14    16    1
    22    14    17    1
@<TRIPOS>MOLECULE
*****
 21 22 0 0 0
SMALL
GASTEIGER

@<TRIPOS>ATOM
      1 C           4.2395   -0.8409   18.0023 C.ar    1  UNL1        0.1427
      2 C           3.1932    0.2177   18.1885 C.ar    1  UNL1        0.0371
      3 C           2.0919    0.0163   19.1867 C.ar    1  UNL1        0.0045
      4 C           2.0368   -1.2436   19.9988 C.ar    1  UNL1        0.0004
      5 C           3.0831   -2.3022   19.8126 C.ar    1  UNL1        0.0076
      6 C           4.1845   -2.1008   18.8143 C.ar    1  UNL1        0.0870
      7 C           1.0456    1.0749   19.3728 C.ar    1  UNL1        0.0193
      8 C           0.8774    2.1525   18.3430 C.ar    1  UNL1        0.0031
      9 C          -0.1688    3.2111   18.5291 C.ar    1  UNL1        0.0207
     10 C          -1.0470    3.1922   19.7451 C.ar    1  UNL1        0.0989
     11 N          -0.8789    2.1146   20.7749 N.ar    1  UNL1       -0.2423
     12 C           0.1674    1.0559   20.5888 C.ar    1  UNL1        0.0988
     13 C           5.2308   -3.1594   18.6282 C.2     1  UNL1        0.2457
     14 N           6.6702   -2.7706   18.4644 N.am    1  UNL1       -0.3252
     15 O           4.8377   -4.6068   18.6059 O.2     1  UNL1       -0.2703
     16 H           6.9283   -1.8206   18.4790 H       1  UNL1        0.1453
     17 H           7.3570   -3.4654   18.3422 H       1  UNL1        0.1453
     18 O           5.3409   -0.6395   17.0040 O.3     1  UNL1       -0.4790
     19 C           6.8749    0.8076   18.5215 C.3     1  UNL1        0.0472
     20 C           6.3040    0.4985   17.1693 C.3     1  UNL1        0.1661
     21 C           6.6964    1.3274   15.9822 C.3     1  UNL1        0.0472
@<TRIPOS>BOND
     1    19    20    1
     2    20    21    1
     3    20    18    1
     4    18     1    1
     5     1     2   ar
     6     2     3   ar
     7     3     7    1
     8     7     8   ar
     9     8     9   ar
    10     9    10   ar
    11    10    11   ar
    12    11    12   ar
    13     3     4   ar
    14     4     5   ar
    15     5     6   ar
    16     6    13    1
    17    13    14   am
    18    13    15    2
    19     6     1   ar
    20    12     7   ar
    21    14    16    1
    22    14    17    1
