@<TRIPOS>MOLECULE
*****
 30 33 0 0 0
SMALL
GASTEIGER

@<TRIPOS>ATOM
      1 C           3.6209    0.2860   32.6261 C.ar    1  UNL1        0.1103
      2 C           3.9783   -0.6743   33.7216 C.ar    1  UNL1        0.0185
      3 C           4.8202   -1.8782   33.4186 C.ar    1  UNL1       -0.0013
      4 C           5.3047   -2.1218   32.0200 C.ar    1  UNL1       -0.0024
      5 C           4.9473   -1.1616   30.9245 C.ar    1  UNL1       -0.0013
      6 C           4.1054    0.0424   31.2276 C.ar    1  UNL1        0.0185
      7 S           2.7791    1.4899   32.9292 S.O2    1  UNL1        0.0289
      8 O           1.7907    1.0616   31.8854 O.2     1  UNL1       -0.1642
      9 O           3.7674    1.9182   33.9731 O.2     1  UNL1       -0.1642
     10 C          -0.5884    6.3055   34.1415 C.3     1  UNL1        0.0521
     11 C           0.2535    5.1016   33.8384 C.ar    1  UNL1        0.0595
     12 C           0.0921    4.3833   32.5315 C.ar    1  UNL1        0.0161
     13 C           0.9339    3.1794   32.2285 C.ar    1  UNL1        0.0215
     14 C           1.9372    2.6938   33.2323 C.ar    1  UNL1        0.1293
     15 C           2.0986    3.4121   34.5392 C.ar    1  UNL1        0.1171
     16 N           1.2567    4.6161   34.8422 N.ar    1  UNL1       -0.2468
     17 C           6.1465   -3.3258   31.7169 C.3     1  UNL1        0.1177
     18 N           6.4241   -3.7077   30.2932 N.am    1  UNL1       -0.2847
     19 C           6.8912   -5.0951   29.9663 C.2     1  UNL1        0.3047
     20 O           7.0807   -6.1006   31.0631 O.2     1  UNL1       -0.2526
     21 N           7.1688   -5.4770   28.5425 N.am    1  UNL1       -0.2560
     22 C           7.6387   -6.8192   28.0652 C.3     1  UNL1        0.1218
     23 C           7.7856   -6.7555   26.5738 C.ar    1  UNL1       -0.0016
     24 C           8.2155   -7.7771   25.5631 C.ar    1  UNL1        0.0178
     25 C           8.2664   -7.4170   24.1079 C.ar    1  UNL1        0.0986
     26 N           7.8873   -6.0355   23.6633 N.ar    1  UNL1       -0.2426
     27 C           7.4573   -5.0139   24.6741 C.ar    1  UNL1        0.0960
     28 C           7.4065   -5.3740   26.1293 C.ar    1  UNL1        0.0146
     29 C           7.0253   -4.5838   27.3460 C.3     1  UNL1        0.1233
     30 H           6.2998   -3.0478   29.5733 H       1  UNL1        0.1513
@<TRIPOS>BOND
     1    10    11    1
     2    11    12   ar
     3    12    13   ar
     4    13    14   ar
     5    14     7    1
     6     7     8    2
     7     7     9    2
     8     7     1    1
     9     1     2   ar
    10     2     3   ar
    11     3     4   ar
    12     4    17    1
    13    17    18    1
    14    18    19   am
    15    19    20    2
    16    19    21   am
    17    21    22    1
    18    22    23    1
    19    23    24   ar
    20    24    25   ar
    21    25    26   ar
    22    26    27   ar
    23    27    28   ar
    24    28    29    1
    25     4     5   ar
    26     5     6   ar
    27    14    15   ar
    28    15    16   ar
    29    16    11   ar
    30     6     1   ar
    31    29    21    1
    32    28    23   ar
    33    18    30    1
@<TRIPOS>MOLECULE
*****
 30 33 0 0 0
SMALL
GASTEIGER

@<TRIPOS>ATOM
      1 C           2.5924   -0.6663   21.5583 C.ar    1  UNL1        0.1103
      2 C           2.1716    0.4976   22.4058 C.ar    1  UNL1        0.0185
      3 C           1.1232    1.4477   21.9078 C.ar    1  UNL1       -0.0013
      4 C           0.4957    1.2341   20.5622 C.ar    1  UNL1       -0.0024
      5 C           0.9165    0.0702   19.7147 C.ar    1  UNL1       -0.0013
      6 C           1.9649   -0.8800   20.2127 C.ar    1  UNL1        0.0185
      7 S           3.6408   -1.6165   22.0563 S.O2    1  UNL1        0.0289
      8 O           3.8447   -2.1237   20.6595 O.2     1  UNL1       -0.1642
      9 O           3.4369   -1.1094   23.4531 O.2     1  UNL1       -0.1642
     10 C           7.8343   -5.4172   24.0484 C.3     1  UNL1        0.0521
     11 C           6.7859   -4.4671   23.5504 C.ar    1  UNL1        0.0595
     12 C           6.1140   -3.5244   24.5043 C.ar    1  UNL1        0.0161
     13 C           5.0657   -2.5742   24.0063 C.ar    1  UNL1        0.0215
     14 C           4.6892   -2.5667   22.5543 C.ar    1  UNL1        0.1293
     15 C           5.3610   -3.5093   21.6004 C.ar    1  UNL1        0.1171
     16 N           6.4095   -4.4596   22.0985 N.ar    1  UNL1       -0.2468
     17 C          -0.5528    2.1843   20.0642 C.3     1  UNL1        0.1177
     18 N          -1.6530    2.6339   20.9793 N.am    1  UNL1       -0.2847
     19 C          -2.8404    3.3624   20.4231 C.2     1  UNL1        0.3047
     20 O          -2.9275    3.6414   18.9519 O.2     1  UNL1       -0.2526
     21 N          -3.9406    3.8119   21.3382 N.am    1  UNL1       -0.2560
     22 C          -5.1827    4.5468   20.9291 C.3     1  UNL1        0.1218
     23 C          -6.0017    4.7946   22.1611 C.ar    1  UNL1       -0.0016
     24 C          -7.3225    5.4747   22.3682 C.ar    1  UNL1        0.0178
     25 C          -7.9074    5.5732   23.7459 C.ar    1  UNL1        0.0986
     26 N          -7.1715    4.9915   24.9165 N.ar    1  UNL1       -0.2426
     27 C          -5.8508    4.3113   24.7093 C.ar    1  UNL1        0.0960
     28 C          -5.2659    4.2129   23.3316 C.ar    1  UNL1        0.0146
     29 C          -3.9921    3.6056   22.8230 C.3     1  UNL1        0.1233
     30 H          -1.5958    2.4507   21.9449 H       1  UNL1        0.1513
@<TRIPOS>BOND
     1    10    11    1
     2    11    12   ar
     3    12    13   ar
     4    13    14   ar
     5    14     7    1
     6     7     8    2
     7     7     9    2
     8     7     1    1
     9     1     2   ar
    10     2     3   ar
    11     3     4   ar
    12     4    17    1
    13    17    18    1
    14    18    19   am
    15    19    20    2
    16    19    21   am
    17    21    22    1
    18    22    23    1
    19    23    24   ar
    20    24    25   ar
    21    25    26   ar
    22    26    27   ar
    23    27    28   ar
    24    28    29    1
    25     4     5   ar
    26     5     6   ar
    27    14    15   ar
    28    15    16   ar
    29    16    11   ar
    30     6     1   ar
    31    29    21    1
    32    28    23   ar
    33    18    30    1
@<TRIPOS>MOLECULE
*****
 30 33 0 0 0
SMALL
GASTEIGER

@<TRIPOS>ATOM
      1 C           3.0042   -0.1606   19.7664 C.ar    1  UNL1        0.1103
      2 C           1.6362   -0.3989   20.3338 C.ar    1  UNL1        0.0185
      3 C           0.5346    0.5854   20.0740 C.ar    1  UNL1       -0.0013
      4 C           0.8009    1.8080   19.2468 C.ar    1  UNL1       -0.0024
      5 C           2.1687    2.0463   18.6793 C.ar    1  UNL1       -0.0013
      6 C           3.2705    1.0620   18.9391 C.ar    1  UNL1        0.0185
      7 S           4.1058   -1.1449   20.0262 S.O2    1  UNL1        0.0289
      8 O           3.1489   -2.2768   19.7958 O.2     1  UNL1       -0.1642
      9 O           5.0628   -0.0131   20.2566 O.2     1  UNL1       -0.1642
     10 C           8.5124   -5.0821   21.0655 C.3     1  UNL1        0.0521
     11 C           7.4108   -4.0978   20.8057 C.ar    1  UNL1        0.0595
     12 C           7.6572   -2.9130   19.9194 C.ar    1  UNL1        0.0161
     13 C           6.5556   -1.9287   19.6596 C.ar    1  UNL1        0.0215
     14 C           5.2074   -2.1292   20.2860 C.ar    1  UNL1        0.1293
     15 C           4.9610   -3.3140   21.1723 C.ar    1  UNL1        0.1171
     16 N           6.0627   -4.2984   21.4321 N.ar    1  UNL1       -0.2468
     17 C          -0.3009    2.7923   18.9870 C.3     1  UNL1        0.1177
     18 N          -1.3408    3.0484   20.0371 N.am    1  UNL1       -0.2847
     19 C          -2.6823    3.5944   19.6468 C.2     1  UNL1        0.3047
     20 O          -2.9837    3.8843   18.2064 O.2     1  UNL1       -0.2526
     21 N          -3.7222    3.8505   20.6970 N.am    1  UNL1       -0.2560
     22 C          -5.1009    4.3915   20.4592 C.3     1  UNL1        0.1218
     23 C          -5.7969    4.4859   21.7846 C.ar    1  UNL1       -0.0016
     24 C          -7.1718    4.9490   22.1655 C.ar    1  UNL1        0.0178
     25 C          -7.5981    4.9295   23.6035 C.ar    1  UNL1        0.0986
     26 N          -6.6495    4.4469   24.6605 N.ar    1  UNL1       -0.2426
     27 C          -5.2746    3.9838   24.2796 C.ar    1  UNL1        0.0960
     28 C          -4.8483    4.0033   22.8416 C.ar    1  UNL1        0.0146
     29 C          -3.5661    3.6106   22.1695 C.3     1  UNL1        0.1233
     30 H          -1.1429    2.8581   20.9826 H       1  UNL1        0.1513
@<TRIPOS>BOND
     1    10    11    1
     2    11    12   ar
     3    12    13   ar
     4    13    14   ar
     5    14     7    1
     6     7     8    2
     7     7     9    2
     8     7     1    1
     9     1     2   ar
    10     2     3   ar
    11     3     4   ar
    12     4    17    1
    13    17    18    1
    14    18    19   am
    15    19    20    2
    16    19    21   am
    17    21    22    1
    18    22    23    1
    19    23    24   ar
    20    24    25   ar
    21    25    26   ar
    22    26    27   ar
    23    27    28   ar
    24    28    29    1
    25     4     5   ar
    26     5     6   ar
    27    14    15   ar
    28    15    16   ar
    29    16    11   ar
    30     6     1   ar
    31    29    21    1
    32    28    23   ar
    33    18    30    1
@<TRIPOS>MOLECULE
*****
 30 33 0 0 0
SMALL
GASTEIGER

@<TRIPOS>ATOM
      1 C           2.0041    0.7515   29.4970 C.ar    1  UNL1        0.1103
      2 C           2.9121    0.8512   28.3071 C.ar    1  UNL1        0.0185
      3 C           2.3334    1.0346   26.9354 C.ar    1  UNL1       -0.0013
      4 C           0.8469    1.1183   26.7536 C.ar    1  UNL1       -0.0024
      5 C          -0.0611    1.0186   27.9433 C.ar    1  UNL1       -0.0013
      6 C           0.5175    0.8352   29.3151 C.ar    1  UNL1        0.0185
      7 S           2.5827    0.5682   30.8687 S.O2    1  UNL1        0.0289
      8 O           3.0988    1.9763   30.8392 O.2     1  UNL1       -0.1642
      9 O           2.0666   -0.8399   30.8982 O.2     1  UNL1       -0.1642
     10 C           4.8972   -0.1653   36.3554 C.3     1  UNL1        0.0521
     11 C           4.3186    0.0181   34.9838 C.ar    1  UNL1        0.0595
     12 C           4.4865   -1.0551   33.9493 C.ar    1  UNL1        0.0161
     13 C           3.9079   -0.8718   32.5776 C.ar    1  UNL1        0.0215
     14 C           3.1613    0.3848   32.2403 C.ar    1  UNL1        0.1293
     15 C           2.9934    1.4580   33.2748 C.ar    1  UNL1        0.1171
     16 N           3.5721    1.2746   34.6465 N.ar    1  UNL1       -0.2468
     17 C           0.2683    1.3016   25.3818 C.3     1  UNL1        0.1177
     18 N           0.9310    0.6638   24.1969 N.am    1  UNL1       -0.2847
     19 C           0.9230    1.3599   22.8682 C.2     1  UNL1        0.3047
     20 O           0.2522    2.6938   22.7245 O.2     1  UNL1       -0.2526
     21 N           1.5857    0.7221   21.6833 N.am    1  UNL1       -0.2560
     22 C           1.6582    1.2954   20.2991 C.3     1  UNL1        0.1218
     23 C           2.4096    0.3267   19.4349 C.ar    1  UNL1       -0.0016
     24 C           2.7875    0.3604   17.9837 C.ar    1  UNL1        0.0178
     25 C           3.5574   -0.7780   17.3826 C.ar    1  UNL1        0.0986
     26 N           3.9494   -1.9501   18.2327 N.ar    1  UNL1       -0.2426
     27 C           3.5714   -1.9838   19.6839 C.ar    1  UNL1        0.0960
     28 C           2.8015   -0.8454   20.2850 C.ar    1  UNL1        0.0146
     29 C           2.2923   -0.6010   21.6746 C.3     1  UNL1        0.1233
     30 H           1.3713   -0.2117   24.2912 H       1  UNL1        0.1513
@<TRIPOS>BOND
     1    10    11    1
     2    11    12   ar
     3    12    13   ar
     4    13    14   ar
     5    14     7    1
     6     7     8    2
     7     7     9    2
     8     7     1    1
     9     1     2   ar
    10     2     3   ar
    11     3     4   ar
    12     4    17    1
    13    17    18    1
    14    18    19   am
    15    19    20    2
    16    19    21   am
    17    21    22    1
    18    22    23    1
    19    23    24   ar
    20    24    25   ar
    21    25    26   ar
    22    26    27   ar
    23    27    28   ar
    24    28    29    1
    25     4     5   ar
    26     5     6   ar
    27    14    15   ar
    28    15    16   ar
    29    16    11   ar
    30     6     1   ar
    31    29    21    1
    32    28    23   ar
    33    18    30    1
@<TRIPOS>MOLECULE
*****
 30 33 0 0 0
SMALL
GASTEIGER

@<TRIPOS>ATOM
      1 C           6.3931   -3.0232   30.3327 C.ar    1  UNL1        0.1103
      2 C           6.1536   -2.2646   29.0609 C.ar    1  UNL1        0.0185
      3 C           6.3337   -2.9452   27.7364 C.ar    1  UNL1       -0.0013
      4 C           6.7534   -4.3843   27.6836 C.ar    1  UNL1       -0.0024
      5 C           6.9929   -5.1429   28.9552 C.ar    1  UNL1       -0.0013
      6 C           6.8128   -4.4623   30.2798 C.ar    1  UNL1        0.0185
      7 S           6.2130   -2.3427   31.6572 S.O2    1  UNL1        0.0289
      8 O           6.1915   -1.0098   30.9694 O.2     1  UNL1       -0.1642
      9 O           6.2345   -3.6755   32.3449 O.2     1  UNL1       -0.1642
     10 C           5.4925    0.3796   36.9553 C.3     1  UNL1        0.0521
     11 C           5.6726   -0.3010   35.6308 C.ar    1  UNL1        0.0595
     12 C           4.5300   -1.0491   35.0104 C.ar    1  UNL1        0.0161
     13 C           4.7101   -1.7296   33.6859 C.ar    1  UNL1        0.0215
     14 C           6.0329   -1.6621   32.9817 C.ar    1  UNL1        0.1293
     15 C           7.1755   -0.9140   33.6021 C.ar    1  UNL1        0.1171
     16 N           6.9953   -0.2335   34.9267 N.ar    1  UNL1       -0.2468
     17 C           6.9335   -5.0649   26.3590 C.3     1  UNL1        0.1177
     18 N           6.2859   -4.4981   25.1304 N.am    1  UNL1       -0.2847
     19 C           7.0245   -4.4991   23.8249 C.2     1  UNL1        0.3047
     20 O           8.4107   -5.0668   23.7480 O.2     1  UNL1       -0.2526
     21 N           6.3769   -3.9323   22.5964 N.am    1  UNL1       -0.2560
     22 C           6.9887   -3.8648   21.2285 C.3     1  UNL1        0.1218
     23 C           5.9937   -3.2243   20.3067 C.ar    1  UNL1       -0.0016
     24 C           6.0462   -2.8977   18.8436 C.ar    1  UNL1        0.0178
     25 C           4.8720   -2.2427   18.1788 C.ar    1  UNL1        0.0986
     26 N           3.6451   -1.9143   18.9770 N.ar    1  UNL1       -0.2426
     27 C           3.5926   -2.2410   20.4400 C.ar    1  UNL1        0.0960
     28 C           4.7668   -2.8960   21.1048 C.ar    1  UNL1        0.0146
     29 C           5.0037   -3.3335   22.5199 C.3     1  UNL1        0.1233
     30 H           5.3760   -4.1255   25.1809 H       1  UNL1        0.1513
@<TRIPOS>BOND
     1    10    11    1
     2    11    12   ar
     3    12    13   ar
     4    13    14   ar
     5    14     7    1
     6     7     8    2
     7     7     9    2
     8     7     1    1
     9     1     2   ar
    10     2     3   ar
    11     3     4   ar
    12     4    17    1
    13    17    18    1
    14    18    19   am
    15    19    20    2
    16    19    21   am
    17    21    22    1
    18    22    23    1
    19    23    24   ar
    20    24    25   ar
    21    25    26   ar
    22    26    27   ar
    23    27    28   ar
    24    28    29    1
    25     4     5   ar
    26     5     6   ar
    27    14    15   ar
    28    15    16   ar
    29    16    11   ar
    30     6     1   ar
    31    29    21    1
    32    28    23   ar
    33    18    30    1
@<TRIPOS>MOLECULE
*****
 30 33 0 0 0
SMALL
GASTEIGER

@<TRIPOS>ATOM
      1 C           2.8128   -0.7519   21.2970 C.ar    1  UNL1        0.1103
      2 C           3.4346   -1.7845   20.4041 C.ar    1  UNL1        0.0185
      3 C           4.3749   -2.8031   20.9769 C.ar    1  UNL1       -0.0013
      4 C           4.6936   -2.7892   22.4425 C.ar    1  UNL1       -0.0024
      5 C           4.0719   -1.7566   23.3355 C.ar    1  UNL1       -0.0013
      6 C           3.1315   -0.7380   22.7627 C.ar    1  UNL1        0.0185
      7 S           1.8724    0.2667   20.7242 S.O2    1  UNL1        0.0289
      8 O           2.4086    1.2960   21.6745 O.2     1  UNL1       -0.1642
      9 O           1.3363   -0.7626   19.7740 O.2     1  UNL1       -0.1642
     10 C          -1.8891    4.3411   18.4330 C.3     1  UNL1        0.0521
     11 C          -0.9487    3.3225   19.0058 C.ar    1  UNL1        0.0595
     12 C           0.1849    2.7977   18.1755 C.ar    1  UNL1        0.0161
     13 C           1.1253    1.7791   18.7483 C.ar    1  UNL1        0.0215
     14 C           0.9321    1.2853   20.1514 C.ar    1  UNL1        0.1293
     15 C          -0.2016    1.8101   20.9818 C.ar    1  UNL1        0.1171
     16 N          -1.1420    2.8287   20.4089 N.ar    1  UNL1       -0.2468
     17 C           5.6341   -3.8078   23.0153 C.3     1  UNL1        0.1177
     18 N           5.8559   -3.8741   24.4973 N.am    1  UNL1       -0.2847
     19 C           6.8412   -4.8522   25.0652 C.2     1  UNL1        0.3047
     20 O           7.6046   -5.7640   24.1510 O.2     1  UNL1       -0.2526
     21 N           7.0630   -4.9185   26.5472 N.am    1  UNL1       -0.2560
     22 C           8.0102   -5.8402   27.2566 C.3     1  UNL1        0.1218
     23 C           7.9092   -5.5661   28.7279 C.ar    1  UNL1       -0.0016
     24 C           8.6061   -6.1691   29.9114 C.ar    1  UNL1        0.0178
     25 C           8.2934   -5.6809   31.2948 C.ar    1  UNL1        0.0986
     26 N           7.2837   -4.5898   31.4947 N.ar    1  UNL1       -0.2426
     27 C           6.5868   -3.9868   30.3112 C.ar    1  UNL1        0.0960
     28 C           6.8995   -4.4750   28.9278 C.ar    1  UNL1        0.0146
     29 C           6.3766   -4.0747   27.5801 C.3     1  UNL1        0.1233
     30 H           5.3548   -3.2757   25.0973 H       1  UNL1        0.1513
@<TRIPOS>BOND
     1    10    11    1
     2    11    12   ar
     3    12    13   ar
     4    13    14   ar
     5    14     7    1
     6     7     8    2
     7     7     9    2
     8     7     1    1
     9     1     2   ar
    10     2     3   ar
    11     3     4   ar
    12     4    17    1
    13    17    18    1
    14    18    19   am
    15    19    20    2
    16    19    21   am
    17    21    22    1
    18    22    23    1
    19    23    24   ar
    20    24    25   ar
    21    25    26   ar
    22    26    27   ar
    23    27    28   ar
    24    28    29    1
    25     4     5   ar
    26     5     6   ar
    27    14    15   ar
    28    15    16   ar
    29    16    11   ar
    30     6     1   ar
    31    29    21    1
    32    28    23   ar
    33    18    30    1
@<TRIPOS>MOLECULE
*****
 30 33 0 0 0
SMALL
GASTEIGER

@<TRIPOS>ATOM
      1 C           2.7821   -0.5046   20.9455 C.ar    1  UNL1        0.1103
      2 C           1.8942   -0.5428   19.7370 C.ar    1  UNL1        0.0185
      3 C           0.7234    0.3895   19.6369 C.ar    1  UNL1       -0.0013
      4 C           0.4404    1.3599   20.7452 C.ar    1  UNL1       -0.0024
      5 C           1.3282    1.3980   21.9536 C.ar    1  UNL1       -0.0013
      6 C           2.4991    0.4657   22.0538 C.ar    1  UNL1        0.0185
      7 S           3.9529   -1.4369   21.0456 S.O2    1  UNL1        0.0289
      8 O           3.5395   -1.8064   22.4393 O.2     1  UNL1       -0.1642
      9 O           4.3664   -1.0673   19.6519 O.2     1  UNL1       -0.1642
     10 C           8.6363   -5.1658   21.4462 C.3     1  UNL1        0.0521
     11 C           7.4655   -4.2336   21.3460 C.ar    1  UNL1        0.0595
     12 C           7.4591   -3.1458   20.3133 C.ar    1  UNL1        0.0161
     13 C           6.2883   -2.2135   20.2131 C.ar    1  UNL1        0.0215
     14 C           5.1237   -2.3691   21.1458 C.ar    1  UNL1        0.1293
     15 C           5.1301   -3.4570   22.1785 C.ar    1  UNL1        0.1171
     16 N           6.3010   -4.3892   22.2786 N.ar    1  UNL1       -0.2468
     17 C          -0.7305    2.2921   20.6450 C.3     1  UNL1        0.1177
     18 N          -1.4351    2.7476   21.8884 N.am    1  UNL1       -0.2847
     19 C          -2.7105    3.5301   21.7839 C.2     1  UNL1        0.3047
     20 O          -3.2813    3.8571   20.4359 O.2     1  UNL1       -0.2526
     21 N          -3.4151    3.9855   23.0273 N.am    1  UNL1       -0.2560
     22 C          -4.6916    4.7715   23.0797 C.3     1  UNL1        0.1218
     23 C          -5.0323    5.0067   24.5215 C.ar    1  UNL1       -0.0016
     24 C          -6.1754    5.7214   25.1790 C.ar    1  UNL1        0.0178
     25 C          -6.2526    5.7955   26.6751 C.ar    1  UNL1        0.0986
     26 N          -5.1867    5.1549   27.5138 N.ar    1  UNL1       -0.2426
     27 C          -4.0435    4.4402   26.8563 C.ar    1  UNL1        0.0960
     28 C          -3.9663    4.3661   25.3601 C.ar    1  UNL1        0.0146
     29 C          -2.9669    3.7349   24.4367 C.3     1  UNL1        0.1233
     30 H          -1.0604    2.5329   22.7732 H       1  UNL1        0.1513
@<TRIPOS>BOND
     1    10    11    1
     2    11    12   ar
     3    12    13   ar
     4    13    14   ar
     5    14     7    1
     6     7     8    2
     7     7     9    2
     8     7     1    1
     9     1     2   ar
    10     2     3   ar
    11     3     4   ar
    12     4    17    1
    13    17    18    1
    14    18    19   am
    15    19    20    2
    16    19    21   am
    17    21    22    1
    18    22    23    1
    19    23    24   ar
    20    24    25   ar
    21    25    26   ar
    22    26    27   ar
    23    27    28   ar
    24    28    29    1
    25     4     5   ar
    26     5     6   ar
    27    14    15   ar
    28    15    16   ar
    29    16    11   ar
    30     6     1   ar
    31    29    21    1
    32    28    23   ar
    33    18    30    1
@<TRIPOS>MOLECULE
*****
 30 33 0 0 0
SMALL
GASTEIGER

@<TRIPOS>ATOM
      1 C          -3.3419    3.9598   24.9152 C.ar    1  UNL1        0.1103
      2 C          -2.7413    3.5883   26.2386 C.ar    1  UNL1        0.0185
      3 C          -1.3439    3.0469   26.3025 C.ar    1  UNL1       -0.0013
      4 C          -0.5471    2.8769   25.0430 C.ar    1  UNL1       -0.0024
      5 C          -1.1477    3.2484   23.7197 C.ar    1  UNL1       -0.0013
      6 C          -2.5451    3.7898   23.6558 C.ar    1  UNL1        0.0185
      7 S          -4.7393    4.5012   24.8513 S.O2    1  UNL1        0.0289
      8 O          -4.2207    5.7672   24.2363 O.2     1  UNL1       -0.1642
      9 O          -5.2579    3.2352   25.4663 O.2     1  UNL1       -0.1642
     10 C         -10.3289    6.6669   24.5958 C.3     1  UNL1        0.0521
     11 C          -8.9315    6.1255   24.6597 C.ar    1  UNL1        0.0595
     12 C          -8.0167    6.5404   25.7737 C.ar    1  UNL1        0.0161
     13 C          -6.6193    5.9989   25.8376 C.ar    1  UNL1        0.0215
     14 C          -6.1367    5.0426   24.7874 C.ar    1  UNL1        0.1293
     15 C          -7.0516    4.6278   23.6735 C.ar    1  UNL1        0.1171
     16 N          -8.4490    5.1693   23.6097 N.ar    1  UNL1       -0.2468
     17 C           0.8504    2.3355   25.1070 C.3     1  UNL1        0.1177
     18 N           1.3621    1.4490   24.0105 N.am    1  UNL1       -0.2847
     19 C           2.3474    0.3621   24.3231 C.2     1  UNL1        0.3047
     20 O           2.8210    0.1616   25.7321 O.2     1  UNL1       -0.2526
     21 N           2.8591   -0.5244   23.2266 N.am    1  UNL1       -0.2560
     22 C           3.8413   -1.6468   23.3863 C.3     1  UNL1        0.1218
     23 C           4.0677   -2.2603   22.0363 C.ar    1  UNL1       -0.0016
     24 C           4.9320   -3.3996   21.5837 C.ar    1  UNL1        0.0178
     25 C           4.9540   -3.7957   20.1372 C.ar    1  UNL1        0.0986
     26 N           4.1117   -3.0524   19.1432 N.ar    1  UNL1       -0.2426
     27 C           3.2474   -1.9131   19.5957 C.ar    1  UNL1        0.0960
     28 C           3.2254   -1.5170   21.0423 C.ar    1  UNL1        0.0146
     29 C           2.4785   -0.4442   21.7779 C.3     1  UNL1        0.1233
     30 H           1.0513    1.5805   23.0857 H       1  UNL1        0.1513
@<TRIPOS>BOND
     1    10    11    1
     2    11    12   ar
     3    12    13   ar
     4    13    14   ar
     5    14     7    1
     6     7     8    2
     7     7     9    2
     8     7     1    1
     9     1     2   ar
    10     2     3   ar
    11     3     4   ar
    12     4    17    1
    13    17    18    1
    14    18    19   am
    15    19    20    2
    16    19    21   am
    17    21    22    1
    18    22    23    1
    19    23    24   ar
    20    24    25   ar
    21    25    26   ar
    22    26    27   ar
    23    27    28   ar
    24    28    29    1
    25     4     5   ar
    26     5     6   ar
    27    14    15   ar
    28    15    16   ar
    29    16    11   ar
    30     6     1   ar
    31    29    21    1
    32    28    23   ar
    33    18    30    1
@<TRIPOS>MOLECULE
*****
 30 33 0 0 0
SMALL
GASTEIGER

@<TRIPOS>ATOM
      1 C          -3.0794    3.9587   23.2305 C.ar    1  UNL1        0.1103
      2 C          -1.6700    3.5857   23.5832 C.ar    1  UNL1        0.0185
      3 C          -0.7534    3.0371   22.5302 C.ar    1  UNL1       -0.0013
      4 C          -1.2462    2.8616   21.1244 C.ar    1  UNL1       -0.0024
      5 C          -2.6555    3.2345   20.7716 C.ar    1  UNL1       -0.0013
      6 C          -3.5722    3.7831   21.8246 C.ar    1  UNL1        0.0185
      7 S          -3.9960    4.5072   24.2835 S.O2    1  UNL1        0.0289
      8 O          -5.1671    3.8700   23.5961 O.2     1  UNL1       -0.1642
      9 O          -2.8250    5.1444   24.9709 O.2     1  UNL1       -0.1642
     10 C          -7.6625    6.7014   28.4956 C.3     1  UNL1        0.0521
     11 C          -6.7459    6.1528   27.4426 C.ar    1  UNL1        0.0595
     12 C          -7.1540    6.1901   25.9996 C.ar    1  UNL1        0.0161
     13 C          -6.2374    5.6416   24.9466 C.ar    1  UNL1        0.0215
     14 C          -4.9126    5.0557   25.3365 C.ar    1  UNL1        0.1293
     15 C          -4.5046    5.0185   26.7795 C.ar    1  UNL1        0.1171
     16 N          -5.4213    5.5670   27.8325 N.ar    1  UNL1       -0.2468
     17 C          -0.3295    2.3130   20.0713 C.3     1  UNL1        0.1177
     18 N           0.6580    1.2397   20.4218 N.am    1  UNL1       -0.2847
     19 C           1.3407    0.4645   19.3341 C.2     1  UNL1        0.3047
     20 O           1.0359    0.7627   17.8960 O.2     1  UNL1       -0.2526
     21 N           2.3282   -0.6088   19.6846 N.am    1  UNL1       -0.2560
     22 C           3.0852   -1.4625   18.7108 C.3     1  UNL1        0.1218
     23 C           3.9570   -2.3982   19.4947 C.ar    1  UNL1       -0.0016
     24 C           4.9212   -3.4654   19.0690 C.ar    1  UNL1        0.0178
     25 C           5.6673   -4.2572   20.1016 C.ar    1  UNL1        0.0986
     26 N           5.4491   -3.9819   21.5599 N.ar    1  UNL1       -0.2426
     27 C           4.4848   -2.9147   21.9856 C.ar    1  UNL1        0.0960
     28 C           3.7388   -2.1228   20.9530 C.ar    1  UNL1        0.0146
     29 C           2.7322   -1.0169   21.0703 C.3     1  UNL1        0.1233
     30 H           0.8581    1.0440   21.3657 H       1  UNL1        0.1513
@<TRIPOS>BOND
     1    10    11    1
     2    11    12   ar
     3    12    13   ar
     4    13    14   ar
     5    14     7    1
     6     7     8    2
     7     7     9    2
     8     7     1    1
     9     1     2   ar
    10     2     3   ar
    11     3     4   ar
    12     4    17    1
    13    17    18    1
    14    18    19   am
    15    19    20    2
    16    19    21   am
    17    21    22    1
    18    22    23    1
    19    23    24   ar
    20    24    25   ar
    21    25    26   ar
    22    26    27   ar
    23    27    28   ar
    24    28    29    1
    25     4     5   ar
    26     5     6   ar
    27    14    15   ar
    28    15    16   ar
    29    16    11   ar
    30     6     1   ar
    31    29    21    1
    32    28    23   ar
    33    18    30    1
