@<TRIPOS>MOLECULE
*****
 24 26 0 0 0
SMALL
GASTEIGER

@<TRIPOS>ATOM
      1 N         -14.0828  -17.7946   24.3601 N.pl3   1  UNL1       -0.3375
      2 C         -12.9117  -18.0959   23.4726 C.ar    1  UNL1        0.1567
      3 N         -12.8645  -17.9173   21.9840 N.ar    1  UNL1       -0.2245
      4 C         -11.5058  -18.3397   21.5092 C.ar    1  UNL1        0.0893
      5 C         -10.8879  -18.3808   20.1430 C.ar    1  UNL1        0.0210
      6 C          -9.4774  -18.8616   19.9720 C.ar    1  UNL1        0.0199
      7 C          -8.6848  -19.3013   21.1672 C.ar    1  UNL1        0.1066
      8 C          -9.3027  -19.2602   22.5334 C.ar    1  UNL1        0.0264
      9 C         -10.7132  -18.7794   22.7044 C.ar    1  UNL1        0.0510
     10 S         -11.5821  -18.6288   23.9178 S.2     1  UNL1       -0.0519
     11 H         -14.9176  -17.4458   23.9721 H       1  UNL1        0.1442
     12 H         -14.0166  -17.9457   25.3307 H       1  UNL1        0.1442
     13 S          -7.2742  -19.7821   20.9961 S.O2    1  UNL1        0.0129
     14 O          -7.2231  -19.1485   19.6375 O.2     1  UNL1       -0.1683
     15 O          -7.3254  -20.4157   22.3547 O.2     1  UNL1       -0.1683
     16 C          -5.8637  -20.2628   20.8250 C.3     1  UNL1        0.1823
     17 C          -4.7233  -19.2939   20.9284 C.ar    1  UNL1        0.0026
     18 C          -4.4293  -18.6184   22.2351 C.ar    1  UNL1       -0.0016
     19 C          -3.2889  -17.6495   22.3386 C.ar    1  UNL1        0.0120
     20 C          -2.4426  -17.3561   21.1354 C.ar    1  UNL1        0.0682
     21 CL         -1.3022  -16.3872   21.2389 Cl      1  UNL1       -0.0814
     22 C          -2.7366  -18.0316   19.8288 C.ar    1  UNL1        0.0679
     23 CL         -1.8902  -17.7381   18.6256 Cl      1  UNL1       -0.0814
     24 C          -3.8770  -19.0005   19.7253 C.ar    1  UNL1        0.0097
@<TRIPOS>BOND
     1     1     2    1
     2     2     3   ar
     3     3     4   ar
     4     4     5   ar
     5     5     6   ar
     6     6     7   ar
     7     7    13    1
     8    13    14    2
     9    13    15    2
    10    13    16    1
    11    16    17    1
    12    17    18   ar
    13    18    19   ar
    14    19    20   ar
    15    20    21    1
    16    20    22   ar
    17    22    23    1
    18    22    24   ar
    19     7     8   ar
    20     8     9   ar
    21     9    10   ar
    22    10     2   ar
    23     9     4   ar
    24    24    17   ar
    25     1    11    1
    26     1    12    1
@<TRIPOS>MOLECULE
*****
 24 26 0 0 0
SMALL
GASTEIGER

@<TRIPOS>ATOM
      1 N         -14.0395  -17.7984   24.3950 N.pl3   1  UNL1       -0.3375
      2 C         -12.8910  -18.0904   23.4754 C.ar    1  UNL1        0.1567
      3 N         -12.8571  -17.8337   21.9979 N.ar    1  UNL1       -0.2245
      4 C         -11.5199  -18.2750   21.4812 C.ar    1  UNL1        0.0893
      5 C         -10.9216  -18.2631   20.1057 C.ar    1  UNL1        0.0210
      6 C          -9.5307  -18.7808   19.8884 C.ar    1  UNL1        0.0199
      7 C          -8.7380  -19.3102   21.0466 C.ar    1  UNL1        0.1066
      8 C          -9.3362  -19.3221   22.4220 C.ar    1  UNL1        0.0264
      9 C         -10.7272  -18.8045   22.6393 C.ar    1  UNL1        0.0510
     10 S         -11.5746  -18.6904   23.8718 S.2     1  UNL1       -0.0519
     11 H         -14.8669  -17.4016   24.0385 H       1  UNL1        0.1442
     12 H         -13.9658  -18.0035   25.3550 H       1  UNL1        0.1442
     13 S          -7.3469  -19.8279   20.8292 S.O2    1  UNL1        0.0129
     14 O          -7.3690  -19.2978   19.4262 O.2     1  UNL1       -0.1683
     15 O          -7.3249  -20.3580   22.2322 O.2     1  UNL1       -0.1683
     16 C          -5.9560  -20.3454   20.6118 C.3     1  UNL1        0.1823
     17 C          -4.7858  -19.4112   20.6998 C.ar    1  UNL1        0.0026
     18 C          -4.0653  -18.9920   19.4527 C.ar    1  UNL1       -0.0016
     19 C          -2.8951  -18.0577   19.5407 C.ar    1  UNL1        0.0120
     20 C          -2.4454  -17.5426   20.8758 C.ar    1  UNL1        0.0682
     21 CL         -1.2752  -16.6083   20.9638 Cl      1  UNL1       -0.0814
     22 C          -3.1659  -17.9617   22.1228 C.ar    1  UNL1        0.0679
     23 CL         -2.7162  -17.4466   23.4580 Cl      1  UNL1       -0.0814
     24 C          -4.3361  -18.8960   22.0349 C.ar    1  UNL1        0.0097
@<TRIPOS>BOND
     1     1     2    1
     2     2     3   ar
     3     3     4   ar
     4     4     5   ar
     5     5     6   ar
     6     6     7   ar
     7     7    13    1
     8    13    14    2
     9    13    15    2
    10    13    16    1
    11    16    17    1
    12    17    18   ar
    13    18    19   ar
    14    19    20   ar
    15    20    21    1
    16    20    22   ar
    17    22    23    1
    18    22    24   ar
    19     7     8   ar
    20     8     9   ar
    21     9    10   ar
    22    10     2   ar
    23     9     4   ar
    24    24    17   ar
    25     1    11    1
    26     1    12    1
@<TRIPOS>MOLECULE
*****
 24 26 0 0 0
SMALL
GASTEIGER

@<TRIPOS>ATOM
      1 N         -19.2206  -11.0453   18.1731 N.pl3   1  UNL1       -0.3375
      2 C         -18.2759   -9.9073   18.4227 C.ar    1  UNL1        0.1567
      3 N         -18.6614   -8.5088   18.8042 N.ar    1  UNL1       -0.2245
      4 C         -17.4036   -7.7050   18.9519 C.ar    1  UNL1        0.0893
      5 C         -17.1669   -6.2686   19.3131 C.ar    1  UNL1        0.0210
      6 C         -15.7673   -5.7339   19.3842 C.ar    1  UNL1        0.0199
      7 C         -14.6043   -6.6356   19.0939 C.ar    1  UNL1        0.1066
      8 C         -14.8409   -8.0721   18.7326 C.ar    1  UNL1        0.0264
      9 C         -16.2406   -8.6068   18.6616 C.ar    1  UNL1        0.0510
     10 S         -16.7797   -9.9678   18.3346 S.2     1  UNL1       -0.0519
     11 H         -20.1917  -10.9062   18.2562 H       1  UNL1        0.1442
     12 H         -18.8696  -11.9314   17.9263 H       1  UNL1        0.1442
     13 S         -13.2046   -6.1009   19.1649 S.O2    1  UNL1        0.0129
     14 O         -13.4775   -5.5695   20.5408 O.2     1  UNL1       -0.1683
     15 O         -12.9317   -6.6322   17.7890 O.2     1  UNL1       -0.1683
     16 C         -11.8050   -5.5661   19.2360 C.3     1  UNL1        0.1823
     17 C         -11.4561   -4.2832   18.5414 C.ar    1  UNL1        0.0026
     18 C         -10.3548   -4.2570   17.5233 C.ar    1  UNL1       -0.0016
     19 C         -10.0059   -2.9741   16.8287 C.ar    1  UNL1        0.0120
     20 C         -10.7583   -1.7174   17.1523 C.ar    1  UNL1        0.0682
     21 CL        -10.4094   -0.4345   16.4577 Cl      1  UNL1       -0.0814
     22 C         -11.8596   -1.7436   18.1704 C.ar    1  UNL1        0.0679
     23 CL        -12.6120   -0.4869   18.4939 Cl      1  UNL1       -0.0814
     24 C         -12.2084   -3.0265   18.8649 C.ar    1  UNL1        0.0097
@<TRIPOS>BOND
     1     1     2    1
     2     2     3   ar
     3     3     4   ar
     4     4     5   ar
     5     5     6   ar
     6     6     7   ar
     7     7    13    1
     8    13    14    2
     9    13    15    2
    10    13    16    1
    11    16    17    1
    12    17    18   ar
    13    18    19   ar
    14    19    20   ar
    15    20    21    1
    16    20    22   ar
    17    22    23    1
    18    22    24   ar
    19     7     8   ar
    20     8     9   ar
    21     9    10   ar
    22    10     2   ar
    23     9     4   ar
    24    24    17   ar
    25     1    11    1
    26     1    12    1
@<TRIPOS>MOLECULE
*****
 24 26 0 0 0
SMALL
GASTEIGER

@<TRIPOS>ATOM
      1 N         -19.7619   -9.7205   19.6684 N.pl3   1  UNL1       -0.3375
      2 C         -18.3820   -9.2100   19.3760 C.ar    1  UNL1        0.1567
      3 N         -17.3694   -9.8667   18.4853 N.ar    1  UNL1       -0.2245
      4 C         -16.1340   -9.0158   18.4818 C.ar    1  UNL1        0.0893
      5 C         -14.8145   -9.1651   17.7843 C.ar    1  UNL1        0.0210
      6 C         -13.7442   -8.1318   17.9753 C.ar    1  UNL1        0.0199
      7 C         -13.9933   -6.9492   18.8639 C.ar    1  UNL1        0.1066
      8 C         -15.3128   -6.8000   19.5613 C.ar    1  UNL1        0.0264
      9 C         -16.3832   -7.8333   19.3703 C.ar    1  UNL1        0.0510
     10 S         -17.7725   -7.9533   19.9229 S.2     1  UNL1       -0.0519
     11 H         -20.0731  -10.5601   19.2593 H       1  UNL1        0.1442
     12 H         -20.3563   -9.2158   20.2694 H       1  UNL1        0.1442
     13 S         -12.9229   -5.9159   19.0549 S.O2    1  UNL1        0.0129
     14 O         -12.4957   -6.0947   17.6282 O.2     1  UNL1       -0.1683
     15 O         -13.3500   -5.7370   20.4816 O.2     1  UNL1       -0.1683
     16 C         -11.8525   -4.8826   19.2458 C.3     1  UNL1        0.1823
     17 C         -12.1266   -3.4472   18.9073 C.ar    1  UNL1        0.0026
     18 C         -13.4316   -2.8202   19.2998 C.ar    1  UNL1       -0.0016
     19 C         -13.7058   -1.3848   18.9613 C.ar    1  UNL1        0.0120
     20 C         -12.6750   -0.5765   18.2303 C.ar    1  UNL1        0.0682
     21 CL        -12.9492    0.8588   17.8918 Cl      1  UNL1       -0.0814
     22 C         -11.3701   -1.2036   17.8379 C.ar    1  UNL1        0.0679
     23 CL        -10.3394   -0.3953   17.1069 Cl      1  UNL1       -0.0814
     24 C         -11.0959   -2.6390   18.1764 C.ar    1  UNL1        0.0097
@<TRIPOS>BOND
     1     1     2    1
     2     2     3   ar
     3     3     4   ar
     4     4     5   ar
     5     5     6   ar
     6     6     7   ar
     7     7    13    1
     8    13    14    2
     9    13    15    2
    10    13    16    1
    11    16    17    1
    12    17    18   ar
    13    18    19   ar
    14    19    20   ar
    15    20    21    1
    16    20    22   ar
    17    22    23    1
    18    22    24   ar
    19     7     8   ar
    20     8     9   ar
    21     9    10   ar
    22    10     2   ar
    23     9     4   ar
    24    24    17   ar
    25     1    11    1
    26     1    12    1
@<TRIPOS>MOLECULE
*****
 24 26 0 0 0
SMALL
GASTEIGER

@<TRIPOS>ATOM
      1 N         -11.7785    1.2932   17.0300 N.pl3   1  UNL1       -0.3375
      2 C         -11.5888   -0.1947   17.0489 C.ar    1  UNL1        0.1567
      3 N         -10.3216   -0.9262   16.7186 N.ar    1  UNL1       -0.2245
      4 C         -10.5826   -2.3959   16.8670 C.ar    1  UNL1        0.0893
      5 C          -9.7041   -3.5959   16.6723 C.ar    1  UNL1        0.0210
      6 C         -10.2541   -4.9728   16.8997 C.ar    1  UNL1        0.0199
      7 C         -11.6826   -5.1496   17.3218 C.ar    1  UNL1        0.1066
      8 C         -12.5611   -3.9495   17.5165 C.ar    1  UNL1        0.0264
      9 C         -12.0111   -2.5726   17.2891 C.ar    1  UNL1        0.0510
     10 S         -12.6329   -1.2122   17.4015 S.2     1  UNL1       -0.0519
     11 H         -11.0288    1.8819   16.7839 H       1  UNL1        0.1442
     12 H         -12.6527    1.6810   17.2637 H       1  UNL1        0.1442
     13 S         -12.2325   -6.5265   17.5492 S.O2    1  UNL1        0.0129
     14 O         -11.4978   -6.6043   18.8546 O.2     1  UNL1       -0.1683
     15 O         -12.9673   -6.4487   16.2439 O.2     1  UNL1       -0.1683
     16 C         -12.7824   -7.9034   17.7767 C.3     1  UNL1        0.1823
     17 C         -14.1774   -8.0769   18.3002 C.ar    1  UNL1        0.0026
     18 C         -14.8552   -6.9471   19.0174 C.ar    1  UNL1       -0.0016
     19 C         -16.2501   -7.1206   19.5410 C.ar    1  UNL1        0.0120
     20 C         -16.9672   -8.4238   19.3473 C.ar    1  UNL1        0.0682
     21 CL        -18.3621   -8.5973   19.8708 Cl      1  UNL1       -0.0814
     22 C         -16.2894   -9.5535   18.6301 C.ar    1  UNL1        0.0679
     23 CL        -17.0065  -10.8567   18.4365 Cl      1  UNL1       -0.0814
     24 C         -14.8945   -9.3800   18.1066 C.ar    1  UNL1        0.0097
@<TRIPOS>BOND
     1     1     2    1
     2     2     3   ar
     3     3     4   ar
     4     4     5   ar
     5     5     6   ar
     6     6     7   ar
     7     7    13    1
     8    13    14    2
     9    13    15    2
    10    13    16    1
    11    16    17    1
    12    17    18   ar
    13    18    19   ar
    14    19    20   ar
    15    20    21    1
    16    20    22   ar
    17    22    23    1
    18    22    24   ar
    19     7     8   ar
    20     8     9   ar
    21     9    10   ar
    22    10     2   ar
    23     9     4   ar
    24    24    17   ar
    25     1    11    1
    26     1    12    1
@<TRIPOS>MOLECULE
*****
 24 26 0 0 0
SMALL
GASTEIGER

@<TRIPOS>ATOM
      1 N         -12.2545    3.8601   16.4255 N.pl3   1  UNL1       -0.3375
      2 C         -12.8991    2.6902   17.1080 C.ar    1  UNL1        0.1567
      3 N         -14.1591    2.7284   17.9210 N.ar    1  UNL1       -0.2245
      4 C         -14.4356    1.3385   18.4129 C.ar    1  UNL1        0.0893
      5 C         -15.5384    0.7740   19.2584 C.ar    1  UNL1        0.0210
      6 C         -15.5522   -0.6877   19.5950 C.ar    1  UNL1        0.0199
      7 C         -14.4631   -1.5848   19.0859 C.ar    1  UNL1        0.1066
      8 C         -13.3603   -1.0203   18.2403 C.ar    1  UNL1        0.0264
      9 C         -13.3466    0.4414   17.9038 C.ar    1  UNL1        0.0510
     10 S         -12.3970    1.2768   17.0974 S.2     1  UNL1       -0.0519
     11 H         -12.6619    4.7539   16.4909 H       1  UNL1        0.1442
     12 H         -11.4239    3.7341   15.9122 H       1  UNL1        0.1442
     13 S         -14.4769   -3.0465   19.4225 S.O2    1  UNL1        0.0129
     14 O         -14.8651   -3.3681   18.0098 O.2     1  UNL1       -0.1683
     15 O         -14.0887   -2.7250   20.8352 O.2     1  UNL1       -0.1683
     16 C         -14.4907   -4.5082   19.7590 C.3     1  UNL1        0.1823
     17 C         -13.3591   -5.3896   19.3201 C.ar    1  UNL1        0.0026
     18 C         -13.6363   -6.7849   18.8442 C.ar    1  UNL1       -0.0016
     19 C         -12.5047   -7.6663   18.4053 C.ar    1  UNL1        0.0120
     20 C         -11.0959   -7.1524   18.4422 C.ar    1  UNL1        0.0682
     21 CL         -9.9644   -8.0338   18.0033 Cl      1  UNL1       -0.0814
     22 C         -10.8188   -5.7572   18.9180 C.ar    1  UNL1        0.0679
     23 CL         -9.4100   -5.2433   18.9549 Cl      1  UNL1       -0.0814
     24 C         -11.9504   -4.8758   19.3570 C.ar    1  UNL1        0.0097
@<TRIPOS>BOND
     1     1     2    1
     2     2     3   ar
     3     3     4   ar
     4     4     5   ar
     5     5     6   ar
     6     6     7   ar
     7     7    13    1
     8    13    14    2
     9    13    15    2
    10    13    16    1
    11    16    17    1
    12    17    18   ar
    13    18    19   ar
    14    19    20   ar
    15    20    21    1
    16    20    22   ar
    17    22    23    1
    18    22    24   ar
    19     7     8   ar
    20     8     9   ar
    21     9    10   ar
    22    10     2   ar
    23     9     4   ar
    24    24    17   ar
    25     1    11    1
    26     1    12    1
@<TRIPOS>MOLECULE
*****
 24 26 0 0 0
SMALL
GASTEIGER

@<TRIPOS>ATOM
      1 N          -9.5566   -8.2140   18.9489 N.pl3   1  UNL1       -0.3375
      2 C         -10.3176   -6.9216   18.9301 C.ar    1  UNL1        0.1567
      3 N          -9.7212   -5.5485   18.8348 N.ar    1  UNL1       -0.2245
      4 C         -10.8437   -4.5536   18.8491 C.ar    1  UNL1        0.0893
      5 C         -10.8577   -3.0552   18.7807 C.ar    1  UNL1        0.0210
      6 C         -12.1618   -2.3150   18.8165 C.ar    1  UNL1        0.0199
      7 C         -13.4519   -3.0732   18.9206 C.ar    1  UNL1        0.1066
      8 C         -13.4379   -4.5715   18.9889 C.ar    1  UNL1        0.0264
      9 C         -12.1338   -5.3117   18.9532 C.ar    1  UNL1        0.0510
     10 S         -11.8086   -6.7752   19.0032 S.2     1  UNL1       -0.0519
     11 H          -8.5735   -8.2073   18.8959 H       1  UNL1        0.1442
     12 H         -10.0401   -9.0691   19.0142 H       1  UNL1        0.1442
     13 S         -14.7561   -2.3329   18.9563 S.O2    1  UNL1        0.0129
     14 O         -14.8214   -2.3758   17.4584 O.2     1  UNL1       -0.1683
     15 O         -14.6907   -2.2900   20.4543 O.2     1  UNL1       -0.1683
     16 C         -16.0602   -1.5926   18.9920 C.3     1  UNL1        0.1823
     17 C         -16.1020   -0.1692   19.4632 C.ar    1  UNL1        0.0026
     18 C         -15.2154    0.8586   18.8246 C.ar    1  UNL1       -0.0016
     19 C         -15.2571    2.2820   19.2957 C.ar    1  UNL1        0.0120
     20 C         -16.1855    2.6778   20.4056 C.ar    1  UNL1        0.0682
     21 CL        -16.2273    4.1012   20.8768 Cl      1  UNL1       -0.0814
     22 C         -17.0720    1.6500   21.0442 C.ar    1  UNL1        0.0679
     23 CL        -18.0003    2.0457   22.1540 Cl      1  UNL1       -0.0814
     24 C         -17.0302    0.2266   20.5730 C.ar    1  UNL1        0.0097
@<TRIPOS>BOND
     1     1     2    1
     2     2     3   ar
     3     3     4   ar
     4     4     5   ar
     5     5     6   ar
     6     6     7   ar
     7     7    13    1
     8    13    14    2
     9    13    15    2
    10    13    16    1
    11    16    17    1
    12    17    18   ar
    13    18    19   ar
    14    19    20   ar
    15    20    21    1
    16    20    22   ar
    17    22    23    1
    18    22    24   ar
    19     7     8   ar
    20     8     9   ar
    21     9    10   ar
    22    10     2   ar
    23     9     4   ar
    24    24    17   ar
    25     1    11    1
    26     1    12    1
@<TRIPOS>MOLECULE
*****
 24 26 0 0 0
SMALL
GASTEIGER

@<TRIPOS>ATOM
      1 N          -8.4643  -14.5413   27.5004 N.pl3   1  UNL1       -0.3375
      2 C          -8.3344  -15.4975   26.3519 C.ar    1  UNL1        0.1567
      3 N          -9.4112  -16.4036   25.8329 N.ar    1  UNL1       -0.2245
      4 C          -8.8472  -17.1814   24.6810 C.ar    1  UNL1        0.0893
      5 C          -9.4474  -18.2221   23.7829 C.ar    1  UNL1        0.0210
      6 C          -8.6222  -18.8374   22.6919 C.ar    1  UNL1        0.0199
      7 C          -7.1967  -18.4121   22.4990 C.ar    1  UNL1        0.1066
      8 C          -6.5965  -17.3714   23.3971 C.ar    1  UNL1        0.0264
      9 C          -7.4217  -16.7561   24.4881 C.ar    1  UNL1        0.0510
     10 S          -7.1048  -15.7154   25.5208 S.2     1  UNL1       -0.0519
     11 H          -9.3171  -14.4693   27.9869 H       1  UNL1        0.1442
     12 H          -7.6967  -13.9858   27.7676 H       1  UNL1        0.1442
     13 S          -6.3715  -19.0275   21.4079 S.O2    1  UNL1        0.0129
     14 O          -6.8357  -17.9642   20.4572 O.2     1  UNL1       -0.1683
     15 O          -5.9074  -20.0908   22.3586 O.2     1  UNL1       -0.1683
     16 C          -5.5464  -19.6428   20.3169 C.3     1  UNL1        0.1823
     17 C          -4.0959  -19.2855   20.1812 C.ar    1  UNL1        0.0026
     18 C          -3.1195  -19.6972   21.2430 C.ar    1  UNL1       -0.0016
     19 C          -1.6691  -19.3399   21.1074 C.ar    1  UNL1        0.0120
     20 C          -1.1949  -18.5708   19.9100 C.ar    1  UNL1        0.0682
     21 CL          0.2556  -18.2135   19.7743 Cl      1  UNL1       -0.0814
     22 C          -2.1712  -18.1591   18.8483 C.ar    1  UNL1        0.0679
     23 CL         -1.6970  -17.3900   17.6508 Cl      1  UNL1       -0.0814
     24 C          -3.6217  -18.5164   18.9839 C.ar    1  UNL1        0.0097
@<TRIPOS>BOND
     1     1     2    1
     2     2     3   ar
     3     3     4   ar
     4     4     5   ar
     5     5     6   ar
     6     6     7   ar
     7     7    13    1
     8    13    14    2
     9    13    15    2
    10    13    16    1
    11    16    17    1
    12    17    18   ar
    13    18    19   ar
    14    19    20   ar
    15    20    21    1
    16    20    22   ar
    17    22    23    1
    18    22    24   ar
    19     7     8   ar
    20     8     9   ar
    21     9    10   ar
    22    10     2   ar
    23     9     4   ar
    24    24    17   ar
    25     1    11    1
    26     1    12    1
@<TRIPOS>MOLECULE
*****
 24 26 0 0 0
SMALL
GASTEIGER

@<TRIPOS>ATOM
      1 N           6.5435   -5.7932   29.2130 N.pl3   1  UNL1       -0.3375
      2 C           6.9817   -5.8170   27.7787 C.ar    1  UNL1        0.1567
      3 N           7.5221   -7.0064   27.0414 N.ar    1  UNL1       -0.2245
      4 C           7.8309   -6.5800   25.6368 C.ar    1  UNL1        0.0893
      5 C           8.3852   -7.3271   24.4601 C.ar    1  UNL1        0.0210
      6 C           8.5900   -6.6212   23.1525 C.ar    1  UNL1        0.0199
      7 C           8.2405   -5.1684   23.0217 C.ar    1  UNL1        0.1066
      8 C           7.6863   -4.4214   24.1984 C.ar    1  UNL1        0.0264
      9 C           7.4814   -5.1272   25.5059 C.ar    1  UNL1        0.0510
     10 S           6.9567   -4.6557   26.8297 S.2     1  UNL1       -0.0519
     11 H           6.5983   -6.6112   29.7581 H       1  UNL1        0.1442
     12 H           6.2010   -4.9596   29.6093 H       1  UNL1        0.1442
     13 S           8.4454   -4.4626   21.7140 S.O2    1  UNL1        0.0129
     14 O           8.3994   -5.7789   20.9963 O.2     1  UNL1       -0.1683
     15 O           8.4914   -3.1462   22.4316 O.2     1  UNL1       -0.1683
     16 C           8.6502   -3.7568   20.4064 C.3     1  UNL1        0.1823
     17 C           7.4798   -3.1519   19.6892 C.ar    1  UNL1        0.0026
     18 C           7.7015   -2.0825   18.6609 C.ar    1  UNL1       -0.0016
     19 C           6.5311   -1.4776   17.9437 C.ar    1  UNL1        0.0120
     20 C           5.1391   -1.9421   18.2548 C.ar    1  UNL1        0.0682
     21 CL          3.9688   -1.3372   17.5376 Cl      1  UNL1       -0.0814
     22 C           4.9176   -3.0114   19.2830 C.ar    1  UNL1        0.0679
     23 CL          3.5256   -3.4759   19.5942 Cl      1  UNL1       -0.0814
     24 C           6.0879   -3.6163   20.0002 C.ar    1  UNL1        0.0097
@<TRIPOS>BOND
     1     1     2    1
     2     2     3   ar
     3     3     4   ar
     4     4     5   ar
     5     5     6   ar
     6     6     7   ar
     7     7    13    1
     8    13    14    2
     9    13    15    2
    10    13    16    1
    11    16    17    1
    12    17    18   ar
    13    18    19   ar
    14    19    20   ar
    15    20    21    1
    16    20    22   ar
    17    22    23    1
    18    22    24   ar
    19     7     8   ar
    20     8     9   ar
    21     9    10   ar
    22    10     2   ar
    23     9     4   ar
    24    24    17   ar
    25     1    11    1
    26     1    12    1
