@<TRIPOS>MOLECULE
*****
 28 32 0 0 0
SMALL
GASTEIGER

@<TRIPOS>ATOM
      1 N          -5.6533  -15.6234   23.7146 N.pl3   1  UNL1       -0.3133
      2 C          -7.0123  -16.1163   23.3145 C.2     1  UNL1        0.2770
      3 N          -7.2980  -17.2243   22.3445 N.2     1  UNL1       -0.2203
      4 C          -8.7864  -17.3806   22.2446 C.3     1  UNL1        0.1539
      5 C          -9.4207  -16.3692   23.1528 C.3     1  UNL1        0.2350
      6 O          -8.3242  -15.5879   23.8141 O.2     1  UNL1       -0.4478
      7 C          -8.0136  -18.3348   21.3831 C.ar    1  UNL1        0.0355
      8 C          -6.5141  -18.2959   21.3793 C.ar    1  UNL1        0.0007
      9 C          -5.7413  -19.2502   20.5179 C.ar    1  UNL1        0.0015
     10 C          -6.4679  -20.2434   19.6603 C.ar    1  UNL1        0.0031
     11 C          -7.9674  -20.2824   19.6641 C.ar    1  UNL1        0.0366
     12 C          -8.7403  -19.3281   20.5256 C.ar    1  UNL1        0.1363
     13 O         -10.2397  -19.3671   20.5294 O.3     1  UNL1       -0.4768
     14 C         -11.0126  -18.4128   21.3908 C.3     1  UNL1        0.1975
     15 C         -12.5121  -18.4517   21.3946 C.3     1  UNL1        0.1855
     16 O         -13.2849  -17.4975   22.2560 O.3     1  UNL1       -0.3499
     17 C         -12.5583  -16.5042   23.1136 C.3     1  UNL1        0.1425
     18 C         -11.0588  -16.4652   23.1098 C.3     1  UNL1        0.0381
     19 C         -10.2860  -17.4195   22.2484 C.3     1  UNL1        0.0734
     20 H          -4.8468  -16.0365   23.3297 H       1  UNL1        0.1466
     21 H          -5.5678  -14.8868   24.3622 H       1  UNL1        0.1466
     22 C          -4.2418  -19.2112   20.5141 C.ar    1  UNL1        0.0200
     23 C          -3.4710  -19.8931   21.6053 C.ar    1  UNL1        0.0989
     24 N          -1.9715  -19.8541   21.6015 N.ar    1  UNL1       -0.2414
     25 C          -1.2428  -19.1332   20.5064 C.ar    1  UNL1        0.1102
     26 C          -2.0136  -18.4513   19.4151 C.ar    1  UNL1        0.0768
     27 CL         -1.2849  -17.7304   18.3200 Cl      1  UNL1       -0.0806
     28 C          -3.5131  -18.4903   19.4189 C.ar    1  UNL1        0.0145
@<TRIPOS>BOND
     1     1     2    1
     2     2     3    2
     3     3     4    1
     4     4     5    1
     5     5     6    1
     6     4     7    1
     7     7     8   ar
     8     8     9   ar
     9     9    22    1
    10    22    23   ar
    11    23    24   ar
    12    24    25   ar
    13    25    26   ar
    14    26    27    1
    15    26    28   ar
    16     9    10   ar
    17    10    11   ar
    18    11    12   ar
    19    12    13    1
    20    13    14    1
    21    14    15    1
    22    15    16    1
    23    16    17    1
    24    17    18    1
    25    19    18    1
    26     6     2    1
    27    12     7   ar
    28    19    14    1
    29    19     4    1
    30    28    22   ar
    31     1    20    1
    32     1    21    1
@<TRIPOS>MOLECULE
*****
 28 32 0 0 0
SMALL
GASTEIGER

@<TRIPOS>ATOM
      1 N          -8.5554  -20.6619   19.2552 N.pl3   1  UNL1       -0.3133
      2 C          -7.3076  -20.1710   19.9275 C.2     1  UNL1        0.2770
      3 N          -7.2367  -19.1215   20.9968 N.2     1  UNL1       -0.2203
      4 C          -5.7969  -18.9453   21.3788 C.3     1  UNL1        0.1539
      5 C          -4.9779  -19.8860   20.5455 C.3     1  UNL1        0.2350
      6 O          -5.9116  -20.6435   19.6485 O.2     1  UNL1       -0.4478
      7 C          -6.7418  -18.0611   22.1372 C.ar    1  UNL1        0.0355
      8 C          -8.2150  -18.1269   21.8619 C.ar    1  UNL1        0.0007
      9 C          -9.1599  -17.2427   22.6203 C.ar    1  UNL1        0.0015
     10 C          -8.6318  -16.2927   23.6541 C.ar    1  UNL1        0.0031
     11 C          -7.1588  -16.2269   23.9293 C.ar    1  UNL1        0.0366
     12 C          -6.2138  -17.1111   23.1709 C.ar    1  UNL1        0.1363
     13 O          -4.7407  -17.0453   23.4462 O.3     1  UNL1       -0.4768
     14 C          -3.7957  -17.9295   22.6877 C.3     1  UNL1        0.1975
     15 C          -2.3227  -17.8636   22.9630 C.3     1  UNL1        0.1855
     16 O          -1.3778  -18.7478   22.2046 O.3     1  UNL1       -0.3499
     17 C          -1.9059  -19.6979   21.1709 C.3     1  UNL1        0.1425
     18 C          -3.3789  -19.7637   20.8956 C.3     1  UNL1        0.0381
     19 C          -4.3238  -18.8795   21.6540 C.3     1  UNL1        0.0734
     20 H          -9.4304  -20.2883   19.5082 H       1  UNL1        0.1466
     21 H          -8.4994  -21.3576   18.5609 H       1  UNL1        0.1466
     22 C         -10.6329  -17.3086   22.3451 C.ar    1  UNL1        0.0200
     23 C         -11.1543  -16.9960   20.9738 C.ar    1  UNL1        0.0989
     24 N         -12.6275  -17.0619   20.6985 N.ar    1  UNL1       -0.2414
     25 C         -13.5790  -17.4402   21.7945 C.ar    1  UNL1        0.1102
     26 C         -13.0576  -17.7528   23.1658 C.ar    1  UNL1        0.0768
     27 CL        -14.0092  -18.1312   24.2618 Cl      1  UNL1       -0.0806
     28 C         -11.5846  -17.6870   23.4411 C.ar    1  UNL1        0.0145
@<TRIPOS>BOND
     1     1     2    1
     2     2     3    2
     3     3     4    1
     4     4     5    1
     5     5     6    1
     6     4     7    1
     7     7     8   ar
     8     8     9   ar
     9     9    22    1
    10    22    23   ar
    11    23    24   ar
    12    24    25   ar
    13    25    26   ar
    14    26    27    1
    15    26    28   ar
    16     9    10   ar
    17    10    11   ar
    18    11    12   ar
    19    12    13    1
    20    13    14    1
    21    14    15    1
    22    15    16    1
    23    16    17    1
    24    17    18    1
    25    19    18    1
    26     6     2    1
    27    12     7   ar
    28    19    14    1
    29    19     4    1
    30    28    22   ar
    31     1    20    1
    32     1    21    1
@<TRIPOS>MOLECULE
*****
 28 32 0 0 0
SMALL
GASTEIGER

@<TRIPOS>ATOM
      1 N         -16.4485   -3.7442   20.5554 N.pl3   1  UNL1       -0.3133
      2 C         -15.0971   -4.1120   20.0183 C.2     1  UNL1        0.2770
      3 N         -14.1166   -3.1732   19.3800 N.2     1  UNL1       -0.2203
      4 C         -12.9025   -3.9641   18.9924 C.3     1  UNL1        0.1539
      5 C         -13.1326   -5.3918   19.3910 C.3     1  UNL1        0.2350
      6 O         -14.4890   -5.4832   20.0251 O.2     1  UNL1       -0.4478
      7 C         -12.8149   -2.5059   18.6521 C.ar    1  UNL1        0.0355
      8 C         -13.9559   -1.5892   18.9806 C.ar    1  UNL1        0.0007
      9 C         -13.8683   -0.1310   18.6403 C.ar    1  UNL1        0.0015
     10 C         -12.6398    0.4106   17.9715 C.ar    1  UNL1        0.0031
     11 C         -11.4988   -0.5060   17.6429 C.ar    1  UNL1        0.0366
     12 C         -11.5864   -1.9643   17.9832 C.ar    1  UNL1        0.1363
     13 O         -10.4454   -2.8809   17.6547 O.3     1  UNL1       -0.4768
     14 C         -10.5330   -4.3392   17.9950 C.3     1  UNL1        0.1975
     15 C          -9.3920   -5.2559   17.6665 C.3     1  UNL1        0.1855
     16 O          -9.4796   -6.7141   18.0068 O.3     1  UNL1       -0.3499
     17 C         -10.7081   -7.2557   18.6756 C.3     1  UNL1        0.1425
     18 C         -11.8491   -6.3391   19.0042 C.3     1  UNL1        0.0381
     19 C         -11.7615   -4.8808   18.6638 C.3     1  UNL1        0.0734
     20 H         -16.7612   -2.8120   20.5050 H       1  UNL1        0.1466
     21 H         -17.0228   -4.4350   20.9582 H       1  UNL1        0.1466
     22 C         -15.0093    0.7857   18.9689 C.ar    1  UNL1        0.0200
     23 C         -14.9813    2.2129   18.5083 C.ar    1  UNL1        0.0989
     24 N         -16.1223    3.1295   18.8368 N.ar    1  UNL1       -0.2414
     25 C         -17.2913    2.6189   19.6260 C.ar    1  UNL1        0.1102
     26 C         -17.3192    1.1917   20.0866 C.ar    1  UNL1        0.0768
     27 CL        -18.4882    0.6810   20.8757 Cl      1  UNL1       -0.0806
     28 C         -16.1783    0.2750   19.7580 C.ar    1  UNL1        0.0145
@<TRIPOS>BOND
     1     1     2    1
     2     2     3    2
     3     3     4    1
     4     4     5    1
     5     5     6    1
     6     4     7    1
     7     7     8   ar
     8     8     9   ar
     9     9    22    1
    10    22    23   ar
    11    23    24   ar
    12    24    25   ar
    13    25    26   ar
    14    26    27    1
    15    26    28   ar
    16     9    10   ar
    17    10    11   ar
    18    11    12   ar
    19    12    13    1
    20    13    14    1
    21    14    15    1
    22    15    16    1
    23    16    17    1
    24    17    18    1
    25    19    18    1
    26     6     2    1
    27    12     7   ar
    28    19    14    1
    29    19     4    1
    30    28    22   ar
    31     1    20    1
    32     1    21    1
@<TRIPOS>MOLECULE
*****
 28 32 0 0 0
SMALL
GASTEIGER

@<TRIPOS>ATOM
      1 N          -8.3486  -20.7279   19.7953 N.pl3   1  UNL1       -0.3133
      2 C          -7.0399  -20.1593   20.2578 C.2     1  UNL1        0.2770
      3 N          -6.8595  -19.1002   21.3046 N.2     1  UNL1       -0.2203
      4 C          -5.3899  -18.8362   21.4485 C.3     1  UNL1        0.1539
      5 C          -4.6621  -19.7322   20.4906 C.3     1  UNL1        0.2350
      6 O          -5.6818  -20.5499   19.7547 O.2     1  UNL1       -0.4478
      7 C          -6.2505  -18.0046   22.3527 C.ar    1  UNL1        0.0355
      8 C          -7.7422  -18.1597   22.3198 C.ar    1  UNL1        0.0007
      9 C          -8.6028  -17.3281   23.2241 C.ar    1  UNL1        0.0015
     10 C          -7.9719  -16.3414   24.1613 C.ar    1  UNL1        0.0031
     11 C          -6.4803  -16.1863   24.1942 C.ar    1  UNL1        0.0366
     12 C          -5.6196  -17.0179   23.2900 C.ar    1  UNL1        0.1363
     13 O          -4.1280  -16.8629   23.3229 O.3     1  UNL1       -0.4768
     14 C          -3.2673  -17.6945   22.4186 C.3     1  UNL1        0.1975
     15 C          -1.7758  -17.5394   22.4516 C.3     1  UNL1        0.1855
     16 O          -0.9151  -18.3710   21.5473 O.3     1  UNL1       -0.3499
     17 C          -1.5461  -19.3577   20.6101 C.3     1  UNL1        0.1425
     18 C          -3.0376  -19.5128   20.5771 C.3     1  UNL1        0.0381
     19 C          -3.8983  -18.6812   21.4814 C.3     1  UNL1        0.0734
     20 H          -9.1918  -20.4053   20.1879 H       1  UNL1        0.1466
     21 H          -8.3644  -21.4238   19.0990 H       1  UNL1        0.1466
     22 C         -10.0944  -17.4832   23.1911 C.ar    1  UNL1        0.0200
     23 C         -10.7907  -18.2680   24.2631 C.ar    1  UNL1        0.0989
     24 N         -12.2823  -18.4231   24.2302 N.ar    1  UNL1       -0.2414
     25 C         -13.0776  -17.7934   23.1252 C.ar    1  UNL1        0.1102
     26 C         -12.3813  -17.0086   22.0532 C.ar    1  UNL1        0.0768
     27 CL        -13.1765  -16.3789   20.9482 Cl      1  UNL1       -0.0806
     28 C         -10.8897  -16.8535   22.0861 C.ar    1  UNL1        0.0145
@<TRIPOS>BOND
     1     1     2    1
     2     2     3    2
     3     3     4    1
     4     4     5    1
     5     5     6    1
     6     4     7    1
     7     7     8   ar
     8     8     9   ar
     9     9    22    1
    10    22    23   ar
    11    23    24   ar
    12    24    25   ar
    13    25    26   ar
    14    26    27    1
    15    26    28   ar
    16     9    10   ar
    17    10    11   ar
    18    11    12   ar
    19    12    13    1
    20    13    14    1
    21    14    15    1
    22    15    16    1
    23    16    17    1
    24    17    18    1
    25    19    18    1
    26     6     2    1
    27    12     7   ar
    28    19    14    1
    29    19     4    1
    30    28    22   ar
    31     1    20    1
    32     1    21    1
@<TRIPOS>MOLECULE
*****
 28 32 0 0 0
SMALL
GASTEIGER

@<TRIPOS>ATOM
      1 N          -0.9811    2.2676   20.7195 N.pl3   1  UNL1       -0.3133
      2 C           0.2251    1.5006   20.2647 C.2     1  UNL1        0.2770
      3 N           1.2613    0.8789   21.1534 N.2     1  UNL1       -0.2203
      4 C           2.2835    0.2147   20.2794 C.3     1  UNL1        0.1539
      5 C           1.8790    0.4259   18.8505 C.3     1  UNL1        0.2350
      6 O           0.6069    1.2206   18.8414 O.2     1  UNL1       -0.4478
      7 C           2.5597    0.0849   21.7480 C.ar    1  UNL1        0.0355
      8 C           1.6223    0.6997   22.7447 C.ar    1  UNL1        0.0007
      9 C           1.8985    0.5698   24.2133 C.ar    1  UNL1        0.0015
     10 C           3.1120   -0.1748   24.6853 C.ar    1  UNL1        0.0031
     11 C           4.0494   -0.7896   23.6886 C.ar    1  UNL1        0.0366
     12 C           3.7733   -0.6597   22.2199 C.ar    1  UNL1        0.1363
     13 O           4.7107   -1.2745   21.2233 O.3     1  UNL1       -0.4768
     14 C           4.4345   -1.1447   19.7546 C.3     1  UNL1        0.1975
     15 C           5.3719   -1.7595   18.7580 C.3     1  UNL1        0.1855
     16 O           5.0957   -1.6296   17.2894 O.3     1  UNL1       -0.3499
     17 C           3.8821   -0.8850   16.8175 C.3     1  UNL1        0.1425
     18 C           2.9447   -0.2702   17.8141 C.3     1  UNL1        0.0381
     19 C           3.2209   -0.4001   19.2827 C.3     1  UNL1        0.0734
     20 H          -1.1470    2.3992   21.6810 H       1  UNL1        0.1466
     21 H          -1.6068    2.6393   20.0566 H       1  UNL1        0.1466
     22 C           0.9611    1.1846   25.2099 C.ar    1  UNL1        0.0200
     23 C           1.2344    1.0502   26.6786 C.ar    1  UNL1        0.0989
     24 N           0.2969    1.6651   27.6753 N.ar    1  UNL1       -0.2414
     25 C          -0.9138    2.4143   27.2031 C.ar    1  UNL1        0.1102
     26 C          -1.1871    2.5486   25.7344 C.ar    1  UNL1        0.0768
     27 CL         -2.3977    3.2978   25.2622 Cl      1  UNL1       -0.0806
     28 C          -0.2497    1.9339   24.7378 C.ar    1  UNL1        0.0145
@<TRIPOS>BOND
     1     1     2    1
     2     2     3    2
     3     3     4    1
     4     4     5    1
     5     5     6    1
     6     4     7    1
     7     7     8   ar
     8     8     9   ar
     9     9    22    1
    10    22    23   ar
    11    23    24   ar
    12    24    25   ar
    13    25    26   ar
    14    26    27    1
    15    26    28   ar
    16     9    10   ar
    17    10    11   ar
    18    11    12   ar
    19    12    13    1
    20    13    14    1
    21    14    15    1
    22    15    16    1
    23    16    17    1
    24    17    18    1
    25    19    18    1
    26     6     2    1
    27    12     7   ar
    28    19    14    1
    29    19     4    1
    30    28    22   ar
    31     1    20    1
    32     1    21    1
@<TRIPOS>MOLECULE
*****
 28 32 0 0 0
SMALL
GASTEIGER

@<TRIPOS>ATOM
      1 N         -12.6549   -8.3615   17.7421 N.pl3   1  UNL1       -0.3133
      2 C         -14.1291   -8.4385   18.0083 C.2     1  UNL1        0.2770
      3 N         -15.0022   -7.3089   18.4684 N.2     1  UNL1       -0.2203
      4 C         -16.4017   -7.8308   18.6056 C.3     1  UNL1        0.1539
      5 C         -16.3936   -9.2831   18.2303 C.3     1  UNL1        0.2350
      6 O         -14.9891   -9.6587   17.8612 O.2     1  UNL1       -0.4478
      7 C         -16.2557   -6.3785   18.9509 C.ar    1  UNL1        0.0355
      8 C         -14.9122   -5.7174   18.8604 C.ar    1  UNL1        0.0007
      9 C         -14.7661   -4.2651   19.2057 C.ar    1  UNL1        0.0015
     10 C         -15.9635   -3.4737   19.6417 C.ar    1  UNL1        0.0031
     11 C         -17.3069   -4.1347   19.7322 C.ar    1  UNL1        0.0366
     12 C         -17.4531   -5.5871   19.3868 C.ar    1  UNL1        0.1363
     13 O         -18.7965   -6.2481   19.4774 O.3     1  UNL1       -0.4768
     14 C         -18.9426   -7.7005   19.1320 C.3     1  UNL1        0.1975
     15 C         -20.2860   -8.3615   19.2226 C.3     1  UNL1        0.1855
     16 O         -20.4321   -9.8138   18.8772 O.3     1  UNL1       -0.3499
     17 C         -19.2347  -10.6052   18.4413 C.3     1  UNL1        0.1425
     18 C         -17.8913   -9.9442   18.3507 C.3     1  UNL1        0.0381
     19 C         -17.7452   -8.4919   18.6961 C.3     1  UNL1        0.0734
     20 H         -12.1758   -7.5108   17.8681 H       1  UNL1        0.1466
     21 H         -12.1666   -9.1617   17.4415 H       1  UNL1        0.1466
     22 C         -13.4227   -3.6041   19.1152 C.ar    1  UNL1        0.0200
     23 C         -13.3245   -2.1081   19.0677 C.ar    1  UNL1        0.0989
     24 N         -11.9810   -1.4471   18.9771 N.ar    1  UNL1       -0.2414
     25 C         -10.7357   -2.2821   18.9341 C.ar    1  UNL1        0.1102
     26 C         -10.8339   -3.7782   18.9816 C.ar    1  UNL1        0.0768
     27 CL         -9.5886   -4.6132   18.9385 Cl      1  UNL1       -0.0806
     28 C         -12.1773   -4.4392   19.0721 C.ar    1  UNL1        0.0145
@<TRIPOS>BOND
     1     1     2    1
     2     2     3    2
     3     3     4    1
     4     4     5    1
     5     5     6    1
     6     4     7    1
     7     7     8   ar
     8     8     9   ar
     9     9    22    1
    10    22    23   ar
    11    23    24   ar
    12    24    25   ar
    13    25    26   ar
    14    26    27    1
    15    26    28   ar
    16     9    10   ar
    17    10    11   ar
    18    11    12   ar
    19    12    13    1
    20    13    14    1
    21    14    15    1
    22    15    16    1
    23    16    17    1
    24    17    18    1
    25    19    18    1
    26     6     2    1
    27    12     7   ar
    28    19    14    1
    29    19     4    1
    30    28    22   ar
    31     1    20    1
    32     1    21    1
@<TRIPOS>MOLECULE
*****
 28 32 0 0 0
SMALL
GASTEIGER

@<TRIPOS>ATOM
      1 N         -11.5397   -5.4360   16.1987 N.pl3   1  UNL1       -0.3133
      2 C         -12.6185   -6.2640   16.8318 C.2     1  UNL1        0.2770
      3 N         -13.7312   -5.7504   17.6966 N.2     1  UNL1       -0.2203
      4 C         -14.5744   -6.9199   18.1105 C.3     1  UNL1        0.1539
      5 C         -13.9827   -8.1564   17.5014 C.3     1  UNL1        0.2350
      6 O         -12.7739   -7.7511   16.7111 O.2     1  UNL1       -0.4478
      7 C         -15.0500   -5.6037   18.6501 C.ar    1  UNL1        0.0355
      8 C         -14.3051   -4.3443   18.3195 C.ar    1  UNL1        0.0007
      9 C         -14.7808   -3.0280   18.8591 C.ar    1  UNL1        0.0015
     10 C         -16.0012   -2.9711   19.7293 C.ar    1  UNL1        0.0031
     11 C         -16.7461   -4.2304   20.0598 C.ar    1  UNL1        0.0366
     12 C         -16.2705   -5.5467   19.5202 C.ar    1  UNL1        0.1363
     13 O         -17.0153   -6.8060   19.8508 O.3     1  UNL1       -0.4768
     14 C         -16.5397   -8.1224   19.3112 C.3     1  UNL1        0.1975
     15 C         -17.2846   -9.3816   19.6418 C.3     1  UNL1        0.1855
     16 O         -16.8089  -10.6979   19.1022 O.3     1  UNL1       -0.3499
     17 C         -15.5884  -10.7549   18.2320 C.3     1  UNL1        0.1425
     18 C         -14.8436   -9.4956   17.9014 C.3     1  UNL1        0.0381
     19 C         -15.3192   -8.1793   18.4410 C.3     1  UNL1        0.0734
     20 H         -11.5220   -4.4615   16.3372 H       1  UNL1        0.1466
     21 H         -10.8494   -5.8671   15.6448 H       1  UNL1        0.1466
     22 C         -14.0359   -1.7687   18.5285 C.ar    1  UNL1        0.0200
     23 C         -14.6874   -0.4343   18.7406 C.ar    1  UNL1        0.0989
     24 N         -13.9425    0.8250   18.4100 N.ar    1  UNL1       -0.2414
     25 C         -12.5461    0.7499   17.8674 C.ar    1  UNL1        0.1102
     26 C         -11.8946   -0.5845   17.6553 C.ar    1  UNL1        0.0768
     27 CL        -10.4982   -0.6596   17.1127 Cl      1  UNL1       -0.0806
     28 C         -12.6395   -1.8438   17.9859 C.ar    1  UNL1        0.0145
@<TRIPOS>BOND
     1     1     2    1
     2     2     3    2
     3     3     4    1
     4     4     5    1
     5     5     6    1
     6     4     7    1
     7     7     8   ar
     8     8     9   ar
     9     9    22    1
    10    22    23   ar
    11    23    24   ar
    12    24    25   ar
    13    25    26   ar
    14    26    27    1
    15    26    28   ar
    16     9    10   ar
    17    10    11   ar
    18    11    12   ar
    19    12    13    1
    20    13    14    1
    21    14    15    1
    22    15    16    1
    23    16    17    1
    24    17    18    1
    25    19    18    1
    26     6     2    1
    27    12     7   ar
    28    19    14    1
    29    19     4    1
    30    28    22   ar
    31     1    20    1
    32     1    21    1
@<TRIPOS>MOLECULE
*****
 28 32 0 0 0
SMALL
GASTEIGER

@<TRIPOS>ATOM
      1 N          -4.3097    2.6696   20.8550 N.pl3   1  UNL1       -0.3133
      2 C          -4.9215    3.3629   22.0361 C.2     1  UNL1        0.2770
      3 N          -4.2448    3.6341   23.3471 N.2     1  UNL1       -0.2203
      4 C          -5.2224    4.3455   24.2349 C.3     1  UNL1        0.1539
      5 C          -6.5033    4.5139   23.4726 C.3     1  UNL1        0.2350
      6 O          -6.3173    3.9066   22.1137 O.2     1  UNL1       -0.4478
      7 C          -3.8847    4.1056   24.8695 C.ar    1  UNL1        0.0355
      8 C          -2.8048    3.4037   24.1005 C.ar    1  UNL1        0.0007
      9 C          -1.4670    3.1638   24.7350 C.ar    1  UNL1        0.0015
     10 C          -1.2090    3.6257   26.1387 C.ar    1  UNL1        0.0031
     11 C          -2.2888    4.3275   26.9077 C.ar    1  UNL1        0.0366
     12 C          -3.6267    4.5674   26.2731 C.ar    1  UNL1        0.1363
     13 O          -4.7065    5.2692   27.0421 O.3     1  UNL1       -0.4768
     14 C          -6.0444    5.5092   26.4075 C.3     1  UNL1        0.1975
     15 C          -7.1242    6.2110   27.1765 C.3     1  UNL1        0.1855
     16 O          -8.4620    6.4509   26.5420 O.3     1  UNL1       -0.3499
     17 C          -8.7199    5.9890   25.1383 C.3     1  UNL1        0.1425
     18 C          -7.6401    5.2872   24.3693 C.3     1  UNL1        0.0381
     19 C          -6.3023    5.0473   25.0039 C.3     1  UNL1        0.0734
     20 H          -3.3809    2.3464   20.9006 H       1  UNL1        0.1466
     21 H          -4.8370    2.5378   20.0341 H       1  UNL1        0.1466
     22 C          -0.3872    2.4620   23.9660 C.ar    1  UNL1        0.0200
     23 C          -0.2303    2.7119   22.4953 C.ar    1  UNL1        0.0989
     24 N           0.8496    2.0100   21.7263 N.ar    1  UNL1       -0.2414
     25 C           1.7725    1.0584   22.4280 C.ar    1  UNL1        0.1102
     26 C           1.6157    0.8085   23.8987 C.ar    1  UNL1        0.0768
     27 CL          2.5386   -0.1432   24.6004 Cl      1  UNL1       -0.0806
     28 C           0.5359    1.5103   24.6677 C.ar    1  UNL1        0.0145
@<TRIPOS>BOND
     1     1     2    1
     2     2     3    2
     3     3     4    1
     4     4     5    1
     5     5     6    1
     6     4     7    1
     7     7     8   ar
     8     8     9   ar
     9     9    22    1
    10    22    23   ar
    11    23    24   ar
    12    24    25   ar
    13    25    26   ar
    14    26    27    1
    15    26    28   ar
    16     9    10   ar
    17    10    11   ar
    18    11    12   ar
    19    12    13    1
    20    13    14    1
    21    14    15    1
    22    15    16    1
    23    16    17    1
    24    17    18    1
    25    19    18    1
    26     6     2    1
    27    12     7   ar
    28    19    14    1
    29    19     4    1
    30    28    22   ar
    31     1    20    1
    32     1    21    1
@<TRIPOS>MOLECULE
*****
 28 32 0 0 0
SMALL
GASTEIGER

@<TRIPOS>ATOM
      1 N           4.3171   -2.0390   25.4415 N.pl3   1  UNL1       -0.3133
      2 C           4.2967   -1.9475   23.9445 C.2     1  UNL1        0.2770
      3 N           3.3987   -1.0667   23.1271 N.2     1  UNL1       -0.2203
      4 C           3.7177   -1.2955   21.6794 C.3     1  UNL1        0.1539
      5 C           4.8127   -2.3177   21.6020 C.3     1  UNL1        0.2350
      6 O           5.1706   -2.7206   23.0019 O.2     1  UNL1       -0.4478
      7 C           2.6307   -0.2886   21.9129 C.ar    1  UNL1        0.0355
      8 C           2.2040    0.0436   23.3121 C.ar    1  UNL1        0.0007
      9 C           1.1170    1.0506   23.5455 C.ar    1  UNL1        0.0015
     10 C           0.4568    1.7254   22.3799 C.ar    1  UNL1        0.0031
     11 C           0.8836    1.3933   20.9808 C.ar    1  UNL1        0.0366
     12 C           1.9705    0.3863   20.7473 C.ar    1  UNL1        0.1363
     13 O           2.3973    0.0542   19.3481 O.3     1  UNL1       -0.4768
     14 C           3.4843   -0.9529   19.1146 C.3     1  UNL1        0.1975
     15 C           3.9110   -1.2850   17.7155 C.3     1  UNL1        0.1855
     16 O           4.9979   -2.2919   17.4820 O.3     1  UNL1       -0.3499
     17 C           5.6581   -2.9668   18.6477 C.3     1  UNL1        0.1425
     18 C           5.2314   -2.6347   20.0468 C.3     1  UNL1        0.0381
     19 C           4.1445   -1.6277   20.2803 C.3     1  UNL1        0.0734
     20 H           3.7013   -1.4880   25.9768 H       1  UNL1        0.1466
     21 H           4.9462   -2.6500   25.8888 H       1  UNL1        0.1466
     22 C           0.6903    1.3827   24.9446 C.ar    1  UNL1        0.0200
     23 C           1.5430    0.9684   26.1071 C.ar    1  UNL1        0.0989
     24 N           1.1162    1.3006   27.5063 N.ar    1  UNL1       -0.2414
     25 C          -0.1632    2.0470   27.7429 C.ar    1  UNL1        0.1102
     26 C          -1.0159    2.4612   26.5804 C.ar    1  UNL1        0.0768
     27 CL         -2.2953    3.2076   26.8171 Cl      1  UNL1       -0.0806
     28 C          -0.5891    2.1291   25.1813 C.ar    1  UNL1        0.0145
@<TRIPOS>BOND
     1     1     2    1
     2     2     3    2
     3     3     4    1
     4     4     5    1
     5     5     6    1
     6     4     7    1
     7     7     8   ar
     8     8     9   ar
     9     9    22    1
    10    22    23   ar
    11    23    24   ar
    12    24    25   ar
    13    25    26   ar
    14    26    27    1
    15    26    28   ar
    16     9    10   ar
    17    10    11   ar
    18    11    12   ar
    19    12    13    1
    20    13    14    1
    21    14    15    1
    22    15    16    1
    23    16    17    1
    24    17    18    1
    25    19    18    1
    26     6     2    1
    27    12     7   ar
    28    19    14    1
    29    19     4    1
    30    28    22   ar
    31     1    20    1
    32     1    21    1
