@<TRIPOS>MOLECULE
*****
 26 29 0 0 0
SMALL
GASTEIGER

@<TRIPOS>ATOM
      1 O           3.8395   -1.2110   16.2521 O.2     1  UNL1       -0.2699
      2 C           3.8649   -0.7639   17.6837 C.2     1  UNL1        0.2495
      3 N           4.4231   -1.6686   18.7420 N.am    1  UNL1       -0.2684
      4 C           4.9557   -3.0202   18.3688 C.3     1  UNL1        0.1204
      5 C           5.5139   -3.9248   19.4272 C.3     1  UNL1        0.1486
      6 N           5.5394   -3.4778   20.8588 N.ar    1  UNL1       -0.2515
      7 N           6.0245   -4.1468   22.1107 N.ar    1  UNL1       -0.1680
      8 C           5.7916   -3.2085   23.2576 C.ar    1  UNL1        0.1197
      9 C           5.1626   -1.9597   22.7146 C.ar    1  UNL1        0.0384
     10 C           5.0067   -2.1261   21.2320 C.ar    1  UNL1        0.0773
     11 C           4.4486   -1.2216   20.1737 C.3     1  UNL1        0.1393
     12 C           3.3323    0.5877   18.0569 C.ar    1  UNL1        0.0567
     13 C           1.8725    0.7627   18.3539 C.ar    1  UNL1        0.0342
     14 C           1.3399    2.1145   18.7272 C.ar    1  UNL1        0.1411
     15 F          -0.1200    2.2895   19.0242 F       1  UNL1       -0.2041
     16 C           2.2671    3.2910   18.8034 C.ar    1  UNL1        0.0410
     17 C           3.7269    3.1160   18.5064 C.ar    1  UNL1        0.0601
     18 CL          4.6541    4.2926   18.5826 Cl      1  UNL1       -0.0822
     19 C           4.2595    1.7644   18.1332 C.ar    1  UNL1        0.0161
     20 C           6.1286   -3.4727   24.6953 C.ar    1  UNL1        0.1008
     21 C           6.7940   -4.7592   25.0855 C.ar    1  UNL1        0.0230
     22 C           7.1309   -5.0234   26.5230 C.ar    1  UNL1        0.0328
     23 C           6.8025   -4.0011   27.5704 C.ar    1  UNL1        0.1592
     24 F           7.1395   -4.2652   29.0080 F       1  UNL1       -0.2025
     25 C           6.1371   -2.7146   27.1802 C.ar    1  UNL1        0.1284
     26 N           5.8002   -2.4504   25.7426 N.ar    1  UNL1       -0.2399
@<TRIPOS>BOND
     1     1     2    2
     2     2    12    1
     3    12    13   ar
     4    13    14   ar
     5    14    15    1
     6    14    16   ar
     7    16    17   ar
     8    17    18    1
     9    17    19   ar
    10     2     3   am
    11     3     4    1
    12     4     5    1
    13     5     6    1
    14     6     7   ar
    15     7     8   ar
    16     8    20    1
    17    20    21   ar
    18    21    22   ar
    19    22    23   ar
    20    23    24    1
    21    23    25   ar
    22    25    26   ar
    23     8     9   ar
    24     9    10   ar
    25    10    11    1
    26    19    12   ar
    27    11     3    1
    28    10     6   ar
    29    26    20   ar
@<TRIPOS>MOLECULE
*****
 26 29 0 0 0
SMALL
GASTEIGER

@<TRIPOS>ATOM
      1 O           6.2115   -0.5357   36.9763 O.2     1  UNL1       -0.2699
      2 C           5.1090    0.2885   36.3803 C.2     1  UNL1        0.2495
      3 N           4.6900    0.0641   34.9575 N.am    1  UNL1       -0.2684
      4 C           5.3735   -0.9844   34.1309 C.3     1  UNL1        0.1204
      5 C           4.9546   -1.2087   32.7082 C.3     1  UNL1        0.1486
      6 N           3.8521   -0.3845   32.1122 N.ar    1  UNL1       -0.2515
      7 N           3.2279   -0.3792   30.7482 N.ar    1  UNL1       -0.1680
      8 C           2.1586    0.6726   30.7319 C.ar    1  UNL1        0.1197
      9 C           2.1219    1.3173   32.0858 C.ar    1  UNL1        0.0384
     10 C           3.1686    0.6640   32.9388 C.ar    1  UNL1        0.0773
     11 C           3.5876    0.8883   34.3615 C.3     1  UNL1        0.1393
     12 C           4.4255    1.3369   37.2070 C.ar    1  UNL1        0.0567
     13 C           5.0194    2.7099   37.3176 C.ar    1  UNL1        0.0342
     14 C           4.3359    3.7584   38.1443 C.ar    1  UNL1        0.1411
     15 F           4.9298    5.1314   38.2549 F       1  UNL1       -0.2041
     16 C           3.0584    3.4340   38.8604 C.ar    1  UNL1        0.0410
     17 C           2.4645    2.0610   38.7498 C.ar    1  UNL1        0.0601
     18 CL          1.1870    1.7365   39.4659 Cl      1  UNL1       -0.0822
     19 C           3.1480    1.0125   37.9231 C.ar    1  UNL1        0.0161
     20 C           1.2801    1.0190   29.5664 C.ar    1  UNL1        0.1008
     21 C           1.7718    1.9657   28.5119 C.ar    1  UNL1        0.0230
     22 C           0.8935    2.3121   27.3464 C.ar    1  UNL1        0.0328
     23 C          -0.4766    1.7117   27.2354 C.ar    1  UNL1        0.1592
     24 F          -1.3551    2.0581   26.0698 F       1  UNL1       -0.2025
     25 C          -0.9683    0.7650   28.2898 C.ar    1  UNL1        0.1284
     26 N          -0.0900    0.4186   29.4553 N.ar    1  UNL1       -0.2399
@<TRIPOS>BOND
     1     1     2    2
     2     2    12    1
     3    12    13   ar
     4    13    14   ar
     5    14    15    1
     6    14    16   ar
     7    16    17   ar
     8    17    18    1
     9    17    19   ar
    10     2     3   am
    11     3     4    1
    12     4     5    1
    13     5     6    1
    14     6     7   ar
    15     7     8   ar
    16     8    20    1
    17    20    21   ar
    18    21    22   ar
    19    22    23   ar
    20    23    24    1
    21    23    25   ar
    22    25    26   ar
    23     8     9   ar
    24     9    10   ar
    25    10    11    1
    26    19    12   ar
    27    11     3    1
    28    10     6   ar
    29    26    20   ar
@<TRIPOS>MOLECULE
*****
 26 29 0 0 0
SMALL
GASTEIGER

@<TRIPOS>ATOM
      1 O           6.1449   -0.5421   36.9015 O.2     1  UNL1       -0.2699
      2 C           5.0635    0.2716   36.2547 C.2     1  UNL1        0.2495
      3 N           4.6810    0.0118   34.8277 N.am    1  UNL1       -0.2684
      4 C           5.3800   -1.0618   34.0475 C.3     1  UNL1        0.1204
      5 C           4.9975   -1.3217   32.6206 C.3     1  UNL1        0.1486
      6 N           3.9161   -0.5079   31.9739 N.ar    1  UNL1       -0.2515
      7 N           3.3283   -0.5355   30.5941 N.ar    1  UNL1       -0.1680
      8 C           2.2660    0.5210   30.5216 C.ar    1  UNL1        0.1197
      9 C           2.1973    1.2016   31.8565 C.ar    1  UNL1        0.0384
     10 C           3.2171    0.5657   32.7541 C.ar    1  UNL1        0.0773
     11 C           3.5996    0.8256   34.1810 C.3     1  UNL1        0.1393
     12 C           4.3645    1.3453   37.0349 C.ar    1  UNL1        0.0567
     13 C           3.1455    1.0122   37.8431 C.ar    1  UNL1        0.0342
     14 C           2.4465    2.0859   38.6233 C.ar    1  UNL1        0.1411
     15 F           1.2275    1.7529   39.4314 F       1  UNL1       -0.2041
     16 C           2.9665    3.4926   38.5953 C.ar    1  UNL1        0.0410
     17 C           4.1856    3.8256   37.7872 C.ar    1  UNL1        0.0601
     18 CL          4.7056    5.2323   37.7593 Cl      1  UNL1       -0.0822
     19 C           4.8845    2.7520   37.0070 C.ar    1  UNL1        0.0161
     20 C           1.4208    0.8409   29.3243 C.ar    1  UNL1        0.1008
     21 C           0.0778    0.1934   29.1598 C.ar    1  UNL1        0.0230
     22 C          -0.7674    0.5132   27.9626 C.ar    1  UNL1        0.0328
     23 C          -0.2696    1.4805   26.9299 C.ar    1  UNL1        0.1592
     24 F          -1.1148    1.8003   25.7326 F       1  UNL1       -0.2025
     25 C           1.0735    2.1279   27.0944 C.ar    1  UNL1        0.1284
     26 N           1.9187    1.8081   28.2916 N.ar    1  UNL1       -0.2399
@<TRIPOS>BOND
     1     1     2    2
     2     2    12    1
     3    12    13   ar
     4    13    14   ar
     5    14    15    1
     6    14    16   ar
     7    16    17   ar
     8    17    18    1
     9    17    19   ar
    10     2     3   am
    11     3     4    1
    12     4     5    1
    13     5     6    1
    14     6     7   ar
    15     7     8   ar
    16     8    20    1
    17    20    21   ar
    18    21    22   ar
    19    22    23   ar
    20    23    24    1
    21    23    25   ar
    22    25    26   ar
    23     8     9   ar
    24     9    10   ar
    25    10    11    1
    26    19    12   ar
    27    11     3    1
    28    10     6   ar
    29    26    20   ar
@<TRIPOS>MOLECULE
*****
 26 29 0 0 0
SMALL
GASTEIGER

@<TRIPOS>ATOM
      1 O           3.0040   -0.0850   17.4842 O.2     1  UNL1       -0.2699
      2 C           3.1758   -0.5647   18.8950 C.2     1  UNL1        0.2495
      3 N           2.5440    0.1909   20.0264 N.am    1  UNL1       -0.2684
      4 C           1.7403    1.4262   19.7469 C.3     1  UNL1        0.1204
      5 C           1.1085    2.1818   20.8782 C.3     1  UNL1        0.1486
      6 N           1.2803    1.7020   22.2890 N.ar    1  UNL1       -0.2515
      7 N           0.7794    2.2353   23.5985 N.ar    1  UNL1       -0.1680
      8 C           1.2734    1.3295   24.6873 C.ar    1  UNL1        0.1197
      9 C           2.0797    0.2364   24.0507 C.ar    1  UNL1        0.0384
     10 C           2.0840    0.4667   22.5684 C.ar    1  UNL1        0.0773
     11 C           2.7158   -0.2888   21.4371 C.3     1  UNL1        0.1393
     12 C           3.9795   -1.8000   19.1745 C.ar    1  UNL1        0.0567
     13 C           3.2951   -3.1297   19.2904 C.ar    1  UNL1        0.0342
     14 C           4.0988   -4.3651   19.5698 C.ar    1  UNL1        0.1411
     15 F           3.4144   -5.6948   19.6857 F       1  UNL1       -0.2041
     16 C           5.5868   -4.2707   19.7334 C.ar    1  UNL1        0.0410
     17 C           6.2712   -2.9409   19.6176 C.ar    1  UNL1        0.0601
     18 CL          7.7592   -2.8465   19.7812 Cl      1  UNL1       -0.0822
     19 C           5.4676   -1.7056   19.3381 C.ar    1  UNL1        0.0161
     20 C           1.0079    1.4887   26.1550 C.ar    1  UNL1        0.1008
     21 C          -0.3824    1.3104   26.6893 C.ar    1  UNL1        0.0230
     22 C          -0.6480    1.4696   28.1569 C.ar    1  UNL1        0.0328
     23 C           0.4766    1.8071   29.0903 C.ar    1  UNL1        0.1592
     24 F           0.2111    1.9663   30.5581 F       1  UNL1       -0.2025
     25 C           1.8669    1.9854   28.5560 C.ar    1  UNL1        0.1284
     26 N           2.1325    1.8262   27.0884 N.ar    1  UNL1       -0.2399
@<TRIPOS>BOND
     1     1     2    2
     2     2    12    1
     3    12    13   ar
     4    13    14   ar
     5    14    15    1
     6    14    16   ar
     7    16    17   ar
     8    17    18    1
     9    17    19   ar
    10     2     3   am
    11     3     4    1
    12     4     5    1
    13     5     6    1
    14     6     7   ar
    15     7     8   ar
    16     8    20    1
    17    20    21   ar
    18    21    22   ar
    19    22    23   ar
    20    23    24    1
    21    23    25   ar
    22    25    26   ar
    23     8     9   ar
    24     9    10   ar
    25    10    11    1
    26    19    12   ar
    27    11     3    1
    28    10     6   ar
    29    26    20   ar
@<TRIPOS>MOLECULE
*****
 26 29 0 0 0
SMALL
GASTEIGER

@<TRIPOS>ATOM
      1 O           8.0548   -5.0338   21.6226 O.2     1  UNL1       -0.2699
      2 C           6.9013   -4.0876   21.7780 C.2     1  UNL1        0.2495
      3 N           6.5124   -3.5966   23.1410 N.am    1  UNL1       -0.2684
      4 C           7.2770   -4.0518   24.3485 C.3     1  UNL1        0.1204
      5 C           6.8881   -3.5608   25.7114 C.3     1  UNL1        0.1486
      6 N           5.7346   -2.6145   25.8668 N.ar    1  UNL1       -0.2515
      7 N           5.1240   -1.9660   27.0738 N.ar    1  UNL1       -0.1680
      8 C           3.9821   -1.1100   26.6121 C.ar    1  UNL1        0.1197
      9 C           3.8869   -1.2294   25.1199 C.ar    1  UNL1        0.0384
     10 C           4.9701   -2.1593   24.6593 C.ar    1  UNL1        0.0773
     11 C           5.3590   -2.6503   23.2964 C.3     1  UNL1        0.1393
     12 C           6.1367   -3.6324   20.5704 C.ar    1  UNL1        0.0567
     13 C           4.8216   -4.2691   20.2315 C.ar    1  UNL1        0.0342
     14 C           4.0570   -3.8138   19.0239 C.ar    1  UNL1        0.1411
     15 F           2.7418   -4.4505   18.6849 F       1  UNL1       -0.2041
     16 C           4.6076   -2.7218   18.1553 C.ar    1  UNL1        0.0410
     17 C           5.9228   -2.0851   18.4943 C.ar    1  UNL1        0.0601
     18 CL          6.4734   -0.9932   17.6257 Cl      1  UNL1       -0.0822
     19 C           6.6874   -2.5404   19.7018 C.ar    1  UNL1        0.0161
     20 C           3.0916   -0.2801   27.4888 C.ar    1  UNL1        0.1008
     21 C           2.8732    1.1708   27.1768 C.ar    1  UNL1        0.0230
     22 C           1.9828    2.0006   28.0534 C.ar    1  UNL1        0.0328
     23 C           1.3107    1.3796   29.2419 C.ar    1  UNL1        0.1592
     24 F           0.4201    2.2094   30.1185 F       1  UNL1       -0.2025
     25 C           1.5290   -0.0713   29.5538 C.ar    1  UNL1        0.1284
     26 N           2.4195   -0.9012   28.6772 N.ar    1  UNL1       -0.2399
@<TRIPOS>BOND
     1     1     2    2
     2     2    12    1
     3    12    13   ar
     4    13    14   ar
     5    14    15    1
     6    14    16   ar
     7    16    17   ar
     8    17    18    1
     9    17    19   ar
    10     2     3   am
    11     3     4    1
    12     4     5    1
    13     5     6    1
    14     6     7   ar
    15     7     8   ar
    16     8    20    1
    17    20    21   ar
    18    21    22   ar
    19    22    23   ar
    20    23    24    1
    21    23    25   ar
    22    25    26   ar
    23     8     9   ar
    24     9    10   ar
    25    10    11    1
    26    19    12   ar
    27    11     3    1
    28    10     6   ar
    29    26    20   ar
@<TRIPOS>MOLECULE
*****
 26 29 0 0 0
SMALL
GASTEIGER

@<TRIPOS>ATOM
      1 O           9.1577   -6.6906   31.5343 O.2     1  UNL1       -0.2699
      2 C           8.4898   -5.6217   30.7211 C.2     1  UNL1        0.2495
      3 N           8.3165   -5.8027   29.2421 N.am    1  UNL1       -0.2684
      4 C           8.8113   -7.0525   28.5764 C.3     1  UNL1        0.1204
      5 C           8.6380   -7.2334   27.0975 C.3     1  UNL1        0.1486
      6 N           7.9701   -6.1645   26.2843 N.ar    1  UNL1       -0.2515
      7 N           7.6611   -6.0632   24.8199 N.ar    1  UNL1       -0.1680
      8 C           6.9754   -4.7507   24.5806 C.ar    1  UNL1        0.1197
      9 C           6.8606   -4.0409   25.8971 C.ar    1  UNL1        0.0384
     10 C           7.4754   -4.9147   26.9500 C.ar    1  UNL1        0.0773
     11 C           7.6486   -4.7338   28.4289 C.3     1  UNL1        0.1393
     12 C           7.9951   -4.3719   31.3868 C.ar    1  UNL1        0.0567
     13 C           6.5611   -4.2671   31.8143 C.ar    1  UNL1        0.0342
     14 C           6.0664   -3.0172   32.4801 C.ar    1  UNL1        0.1411
     15 F           4.6324   -2.9124   32.9076 F       1  UNL1       -0.2041
     16 C           7.0056   -1.8722   32.7182 C.ar    1  UNL1        0.0410
     17 C           8.4396   -1.9770   32.2907 C.ar    1  UNL1        0.0601
     18 CL          9.3788   -0.8321   32.5289 Cl      1  UNL1       -0.0822
     19 C           8.9343   -3.2268   31.6250 C.ar    1  UNL1        0.0161
     20 C           6.4897   -4.2380   23.2572 C.ar    1  UNL1        0.1008
     21 C           5.1673   -3.5362   23.1644 C.ar    1  UNL1        0.0230
     22 C           4.6816   -3.0235   21.8411 C.ar    1  UNL1        0.0328
     23 C           5.5183   -3.2126   20.6106 C.ar    1  UNL1        0.1592
     24 F           5.0326   -2.6999   19.2872 F       1  UNL1       -0.2025
     25 C           6.8408   -3.9144   20.7035 C.ar    1  UNL1        0.1284
     26 N           7.3265   -4.4271   22.0268 N.ar    1  UNL1       -0.2399
@<TRIPOS>BOND
     1     1     2    2
     2     2    12    1
     3    12    13   ar
     4    13    14   ar
     5    14    15    1
     6    14    16   ar
     7    16    17   ar
     8    17    18    1
     9    17    19   ar
    10     2     3   am
    11     3     4    1
    12     4     5    1
    13     5     6    1
    14     6     7   ar
    15     7     8   ar
    16     8    20    1
    17    20    21   ar
    18    21    22   ar
    19    22    23   ar
    20    23    24    1
    21    23    25   ar
    22    25    26   ar
    23     8     9   ar
    24     9    10   ar
    25    10    11    1
    26    19    12   ar
    27    11     3    1
    28    10     6   ar
    29    26    20   ar
@<TRIPOS>MOLECULE
*****
 26 29 0 0 0
SMALL
GASTEIGER

@<TRIPOS>ATOM
      1 O          -2.1979    4.5128   25.7927 O.2     1  UNL1       -0.2699
      2 C          -1.1806    3.4138   25.7073 C.2     1  UNL1        0.2495
      3 N          -0.6817    2.9561   24.3687 N.am    1  UNL1       -0.2684
      4 C          -1.2001    3.5973   23.1157 C.3     1  UNL1        0.1204
      5 C          -0.7012    3.1395   21.7773 C.3     1  UNL1        0.1486
      6 N           0.3161    2.0405   21.6918 N.ar    1  UNL1       -0.2515
      7 N           0.9884    1.3838   20.5226 N.ar    1  UNL1       -0.1680
      8 C           1.9223    0.3368   21.0531 C.ar    1  UNL1        0.1197
      9 C           1.8272    0.3463   22.5501 C.ar    1  UNL1        0.0384
     10 C           0.8345    1.3993   22.9448 C.ar    1  UNL1        0.0773
     11 C           0.3356    1.8571   24.2832 C.3     1  UNL1        0.1393
     12 C          -0.6622    2.7726   26.9602 C.ar    1  UNL1        0.0567
     13 C           0.3995    3.4571   27.7692 C.ar    1  UNL1        0.0342
     14 C           0.9179    2.8158   29.0222 C.ar    1  UNL1        0.1411
     15 F           1.9795    3.5004   29.8311 F       1  UNL1       -0.2041
     16 C           0.3747    1.4901   29.4663 C.ar    1  UNL1        0.0410
     17 C          -0.6870    0.8056   28.6574 C.ar    1  UNL1        0.0601
     18 CL         -1.2302   -0.5202   29.1014 Cl      1  UNL1       -0.0822
     19 C          -1.2054    1.4468   27.4044 C.ar    1  UNL1        0.0161
     20 C           2.7977   -0.5621   20.2310 C.ar    1  UNL1        0.1008
     21 C           3.4217   -1.7756   20.8538 C.ar    1  UNL1        0.0230
     22 C           4.2971   -2.6744   20.0318 C.ar    1  UNL1        0.0328
     23 C           4.5484   -2.3597   18.5869 C.ar    1  UNL1        0.1592
     24 F           5.4239   -3.2586   17.7648 F       1  UNL1       -0.2025
     25 C           3.9244   -1.1462   17.9641 C.ar    1  UNL1        0.1284
     26 N           3.0491   -0.2474   18.7861 N.ar    1  UNL1       -0.2399
@<TRIPOS>BOND
     1     1     2    2
     2     2    12    1
     3    12    13   ar
     4    13    14   ar
     5    14    15    1
     6    14    16   ar
     7    16    17   ar
     8    17    18    1
     9    17    19   ar
    10     2     3   am
    11     3     4    1
    12     4     5    1
    13     5     6    1
    14     6     7   ar
    15     7     8   ar
    16     8    20    1
    17    20    21   ar
    18    21    22   ar
    19    22    23   ar
    20    23    24    1
    21    23    25   ar
    22    25    26   ar
    23     8     9   ar
    24     9    10   ar
    25    10    11    1
    26    19    12   ar
    27    11     3    1
    28    10     6   ar
    29    26    20   ar
@<TRIPOS>MOLECULE
*****
 26 29 0 0 0
SMALL
GASTEIGER

@<TRIPOS>ATOM
      1 O           5.7250    0.5864   17.7485 O.2     1  UNL1       -0.2699
      2 C           4.5976    0.1948   18.6572 C.2     1  UNL1        0.2495
      3 N           3.4717    1.1529   18.9111 N.am    1  UNL1       -0.2684
      4 C           3.4731    2.5024   18.2564 C.3     1  UNL1        0.1204
      5 C           2.3471    3.4603   18.5104 C.3     1  UNL1        0.1486
      6 N           1.2198    3.0687   19.4191 N.ar    1  UNL1       -0.2515
      7 N          -0.0171    3.7969   19.8552 N.ar    1  UNL1       -0.1680
      8 C          -0.7829    2.8972   20.7794 C.ar    1  UNL1        0.1197
      9 C          -0.0193    1.6132   20.9145 C.ar    1  UNL1        0.0384
     10 C           1.2184    1.7192   20.0738 C.ar    1  UNL1        0.0773
     11 C           2.3443    0.7613   19.8198 C.3     1  UNL1        0.1393
     12 C           4.5962   -1.1547   19.3119 C.ar    1  UNL1        0.0567
     13 C           3.7594   -2.2627   18.7444 C.ar    1  UNL1        0.0342
     14 C           3.7580   -3.6123   19.3992 C.ar    1  UNL1        0.1411
     15 F           2.9212   -4.7204   18.8317 F       1  UNL1       -0.2041
     16 C           4.5934   -3.8539   20.6214 C.ar    1  UNL1        0.0410
     17 C           5.4302   -2.7458   21.1888 C.ar    1  UNL1        0.0601
     18 CL          6.2656   -2.9874   22.4110 Cl      1  UNL1       -0.0822
     19 C           5.4317   -1.3963   20.5341 C.ar    1  UNL1        0.0161
     20 C          -2.0839    3.2242   21.4507 C.ar    1  UNL1        0.1008
     21 C          -2.0878    3.8993   22.7902 C.ar    1  UNL1        0.0230
     22 C          -3.3887    4.2263   23.4615 C.ar    1  UNL1        0.0328
     23 C          -4.6857    3.8782   22.7933 C.ar    1  UNL1        0.1592
     24 F          -5.9867    4.2052   23.4646 F       1  UNL1       -0.2025
     25 C          -4.6818    3.2031   21.4538 C.ar    1  UNL1        0.1284
     26 N          -3.3809    2.8761   20.7825 N.ar    1  UNL1       -0.2399
@<TRIPOS>BOND
     1     1     2    2
     2     2    12    1
     3    12    13   ar
     4    13    14   ar
     5    14    15    1
     6    14    16   ar
     7    16    17   ar
     8    17    18    1
     9    17    19   ar
    10     2     3   am
    11     3     4    1
    12     4     5    1
    13     5     6    1
    14     6     7   ar
    15     7     8   ar
    16     8    20    1
    17    20    21   ar
    18    21    22   ar
    19    22    23   ar
    20    23    24    1
    21    23    25   ar
    22    25    26   ar
    23     8     9   ar
    24     9    10   ar
    25    10    11    1
    26    19    12   ar
    27    11     3    1
    28    10     6   ar
    29    26    20   ar
@<TRIPOS>MOLECULE
*****
 26 29 0 0 0
SMALL
GASTEIGER

@<TRIPOS>ATOM
      1 O           7.2296   -4.5284   23.1022 O.2     1  UNL1       -0.2699
      2 C           6.1160   -3.6023   22.7121 C.2     1  UNL1        0.2495
      3 N           5.4572   -2.7426   23.7499 N.am    1  UNL1       -0.2684
      4 C           5.9121   -2.8090   25.1777 C.3     1  UNL1        0.1204
      5 C           5.2533   -1.9493   26.2154 C.3     1  UNL1        0.1486
      6 N           4.1397   -1.0232   25.8253 N.ar    1  UNL1       -0.2515
      7 N           3.3071   -0.0631   26.6223 N.ar    1  UNL1       -0.1680
      8 C           2.3377    0.5967   25.6869 C.ar    1  UNL1        0.1197
      9 C           2.5711    0.0444   24.3120 C.ar    1  UNL1        0.0384
     10 C           3.6849   -0.9567   24.3976 C.ar    1  UNL1        0.0773
     11 C           4.3436   -1.8164   23.3598 C.3     1  UNL1        0.1393
     12 C           5.6611   -3.5359   21.2843 C.ar    1  UNL1        0.0567
     13 C           4.3867   -4.2103   20.8710 C.ar    1  UNL1        0.0342
     14 C           3.9318   -4.1439   19.4431 C.ar    1  UNL1        0.1411
     15 F           2.6573   -4.8183   19.0298 F       1  UNL1       -0.2041
     16 C           4.7514   -3.4030   18.4286 C.ar    1  UNL1        0.0410
     17 C           6.0259   -2.7285   18.8419 C.ar    1  UNL1        0.0601
     18 CL          6.8455   -1.9877   17.8274 Cl      1  UNL1       -0.0822
     19 C           6.4808   -2.7950   20.2697 C.ar    1  UNL1        0.0161
     20 C           1.3143    1.6278   26.0609 C.ar    1  UNL1        0.1008
     21 C          -0.1184    1.4435   25.6567 C.ar    1  UNL1        0.0230
     22 C          -1.1417    2.4745   26.0306 C.ar    1  UNL1        0.0328
     23 C          -0.7323    3.6898   26.8086 C.ar    1  UNL1        0.1592
     24 F          -1.7556    4.7209   27.1825 F       1  UNL1       -0.2025
     25 C           0.7005    3.8741   27.2127 C.ar    1  UNL1        0.1284
     26 N           1.7238    2.8431   26.8389 N.ar    1  UNL1       -0.2399
@<TRIPOS>BOND
     1     1     2    2
     2     2    12    1
     3    12    13   ar
     4    13    14   ar
     5    14    15    1
     6    14    16   ar
     7    16    17   ar
     8    17    18    1
     9    17    19   ar
    10     2     3   am
    11     3     4    1
    12     4     5    1
    13     5     6    1
    14     6     7   ar
    15     7     8   ar
    16     8    20    1
    17    20    21   ar
    18    21    22   ar
    19    22    23   ar
    20    23    24    1
    21    23    25   ar
    22    25    26   ar
    23     8     9   ar
    24     9    10   ar
    25    10    11    1
    26    19    12   ar
    27    11     3    1
    28    10     6   ar
    29    26    20   ar
