@<TRIPOS>MOLECULE
*****
 28 31 0 0 0
SMALL
GASTEIGER

@<TRIPOS>ATOM
      1 C          -8.4937  -17.1611   23.9615 C.2     1  UNL1       -0.0246
      2 C          -7.3359  -17.2559   23.0125 C.2     1  UNL1       -0.0421
      3 C          -6.1741  -16.5315   23.6252 C.3     1  UNL1        0.0480
      4 C          -6.6138  -15.9891   24.9528 C.ar    1  UNL1       -0.0184
      5 C          -5.8940  -15.1912   25.9992 C.ar    1  UNL1       -0.0040
      6 C          -6.6078  -14.7824   27.2535 C.ar    1  UNL1       -0.0003
      7 C          -8.0415  -15.1715   27.4613 C.ar    1  UNL1       -0.0000
      8 C          -8.7613  -15.9694   26.4149 C.ar    1  UNL1       -0.0006
      9 C          -8.0475  -16.3782   25.1606 C.ar    1  UNL1       -0.0079
     10 C         -10.3842  -18.7861   24.6936 C.3     1  UNL1        0.0111
     11 C          -9.8583  -17.7465   23.7487 C.3     1  UNL1        0.0634
     12 C         -10.6971  -17.2924   22.5910 C.ar    1  UNL1        0.0818
     13 C         -12.0014  -17.9725   22.2975 C.ar    1  UNL1        0.1139
     14 N         -12.8401  -17.5184   21.1398 N.ar    1  UNL1       -0.2394
     15 C         -12.3746  -16.3842   20.2756 C.ar    1  UNL1        0.1195
     16 C         -11.0702  -15.7040   20.5691 C.ar    1  UNL1        0.1191
     17 N         -10.2315  -16.1582   21.7268 N.ar    1  UNL1       -0.2446
     18 C          -7.3394  -17.9526   21.6842 C.3     1  UNL1        0.0394
     19 C          -7.2059  -19.4453   21.6198 C.3     1  UNL1        0.0768
     20 N          -5.8890  -20.0655   21.2579 N.3     1  UNL1       -0.2661
     21 C          -5.8414  -21.2202   20.3015 C.3     1  UNL1        0.0899
     22 C          -4.6197  -19.5313   21.8523 C.3     1  UNL1        0.1187
     23 C          -3.5705  -18.9305   20.9645 C.ar    1  UNL1        0.0752
     24 C          -2.1191  -19.0749   21.3148 C.ar    1  UNL1        0.0161
     25 C          -1.0699  -18.4740   20.4270 C.ar    1  UNL1        0.0028
     26 C          -1.4721  -17.7288   19.1889 C.ar    1  UNL1        0.0207
     27 C          -2.9234  -17.5844   18.8387 C.ar    1  UNL1        0.0985
     28 N          -3.9726  -18.1852   19.7265 N.ar    1  UNL1       -0.2468
@<TRIPOS>BOND
     1    11    10    1
     2    11     1    1
     3     1     2    2
     4     2    18    1
     5    18    19    1
     6    19    20    1
     7    20    21    1
     8    20    22    1
     9    22    23    1
    10    23    24   ar
    11    24    25   ar
    12    25    26   ar
    13    26    27   ar
    14    27    28   ar
    15     2     3    1
    16     3     4    1
    17     4     5   ar
    18     5     6   ar
    19     6     7   ar
    20     7     8   ar
    21     8     9   ar
    22    11    12    1
    23    12    13   ar
    24    13    14   ar
    25    14    15   ar
    26    15    16   ar
    27    16    17   ar
    28     9     1    1
    29    17    12   ar
    30    28    23   ar
    31     9     4   ar
@<TRIPOS>MOLECULE
*****
 28 31 0 0 0
SMALL
GASTEIGER

@<TRIPOS>ATOM
      1 C          -8.6438  -17.0492   22.5682 C.2     1  UNL1       -0.0246
      2 C          -8.0190  -18.3705   22.2308 C.2     1  UNL1       -0.0421
      3 C          -9.1159  -19.3150   21.8377 C.3     1  UNL1        0.0480
      4 C         -10.4187  -18.5775   21.9321 C.ar    1  UNL1       -0.0184
      5 C         -11.8329  -19.0002   21.6653 C.ar    1  UNL1       -0.0040
      6 C         -12.9554  -18.0225   21.8500 C.ar    1  UNL1       -0.0003
      7 C         -12.6636  -16.6221   22.3015 C.ar    1  UNL1       -0.0000
      8 C         -11.2493  -16.1994   22.5683 C.ar    1  UNL1       -0.0006
      9 C         -10.1269  -17.1771   22.3836 C.ar    1  UNL1       -0.0079
     10 C          -7.6089  -14.7288   22.0252 C.3     1  UNL1        0.0111
     11 C          -7.9137  -15.8164   23.0123 C.3     1  UNL1        0.0634
     12 C          -7.4884  -15.6711   24.4433 C.ar    1  UNL1        0.0818
     13 C          -8.5014  -15.7926   25.5429 C.ar    1  UNL1        0.1139
     14 N          -8.0761  -15.6472   26.9739 N.ar    1  UNL1       -0.2394
     15 C          -6.6377  -15.3805   27.3055 C.ar    1  UNL1        0.1195
     16 C          -5.6246  -15.2590   26.2059 C.ar    1  UNL1        0.1191
     17 N          -6.0500  -15.4043   24.7749 N.ar    1  UNL1       -0.2446
     18 C          -6.5544  -18.6909   22.2783 C.3     1  UNL1        0.0394
     19 C          -6.0638  -20.0287   21.8097 C.3     1  UNL1        0.0768
     20 N          -4.6829  -20.1636   21.2396 N.3     1  UNL1       -0.2661
     21 C          -4.4924  -20.7196   19.8594 C.3     1  UNL1        0.0899
     22 C          -3.4927  -19.7426   22.0495 C.3     1  UNL1        0.1187
     23 C          -2.5497  -18.7062   21.5139 C.ar    1  UNL1        0.0752
     24 C          -2.6662  -17.2809   21.9665 C.ar    1  UNL1        0.0161
     25 C          -1.7232  -16.2445   21.4310 C.ar    1  UNL1        0.0028
     26 C          -0.6638  -16.6335   20.4429 C.ar    1  UNL1        0.0207
     27 C          -0.5474  -18.0588   19.9904 C.ar    1  UNL1        0.0985
     28 N          -1.4903  -19.0951   20.5259 N.ar    1  UNL1       -0.2468
@<TRIPOS>BOND
     1    11    10    1
     2    11     1    1
     3     1     2    2
     4     2    18    1
     5    18    19    1
     6    19    20    1
     7    20    21    1
     8    20    22    1
     9    22    23    1
    10    23    24   ar
    11    24    25   ar
    12    25    26   ar
    13    26    27   ar
    14    27    28   ar
    15     2     3    1
    16     3     4    1
    17     4     5   ar
    18     5     6   ar
    19     6     7   ar
    20     7     8   ar
    21     8     9   ar
    22    11    12    1
    23    12    13   ar
    24    13    14   ar
    25    14    15   ar
    26    15    16   ar
    27    16    17   ar
    28     9     1    1
    29    17    12   ar
    30    28    23   ar
    31     9     4   ar
@<TRIPOS>MOLECULE
*****
 28 31 0 0 0
SMALL
GASTEIGER

@<TRIPOS>ATOM
      1 C          -6.0530  -18.8624   21.3271 C.2     1  UNL1       -0.0246
      2 C          -7.4980  -18.8087   20.9280 C.2     1  UNL1       -0.0421
      3 C          -8.1791  -17.7871   21.7895 C.3     1  UNL1        0.0480
      4 C          -7.1552  -17.2093   22.7211 C.ar    1  UNL1       -0.0184
      5 C          -7.2496  -16.1640   23.7927 C.ar    1  UNL1       -0.0040
      6 C          -6.0299  -15.7832   24.5784 C.ar    1  UNL1       -0.0003
      7 C          -4.7159  -16.4478   24.2926 C.ar    1  UNL1       -0.0000
      8 C          -4.6215  -17.4931   23.2210 C.ar    1  UNL1       -0.0006
      9 C          -5.8412  -17.8739   22.4353 C.ar    1  UNL1       -0.0079
     10 C          -5.2931  -21.2025   20.4924 C.3     1  UNL1        0.0111
     11 C          -5.0041  -19.7488   20.7239 C.3     1  UNL1        0.0634
     12 C          -3.6661  -19.1818   20.3522 C.ar    1  UNL1        0.0818
     13 C          -2.4277  -19.6635   21.0481 C.ar    1  UNL1        0.1139
     14 N          -1.0897  -19.0965   20.6763 N.ar    1  UNL1       -0.2394
     15 C          -0.9901  -18.0477   19.6086 C.ar    1  UNL1        0.1195
     16 C          -2.2284  -17.5659   18.9126 C.ar    1  UNL1        0.1191
     17 N          -3.5664  -18.1330   19.2844 N.ar    1  UNL1       -0.2446
     18 C          -8.1476  -19.6321   19.8556 C.3     1  UNL1        0.0394
     19 C          -9.3608  -19.1126   19.1426 C.3     1  UNL1        0.0768
     20 N         -10.6150  -18.8204   19.9117 N.3     1  UNL1       -0.2661
     21 C         -11.3172  -17.5073   19.7303 C.3     1  UNL1        0.0899
     22 C         -11.1670  -19.8410   20.8622 C.3     1  UNL1        0.1187
     23 C         -10.9650  -19.6768   22.3394 C.ar    1  UNL1        0.0752
     24 C          -9.8927  -20.4565   23.0410 C.ar    1  UNL1        0.0161
     25 C          -9.6907  -20.2923   24.5183 C.ar    1  UNL1        0.0028
     26 C         -10.5610  -19.3484   25.2939 C.ar    1  UNL1        0.0207
     27 C         -11.6332  -18.5687   24.5923 C.ar    1  UNL1        0.0985
     28 N         -11.8352  -18.7329   23.1151 N.ar    1  UNL1       -0.2468
@<TRIPOS>BOND
     1    11    10    1
     2    11     1    1
     3     1     2    2
     4     2    18    1
     5    18    19    1
     6    19    20    1
     7    20    21    1
     8    20    22    1
     9    22    23    1
    10    23    24   ar
    11    24    25   ar
    12    25    26   ar
    13    26    27   ar
    14    27    28   ar
    15     2     3    1
    16     3     4    1
    17     4     5   ar
    18     5     6   ar
    19     6     7   ar
    20     7     8   ar
    21     8     9   ar
    22    11    12    1
    23    12    13   ar
    24    13    14   ar
    25    14    15   ar
    26    15    16   ar
    27    16    17   ar
    28     9     1    1
    29    17    12   ar
    30    28    23   ar
    31     9     4   ar
@<TRIPOS>MOLECULE
*****
 28 31 0 0 0
SMALL
GASTEIGER

@<TRIPOS>ATOM
      1 C          -5.8080  -19.5969   20.8212 C.2     1  UNL1       -0.0246
      2 C          -5.9524  -18.9024   22.1429 C.2     1  UNL1       -0.0421
      3 C          -7.4094  -18.6213   22.3620 C.3     1  UNL1        0.0480
      4 C          -8.1655  -19.1421   21.1758 C.ar    1  UNL1       -0.0184
      5 C          -9.6274  -19.1452   20.8397 C.ar    1  UNL1       -0.0040
      6 C         -10.0994  -19.7512   19.5514 C.ar    1  UNL1       -0.0003
      7 C          -9.1097  -20.3542   18.5991 C.ar    1  UNL1       -0.0000
      8 C          -7.6479  -20.3511   18.9352 C.ar    1  UNL1       -0.0006
      9 C          -7.1758  -19.7451   20.2235 C.ar    1  UNL1       -0.0079
     10 C          -4.4057  -21.4608   19.6767 C.3     1  UNL1        0.0111
     11 C          -4.5217  -20.0617   20.2053 C.3     1  UNL1        0.0634
     12 C          -3.3513  -19.1276   20.1180 C.ar    1  UNL1        0.0818
     13 C          -2.0976  -19.4221   20.8871 C.ar    1  UNL1        0.1139
     14 N          -0.9273  -18.4880   20.7997 N.ar    1  UNL1       -0.2394
     15 C          -1.0106  -17.2593   19.9433 C.ar    1  UNL1        0.1195
     16 C          -2.2643  -16.9648   19.1742 C.ar    1  UNL1        0.1191
     17 N          -3.4346  -17.8989   19.2615 N.ar    1  UNL1       -0.2446
     18 C          -4.8358  -18.5507   23.0807 C.3     1  UNL1        0.0394
     19 C          -4.3831  -17.1263   23.2072 C.3     1  UNL1        0.0768
     20 N          -5.1038  -16.1895   24.1307 N.3     1  UNL1       -0.2661
     21 C          -4.9014  -16.2946   25.6134 C.3     1  UNL1        0.0899
     22 C          -6.0267  -15.1475   23.5718 C.3     1  UNL1        0.1187
     23 C          -7.4583  -15.4905   23.2837 C.ar    1  UNL1        0.0752
     24 C          -8.3410  -16.0076   24.3807 C.ar    1  UNL1        0.0161
     25 C          -9.7726  -16.3505   24.0927 C.ar    1  UNL1        0.0028
     26 C         -10.3215  -16.1763   22.7077 C.ar    1  UNL1        0.0207
     27 C          -9.4388  -15.6591   21.6107 C.ar    1  UNL1        0.0985
     28 N          -8.0072  -15.3162   21.8987 N.ar    1  UNL1       -0.2468
@<TRIPOS>BOND
     1    11    10    1
     2    11     1    1
     3     1     2    2
     4     2    18    1
     5    18    19    1
     6    19    20    1
     7    20    21    1
     8    20    22    1
     9    22    23    1
    10    23    24   ar
    11    24    25   ar
    12    25    26   ar
    13    26    27   ar
    14    27    28   ar
    15     2     3    1
    16     3     4    1
    17     4     5   ar
    18     5     6   ar
    19     6     7   ar
    20     7     8   ar
    21     8     9   ar
    22    11    12    1
    23    12    13   ar
    24    13    14   ar
    25    14    15   ar
    26    15    16   ar
    27    16    17   ar
    28     9     1    1
    29    17    12   ar
    30    28    23   ar
    31     9     4   ar
@<TRIPOS>MOLECULE
*****
 28 31 0 0 0
SMALL
GASTEIGER

@<TRIPOS>ATOM
      1 C          -5.4781  -17.8979   22.5915 C.2     1  UNL1       -0.0246
      2 C          -6.6552  -17.0458   22.9634 C.2     1  UNL1       -0.0421
      3 C          -7.8449  -17.5373   22.1933 C.3     1  UNL1        0.0480
      4 C          -7.4031  -18.6931   21.3455 C.ar    1  UNL1       -0.0184
      5 C          -8.1438  -19.5715   20.3812 C.ar    1  UNL1       -0.0040
      6 C          -7.4217  -20.6727   19.6630 C.ar    1  UNL1       -0.0003
      7 C          -5.9589  -20.8956   19.9091 C.ar    1  UNL1       -0.0000
      8 C          -5.2182  -20.0173   20.8734 C.ar    1  UNL1       -0.0006
      9 C          -5.9403  -18.9160   21.5916 C.ar    1  UNL1       -0.0079
     10 C          -3.8526  -17.6672   24.6052 C.3     1  UNL1        0.0111
     11 C          -4.0835  -17.7567   23.1257 C.3     1  UNL1        0.0634
     12 C          -2.9200  -17.7051   22.1806 C.ar    1  UNL1        0.0818
     13 C          -2.1958  -18.9662   21.8128 C.ar    1  UNL1        0.1139
     14 N          -1.0322  -18.9146   20.8677 N.ar    1  UNL1       -0.2394
     15 C          -0.5926  -17.6018   20.2903 C.ar    1  UNL1        0.1195
     16 C          -1.3167  -16.3406   20.6580 C.ar    1  UNL1        0.1191
     17 N          -2.4803  -16.3923   21.6032 N.ar    1  UNL1       -0.2446
     18 C          -6.6444  -15.9028   23.9347 C.3     1  UNL1        0.0394
     19 C          -7.9275  -15.4314   24.5524 C.3     1  UNL1        0.0768
     20 N          -8.4172  -16.0495   25.8283 N.3     1  UNL1       -0.2661
     21 C          -8.3902  -15.2594   27.1031 C.3     1  UNL1        0.0899
     22 C          -8.9339  -17.4577   25.8295 C.3     1  UNL1        0.1187
     23 C          -9.7923  -17.9426   24.6990 C.ar    1  UNL1        0.0752
     24 C          -9.8402  -19.4047   24.3675 C.ar    1  UNL1        0.0161
     25 C         -10.6985  -19.8896   23.2370 C.ar    1  UNL1        0.0028
     26 C         -11.5090  -18.9125   22.4380 C.ar    1  UNL1        0.0207
     27 C         -11.4611  -17.4504   22.7696 C.ar    1  UNL1        0.0985
     28 N         -10.6027  -16.9655   23.9001 N.ar    1  UNL1       -0.2468
@<TRIPOS>BOND
     1    11    10    1
     2    11     1    1
     3     1     2    2
     4     2    18    1
     5    18    19    1
     6    19    20    1
     7    20    21    1
     8    20    22    1
     9    22    23    1
    10    23    24   ar
    11    24    25   ar
    12    25    26   ar
    13    26    27   ar
    14    27    28   ar
    15     2     3    1
    16     3     4    1
    17     4     5   ar
    18     5     6   ar
    19     6     7   ar
    20     7     8   ar
    21     8     9   ar
    22    11    12    1
    23    12    13   ar
    24    13    14   ar
    25    14    15   ar
    26    15    16   ar
    27    16    17   ar
    28     9     1    1
    29    17    12   ar
    30    28    23   ar
    31     9     4   ar
@<TRIPOS>MOLECULE
*****
 28 31 0 0 0
SMALL
GASTEIGER

@<TRIPOS>ATOM
      1 C          -9.3190  -17.6664   23.1956 C.2     1  UNL1       -0.0246
      2 C          -8.3980  -18.3498   22.2287 C.2     1  UNL1       -0.0421
      3 C          -9.0006  -18.2417   20.8594 C.3     1  UNL1        0.0480
      4 C         -10.2940  -17.4916   20.9799 C.ar    1  UNL1       -0.0184
      5 C         -11.3179  -17.0863   19.9615 C.ar    1  UNL1       -0.0040
      6 C         -12.5386  -16.3255   20.3869 C.ar    1  UNL1       -0.0003
      7 C         -12.7353  -15.9700   21.8308 C.ar    1  UNL1       -0.0000
      8 C         -11.7114  -16.3752   22.8493 C.ar    1  UNL1       -0.0006
      9 C         -10.4907  -17.1360   22.4238 C.ar    1  UNL1       -0.0079
     10 C          -9.9349  -18.3470   25.6262 C.3     1  UNL1        0.0111
     11 C          -9.1056  -17.5363   24.6747 C.3     1  UNL1        0.0634
     12 C          -8.0632  -16.5957   25.2022 C.ar    1  UNL1        0.0818
     13 C          -7.2040  -15.8178   24.2501 C.ar    1  UNL1        0.1139
     14 N          -6.1615  -14.8771   24.7777 N.ar    1  UNL1       -0.2394
     15 C          -5.9782  -14.7143   26.2575 C.ar    1  UNL1        0.1195
     16 C          -6.8374  -15.4922   27.2098 C.ar    1  UNL1        0.1191
     17 N          -7.8799  -16.4328   26.6821 N.ar    1  UNL1       -0.2446
     18 C          -7.1021  -19.0231   22.5711 C.3     1  UNL1        0.0394
     19 C          -6.7656  -20.3539   21.9666 C.3     1  UNL1        0.0768
     20 N          -5.9757  -20.4211   20.6932 N.3     1  UNL1       -0.2661
     21 C          -5.7405  -21.7436   20.0254 C.3     1  UNL1        0.0899
     22 C          -5.4210  -19.1660   20.0876 C.3     1  UNL1        0.1187
     23 C          -3.9695  -18.8286   20.2586 C.ar    1  UNL1        0.0752
     24 C          -3.1516  -18.4114   19.0725 C.ar    1  UNL1        0.0161
     25 C          -1.7001  -18.0741   19.2436 C.ar    1  UNL1        0.0028
     26 C          -1.0664  -18.1539   20.6008 C.ar    1  UNL1        0.0207
     27 C          -1.8843  -18.5712   21.7869 C.ar    1  UNL1        0.0985
     28 N          -3.3358  -18.9085   21.6158 N.ar    1  UNL1       -0.2468
@<TRIPOS>BOND
     1    11    10    1
     2    11     1    1
     3     1     2    2
     4     2    18    1
     5    18    19    1
     6    19    20    1
     7    20    21    1
     8    20    22    1
     9    22    23    1
    10    23    24   ar
    11    24    25   ar
    12    25    26   ar
    13    26    27   ar
    14    27    28   ar
    15     2     3    1
    16     3     4    1
    17     4     5   ar
    18     5     6   ar
    19     6     7   ar
    20     7     8   ar
    21     8     9   ar
    22    11    12    1
    23    12    13   ar
    24    13    14   ar
    25    14    15   ar
    26    15    16   ar
    27    16    17   ar
    28     9     1    1
    29    17    12   ar
    30    28    23   ar
    31     9     4   ar
@<TRIPOS>MOLECULE
*****
 28 31 0 0 0
SMALL
GASTEIGER

@<TRIPOS>ATOM
      1 C          -7.1102  -18.8384   21.3741 C.2     1  UNL1       -0.0246
      2 C          -7.7605  -17.6759   22.0640 C.2     1  UNL1       -0.0421
      3 C          -9.1021  -17.4529   21.4313 C.3     1  UNL1        0.0480
      4 C          -9.2810  -18.4776   20.3505 C.ar    1  UNL1       -0.0184
      5 C         -10.4059  -18.7415   19.3940 C.ar    1  UNL1       -0.0040
      6 C         -10.2996  -19.8617   18.4021 C.ar    1  UNL1       -0.0003
      7 C          -9.0685  -20.7179   18.3667 C.ar    1  UNL1       -0.0000
      8 C          -7.9437  -20.4540   19.3233 C.ar    1  UNL1       -0.0006
      9 C          -8.0499  -19.3338   20.3151 C.ar    1  UNL1       -0.0079
     10 C          -5.6425  -20.6896   22.4554 C.3     1  UNL1        0.0111
     11 C          -5.7576  -19.4058   21.6881 C.3     1  UNL1        0.0634
     12 C          -4.5201  -18.6895   21.2349 C.ar    1  UNL1        0.0818
     13 C          -3.5812  -18.1012   22.2461 C.ar    1  UNL1        0.1139
     14 N          -2.3437  -17.3849   21.7928 N.ar    1  UNL1       -0.2394
     15 C          -2.0450  -17.2569   20.3284 C.ar    1  UNL1        0.1195
     16 C          -2.9839  -17.8451   19.3172 C.ar    1  UNL1        0.1191
     17 N          -4.2215  -18.5614   19.7705 N.ar    1  UNL1       -0.2446
     18 C          -7.1723  -16.8768   23.1889 C.3     1  UNL1        0.0394
     19 C          -8.0607  -16.0321   24.0533 C.3     1  UNL1        0.0768
     20 N          -8.2490  -16.3792   25.5004 N.3     1  UNL1       -0.2661
     21 C          -7.3763  -15.7461   26.5433 C.3     1  UNL1        0.0899
     22 C          -9.3100  -17.3594   25.9047 C.3     1  UNL1        0.1187
     23 C          -9.9385  -18.2513   24.8754 C.ar    1  UNL1        0.0752
     24 C          -9.3238  -19.5830   24.5610 C.ar    1  UNL1        0.0161
     25 C          -9.9524  -20.4749   23.5317 C.ar    1  UNL1        0.0028
     26 C         -11.1955  -20.0352   22.8168 C.ar    1  UNL1        0.0207
     27 C         -11.8102  -18.7035   23.1312 C.ar    1  UNL1        0.0985
     28 N         -11.1817  -17.8116   24.1605 N.ar    1  UNL1       -0.2468
@<TRIPOS>BOND
     1    11    10    1
     2    11     1    1
     3     1     2    2
     4     2    18    1
     5    18    19    1
     6    19    20    1
     7    20    21    1
     8    20    22    1
     9    22    23    1
    10    23    24   ar
    11    24    25   ar
    12    25    26   ar
    13    26    27   ar
    14    27    28   ar
    15     2     3    1
    16     3     4    1
    17     4     5   ar
    18     5     6   ar
    19     6     7   ar
    20     7     8   ar
    21     8     9   ar
    22    11    12    1
    23    12    13   ar
    24    13    14   ar
    25    14    15   ar
    26    15    16   ar
    27    16    17   ar
    28     9     1    1
    29    17    12   ar
    30    28    23   ar
    31     9     4   ar
@<TRIPOS>MOLECULE
*****
 28 31 0 0 0
SMALL
GASTEIGER

@<TRIPOS>ATOM
      1 C          -5.8596  -17.7979   22.6466 C.2     1  UNL1       -0.0246
      2 C          -7.2140  -17.8011   22.0019 C.2     1  UNL1       -0.0421
      3 C          -8.0816  -16.8263   22.7414 C.3     1  UNL1        0.0480
      4 C          -7.2635  -16.2206   23.8431 C.ar    1  UNL1       -0.0184
      5 C          -7.5915  -15.1998   24.8921 C.ar    1  UNL1       -0.0040
      6 C          -6.5463  -14.7796   25.8825 C.ar    1  UNL1       -0.0003
      7 C          -5.1730  -15.3802   25.8239 C.ar    1  UNL1       -0.0000
      8 C          -4.8450  -16.4009   24.7749 C.ar    1  UNL1       -0.0006
      9 C          -5.8902  -16.8211   23.7845 C.ar    1  UNL1       -0.0079
     10 C          -4.6517  -20.0952   22.5290 C.3     1  UNL1        0.0111
     11 C          -4.6815  -18.6261   22.2270 C.3     1  UNL1        0.0634
     12 C          -3.5331  -17.9855   21.5054 C.ar    1  UNL1        0.0818
     13 C          -2.5980  -17.0741   22.2437 C.ar    1  UNL1        0.1139
     14 N          -1.4497  -16.4334   21.5220 N.ar    1  UNL1       -0.2394
     15 C          -1.2363  -16.7041   20.0622 C.ar    1  UNL1        0.1195
     16 C          -2.1714  -17.6155   19.3239 C.ar    1  UNL1        0.1191
     17 N          -3.3198  -18.2562   20.0455 N.ar    1  UNL1       -0.2446
     18 C          -7.6281  -18.6331   20.8244 C.3     1  UNL1        0.0394
     19 C          -8.2872  -19.9630   21.0404 C.3     1  UNL1        0.0768
     20 N          -9.3441  -20.1140   22.0941 N.3     1  UNL1       -0.2661
     21 C          -8.9574  -20.4716   23.4986 C.3     1  UNL1        0.0899
     22 C         -10.7878  -19.9073   21.7432 C.3     1  UNL1        0.1187
     23 C         -11.4250  -18.5651   21.9491 C.ar    1  UNL1        0.0752
     24 C         -12.3193  -18.3327   23.1307 C.ar    1  UNL1        0.0161
     25 C         -12.9565  -16.9905   23.3366 C.ar    1  UNL1        0.0028
     26 C         -12.6993  -15.8806   22.3610 C.ar    1  UNL1        0.0207
     27 C         -11.8050  -16.1129   21.1794 C.ar    1  UNL1        0.0985
     28 N         -11.1678  -17.4552   20.9735 N.ar    1  UNL1       -0.2468
@<TRIPOS>BOND
     1    11    10    1
     2    11     1    1
     3     1     2    2
     4     2    18    1
     5    18    19    1
     6    19    20    1
     7    20    21    1
     8    20    22    1
     9    22    23    1
    10    23    24   ar
    11    24    25   ar
    12    25    26   ar
    13    26    27   ar
    14    27    28   ar
    15     2     3    1
    16     3     4    1
    17     4     5   ar
    18     5     6   ar
    19     6     7   ar
    20     7     8   ar
    21     8     9   ar
    22    11    12    1
    23    12    13   ar
    24    13    14   ar
    25    14    15   ar
    26    15    16   ar
    27    16    17   ar
    28     9     1    1
    29    17    12   ar
    30    28    23   ar
    31     9     4   ar
@<TRIPOS>MOLECULE
*****
 28 31 0 0 0
SMALL
GASTEIGER

@<TRIPOS>ATOM
      1 C          -6.2379  -16.2620   23.7375 C.2     1  UNL1       -0.0246
      2 C          -7.4177  -16.8728   23.0411 C.2     1  UNL1       -0.0421
      3 C          -8.5825  -16.8380   23.9857 C.3     1  UNL1        0.0480
      4 C          -8.1225  -16.2056   25.2657 C.ar    1  UNL1       -0.0184
      5 C          -8.8360  -15.9079   26.5512 C.ar    1  UNL1       -0.0040
      6 C          -8.1003  -15.2543   27.6832 C.ar    1  UNL1       -0.0003
      7 C          -6.6513  -14.8983   27.5298 C.ar    1  UNL1       -0.0000
      8 C          -5.9379  -15.1959   26.2444 C.ar    1  UNL1       -0.0006
      9 C          -6.6735  -15.8496   25.1123 C.ar    1  UNL1       -0.0079
     10 C          -4.2477  -14.7279   23.0771 C.3     1  UNL1        0.0111
     11 C          -4.8637  -16.0931   23.1603 C.3     1  UNL1        0.0634
     12 C          -4.1056  -17.2893   22.6662 C.ar    1  UNL1        0.0818
     13 C          -4.4615  -18.6598   23.1611 C.ar    1  UNL1        0.1139
     14 N          -3.7032  -19.8560   22.6670 N.ar    1  UNL1       -0.2394
     15 C          -2.5890  -19.6817   21.6780 C.ar    1  UNL1        0.1195
     16 C          -2.2330  -18.3112   21.1831 C.ar    1  UNL1        0.1191
     17 N          -2.9913  -17.1150   21.6772 N.ar    1  UNL1       -0.2446
     18 C          -7.4306  -17.4221   21.6454 C.3     1  UNL1        0.0394
     19 C          -7.5850  -18.8971   21.4212 C.3     1  UNL1        0.0768
     20 N          -8.7651  -19.6235   21.9955 N.3     1  UNL1       -0.2661
     21 C          -8.6099  -20.4341   23.2481 C.3     1  UNL1        0.0899
     22 C         -10.1003  -19.5393   21.3172 C.3     1  UNL1        0.1187
     23 C         -11.0616  -18.4487   21.6864 C.ar    1  UNL1        0.0752
     24 C         -11.8767  -18.5603   22.9406 C.ar    1  UNL1        0.0161
     25 C         -12.8381  -17.4697   23.3098 C.ar    1  UNL1        0.0028
     26 C         -12.9844  -16.2675   22.4249 C.ar    1  UNL1        0.0207
     27 C         -12.1693  -16.1559   21.1707 C.ar    1  UNL1        0.0985
     28 N         -11.2079  -17.2465   20.8014 N.ar    1  UNL1       -0.2468
@<TRIPOS>BOND
     1    11    10    1
     2    11     1    1
     3     1     2    2
     4     2    18    1
     5    18    19    1
     6    19    20    1
     7    20    21    1
     8    20    22    1
     9    22    23    1
    10    23    24   ar
    11    24    25   ar
    12    25    26   ar
    13    26    27   ar
    14    27    28   ar
    15     2     3    1
    16     3     4    1
    17     4     5   ar
    18     5     6   ar
    19     6     7   ar
    20     7     8   ar
    21     8     9   ar
    22    11    12    1
    23    12    13   ar
    24    13    14   ar
    25    14    15   ar
    26    15    16   ar
    27    16    17   ar
    28     9     1    1
    29    17    12   ar
    30    28    23   ar
    31     9     4   ar
