@<TRIPOS>MOLECULE
*****
 30 33 0 0 0
SMALL
GASTEIGER

@<TRIPOS>ATOM
      1 C         -13.8550   -4.8604   18.6738 C.2     1  UNL1        0.0020
      2 C         -14.9523   -5.8617   18.4654 C.2     1  UNL1        0.0130
      3 C         -14.6242   -7.3207   18.3493 C.3     1  UNL1        0.1542
      4 C         -16.0496   -6.8630   18.2570 C.3     1  UNL1        0.0614
      5 C         -17.1468   -7.8642   18.0486 C.3     1  UNL1        0.0725
      6 N         -16.8186   -9.3233   17.9325 N.3     1  UNL1       -0.2972
      7 C         -15.3932   -9.7811   18.0249 C.3     1  UNL1        0.0725
      8 C         -14.2960   -8.7798   18.2333 C.3     1  UNL1        0.0614
      9 O         -13.1986   -7.7785   18.4417 O.3     1  UNL1       -0.4785
     10 C         -12.1014   -6.7772   18.6501 C.ar    1  UNL1        0.1386
     11 C         -10.6759   -7.2350   18.7425 C.ar    1  UNL1        0.0369
     12 C          -9.5787   -6.2337   18.9509 C.ar    1  UNL1        0.0031
     13 C          -9.9068   -4.7747   19.0669 C.ar    1  UNL1        0.0002
     14 C         -11.3323   -4.3169   18.9746 C.ar    1  UNL1        0.0030
     15 C         -12.4296   -5.3182   18.7662 C.ar    1  UNL1        0.0338
     16 H         -17.1691   -9.6327   17.0260 H       1  UNL1        0.1233
     17 C         -14.8396   -0.4833   19.0221 C.ar    1  UNL1        0.0534
     18 C         -14.1689   -1.0051   17.7860 C.ar    1  UNL1        0.0045
     19 C         -13.8407   -2.4642   17.6700 C.ar    1  UNL1        0.0001
     20 C         -14.1832   -3.4014   18.7899 C.ar    1  UNL1       -0.0001
     21 C         -14.8539   -2.8795   20.0260 C.ar    1  UNL1        0.0001
     22 C         -15.1821   -1.4205   20.1421 C.ar    1  UNL1        0.0045
     23 N         -16.4363    1.4079   19.8120 N.am    1  UNL1       -0.3009
     24 C         -15.1678    0.9758   19.1381 C.2     1  UNL1        0.2458
     25 O         -14.2273    2.0027   18.5803 O.2     1  UNL1       -0.2701
     26 H         -17.0535    0.7339   20.1781 H       1  UNL1        0.1497
     27 C         -16.7644    2.8670   19.9280 C.3     1  UNL1        0.0896
     28 C         -15.2426    4.6946   20.9740 C.3     1  UNL1        0.0017
     29 C         -16.3048    3.6462   21.1246 C.3     1  UNL1        0.0196
     30 C         -16.9073    3.3771   22.4716 C.3     1  UNL1        0.0017
@<TRIPOS>BOND
     1    28    29    1
     2    29    30    1
     3    29    27    1
     4    27    23    1
     5    23    24   am
     6    24    25    2
     7    24    17    1
     8    17    18   ar
     9    18    19   ar
    10    19    20   ar
    11    20     1    1
    12     1     2    2
    13     2     3    1
    14     3     4    1
    15     4     5    1
    16     5     6    1
    17     6     7    1
    18     7     8    1
    19     3     9    1
    20     9    10    1
    21    10    11   ar
    22    11    12   ar
    23    12    13   ar
    24    13    14   ar
    25    14    15   ar
    26    20    21   ar
    27    21    22   ar
    28    22    17   ar
    29    15     1    1
    30     8     3    1
    31    15    10   ar
    32    23    26    1
    33     6    16    1
@<TRIPOS>MOLECULE
*****
 30 33 0 0 0
SMALL
GASTEIGER

@<TRIPOS>ATOM
      1 C           3.9050    0.7812   34.4001 C.2     1  UNL1        0.0020
      2 C           3.9964    1.0669   35.8698 C.2     1  UNL1        0.0130
      3 C           3.1507    2.1462   36.4781 C.3     1  UNL1        0.1542
      4 C           4.0878    1.3526   37.3395 C.3     1  UNL1        0.0614
      5 C           4.1792    1.6383   38.8092 C.3     1  UNL1        0.0725
      6 N           3.3336    2.7175   39.4174 N.3     1  UNL1       -0.2972
      7 C           2.3965    3.5111   38.5560 C.3     1  UNL1        0.0725
      8 C           2.3051    3.2254   37.0864 C.3     1  UNL1        0.0614
      9 O           2.2136    2.9398   35.6166 O.3     1  UNL1       -0.4785
     10 C           2.1222    2.6541   34.1469 C.ar    1  UNL1        0.1386
     11 C           1.1851    3.4477   33.2855 C.ar    1  UNL1        0.0369
     12 C           1.0937    3.1620   31.8158 C.ar    1  UNL1        0.0031
     13 C           1.9394    2.0827   31.2075 C.ar    1  UNL1        0.0002
     14 C           2.8764    1.2891   32.0689 C.ar    1  UNL1        0.0030
     15 C           2.9679    1.5748   33.5387 C.ar    1  UNL1        0.0338
     16 H           3.9731    3.3847   39.8490 H       1  UNL1        0.1233
     17 C           6.4419   -2.4567   32.5753 C.ar    1  UNL1        0.0534
     18 C           5.0386   -2.7590   33.0102 C.ar    1  UNL1        0.0045
     19 C           4.1930   -1.6797   33.6185 C.ar    1  UNL1        0.0001
     20 C           4.7506   -0.2981   33.7918 C.ar    1  UNL1       -0.0001
     21 C           6.1540    0.0043   33.3568 C.ar    1  UNL1        0.0001
     22 C           6.9997   -1.0750   32.7485 C.ar    1  UNL1        0.0045
     23 N           6.7566   -4.9348   31.8612 N.am    1  UNL1       -0.3009
     24 C           7.2876   -3.5359   31.9670 C.2     1  UNL1        0.2458
     25 O           8.6644   -3.2163   31.4645 O.2     1  UNL1       -0.2701
     26 H           5.8530   -5.1445   32.1910 H       1  UNL1        0.1497
     27 C           7.6022   -6.0140   31.2529 C.3     1  UNL1        0.0896
     28 C           8.7538   -7.0076   29.1465 C.3     1  UNL1        0.0017
     29 C           7.6905   -6.1466   29.7613 C.3     1  UNL1        0.0196
     30 C           6.7154   -5.4183   28.8846 C.3     1  UNL1        0.0017
@<TRIPOS>BOND
     1    28    29    1
     2    29    30    1
     3    29    27    1
     4    27    23    1
     5    23    24   am
     6    24    25    2
     7    24    17    1
     8    17    18   ar
     9    18    19   ar
    10    19    20   ar
    11    20     1    1
    12     1     2    2
    13     2     3    1
    14     3     4    1
    15     4     5    1
    16     5     6    1
    17     6     7    1
    18     7     8    1
    19     3     9    1
    20     9    10    1
    21    10    11   ar
    22    11    12   ar
    23    12    13   ar
    24    13    14   ar
    25    14    15   ar
    26    20    21   ar
    27    21    22   ar
    28    22    17   ar
    29    15     1    1
    30     8     3    1
    31    15    10   ar
    32    23    26    1
    33     6    16    1
@<TRIPOS>MOLECULE
*****
 30 33 0 0 0
SMALL
GASTEIGER

@<TRIPOS>ATOM
      1 C           3.8779    0.0295   19.9964 C.2     1  UNL1        0.0020
      2 C           4.4622    1.1177   19.1451 C.2     1  UNL1        0.0130
      3 C           5.3528    0.7693   17.9894 C.3     1  UNL1        0.1542
      4 C           5.0465    2.2057   18.2938 C.3     1  UNL1        0.0614
      5 C           5.6308    3.2938   17.4426 C.3     1  UNL1        0.0725
      6 N           6.5213    2.9454   16.2869 N.3     1  UNL1       -0.2972
      7 C           6.8276    1.5089   15.9825 C.3     1  UNL1        0.0725
      8 C           6.2434    0.4209   16.8338 C.3     1  UNL1        0.0614
      9 O           5.6591   -0.6673   17.6851 O.3     1  UNL1       -0.4785
     10 C           5.0748   -1.7554   18.5363 C.ar    1  UNL1        0.1386
     11 C           5.3811   -3.1919   18.2320 C.ar    1  UNL1        0.0369
     12 C           4.7968   -4.2800   19.0832 C.ar    1  UNL1        0.0031
     13 C           3.9063   -3.9316   20.2389 C.ar    1  UNL1        0.0002
     14 C           3.6000   -2.4951   20.5433 C.ar    1  UNL1        0.0030
     15 C           4.1842   -1.4070   19.6920 C.ar    1  UNL1        0.0338
     16 H           7.4149    3.4080   16.4539 H       1  UNL1        0.1233
     17 C           1.2063    1.0747   23.4633 C.ar    1  UNL1        0.0534
     18 C           0.6420    1.0078   22.0751 C.ar    1  UNL1        0.0045
     19 C           1.5325    0.6594   20.9195 C.ar    1  UNL1        0.0001
     20 C           2.9874    0.3779   21.1520 C.ar    1  UNL1       -0.0001
     21 C           3.5518    0.4448   22.5402 C.ar    1  UNL1        0.0001
     22 C           2.6612    0.7932   23.6959 C.ar    1  UNL1        0.0045
     23 N           0.3635    0.6057   25.8757 N.am    1  UNL1       -0.3009
     24 C           0.3157    1.4231   24.6189 C.2     1  UNL1        0.2458
     25 O          -0.6227    2.5890   24.5178 O.2     1  UNL1       -0.2701
     26 H           0.9794   -0.1595   25.9421 H       1  UNL1        0.1497
     27 C          -0.5271    0.9541   27.0313 C.3     1  UNL1        0.0896
     28 C          -1.6271   -0.1590   29.1053 C.3     1  UNL1        0.0017
     29 C          -0.3987    0.2107   28.3279 C.3     1  UNL1        0.0196
     30 C           0.9580   -0.1631   28.8470 C.3     1  UNL1        0.0017
@<TRIPOS>BOND
     1    28    29    1
     2    29    30    1
     3    29    27    1
     4    27    23    1
     5    23    24   am
     6    24    25    2
     7    24    17    1
     8    17    18   ar
     9    18    19   ar
    10    19    20   ar
    11    20     1    1
    12     1     2    2
    13     2     3    1
    14     3     4    1
    15     4     5    1
    16     5     6    1
    17     6     7    1
    18     7     8    1
    19     3     9    1
    20     9    10    1
    21    10    11   ar
    22    11    12   ar
    23    12    13   ar
    24    13    14   ar
    25    14    15   ar
    26    20    21   ar
    27    21    22   ar
    28    22    17   ar
    29    15     1    1
    30     8     3    1
    31    15    10   ar
    32    23    26    1
    33     6    16    1
@<TRIPOS>MOLECULE
*****
 30 33 0 0 0
SMALL
GASTEIGER

@<TRIPOS>ATOM
      1 C           3.4693   -1.1988   21.8654 C.2     1  UNL1        0.0020
      2 C           3.8278   -1.3517   23.3139 C.2     1  UNL1        0.0130
      3 C           4.8803   -2.3377   23.7260 C.3     1  UNL1        0.1542
      4 C           4.1863   -1.5045   24.7624 C.3     1  UNL1        0.0614
      5 C           4.5449   -1.6574   26.2108 C.3     1  UNL1        0.0725
      6 N           5.5974   -2.6434   26.6229 N.3     1  UNL1       -0.2972
      7 C           6.2914   -3.4766   25.5866 C.3     1  UNL1        0.0725
      8 C           5.9329   -3.3238   24.1381 C.3     1  UNL1        0.0614
      9 O           5.5744   -3.1709   22.6896 O.3     1  UNL1       -0.4785
     10 C           5.2159   -3.0181   21.2411 C.ar    1  UNL1        0.1386
     11 C           5.9099   -3.8513   20.2047 C.ar    1  UNL1        0.0369
     12 C           5.5514   -3.6984   18.7562 C.ar    1  UNL1        0.0031
     13 C           4.4988   -2.7124   18.3441 C.ar    1  UNL1        0.0002
     14 C           3.8048   -1.8792   19.3805 C.ar    1  UNL1        0.0030
     15 C           4.1633   -2.0320   20.8290 C.ar    1  UNL1        0.0338
     16 H           5.1546   -3.2919   27.2739 H       1  UNL1        0.1233
     17 C           0.3116    1.7593   20.6291 C.ar    1  UNL1        0.0534
     18 C           0.2090    0.3273   20.1947 C.ar    1  UNL1        0.0045
     19 C           1.2616   -0.6587   20.6067 C.ar    1  UNL1        0.0001
     20 C           2.4167   -0.2128   21.4533 C.ar    1  UNL1       -0.0001
     21 C           2.5193    1.2193   21.8878 C.ar    1  UNL1        0.0001
     22 C           1.4668    2.2054   21.4757 C.ar    1  UNL1        0.0045
     23 N          -2.0814    2.7367   20.8901 N.am    1  UNL1       -0.3009
     24 C          -0.7410    2.7454   20.2170 C.2     1  UNL1        0.2458
     25 O          -0.4530    3.7402   19.1318 O.2     1  UNL1       -0.2701
     26 H          -2.2704    2.0838   21.6023 H       1  UNL1        0.1497
     27 C          -3.1340    3.7228   20.4780 C.3     1  UNL1        0.0896
     28 C          -5.5542    3.3699   19.6016 C.3     1  UNL1        0.0017
     29 C          -4.5812    3.4291   20.7417 C.3     1  UNL1        0.0196
     30 C          -5.0553    3.1946   22.1453 C.3     1  UNL1        0.0017
@<TRIPOS>BOND
     1    28    29    1
     2    29    30    1
     3    29    27    1
     4    27    23    1
     5    23    24   am
     6    24    25    2
     7    24    17    1
     8    17    18   ar
     9    18    19   ar
    10    19    20   ar
    11    20     1    1
    12     1     2    2
    13     2     3    1
    14     3     4    1
    15     4     5    1
    16     5     6    1
    17     6     7    1
    18     7     8    1
    19     3     9    1
    20     9    10    1
    21    10    11   ar
    22    11    12   ar
    23    12    13   ar
    24    13    14   ar
    25    14    15   ar
    26    20    21   ar
    27    21    22   ar
    28    22    17   ar
    29    15     1    1
    30     8     3    1
    31    15    10   ar
    32    23    26    1
    33     6    16    1
@<TRIPOS>MOLECULE
*****
 30 33 0 0 0
SMALL
GASTEIGER

@<TRIPOS>ATOM
      1 C           6.7876   -3.9341   25.5126 C.2     1  UNL1        0.0020
      2 C           6.4422   -3.1871   26.7667 C.2     1  UNL1        0.0130
      3 C           6.6899   -3.8152   28.1061 C.3     1  UNL1        0.1542
      4 C           6.0968   -2.4401   28.0207 C.3     1  UNL1        0.0614
      5 C           5.7515   -1.6932   29.2748 C.3     1  UNL1        0.0725
      6 N           5.9991   -2.3213   30.6142 N.3     1  UNL1       -0.2972
      7 C           6.5922   -3.6965   30.6996 C.3     1  UNL1        0.0725
      8 C           6.9375   -4.4434   29.4455 C.3     1  UNL1        0.0614
      9 O           7.2829   -5.1904   28.1914 O.3     1  UNL1       -0.4785
     10 C           7.6283   -5.9374   26.9373 C.ar    1  UNL1        0.1386
     11 C           8.2213   -7.3126   27.0226 C.ar    1  UNL1        0.0369
     12 C           8.5667   -8.0595   25.7686 C.ar    1  UNL1        0.0031
     13 C           8.3190   -7.4314   24.4291 C.ar    1  UNL1        0.0002
     14 C           7.7260   -6.0562   24.3438 C.ar    1  UNL1        0.0030
     15 C           7.3806   -5.3092   25.5979 C.ar    1  UNL1        0.0338
     16 H           5.0992   -2.3585   31.0929 H       1  UNL1        0.1233
     17 C           6.0446   -2.0496   21.4943 C.ar    1  UNL1        0.0534
     18 C           7.3560   -1.8379   22.1910 C.ar    1  UNL1        0.0045
     19 C           7.6036   -2.4660   23.5304 C.ar    1  UNL1        0.0001
     20 C           6.5399   -3.3059   24.1731 C.ar    1  UNL1       -0.0001
     21 C           5.2285   -3.5177   23.4764 C.ar    1  UNL1        0.0001
     22 C           4.9808   -2.8895   22.1370 C.ar    1  UNL1        0.0045
     23 N           5.0696   -0.1128   20.0631 N.am    1  UNL1       -0.3009
     24 C           5.7970   -1.4214   20.1548 C.2     1  UNL1        0.2458
     25 O           6.2767   -2.1019   18.9071 O.2     1  UNL1       -0.2701
     26 H           4.7547    0.3338   20.8821 H       1  UNL1        0.1497
     27 C           4.8219    0.5153   18.7237 C.3     1  UNL1        0.0896
     28 C           2.2697    0.6762   18.2650 C.3     1  UNL1        0.0017
     29 C           3.6189    0.1187   17.9202 C.3     1  UNL1        0.0196
     30 C           3.7651   -0.8353   16.7720 C.3     1  UNL1        0.0017
@<TRIPOS>BOND
     1    28    29    1
     2    29    30    1
     3    29    27    1
     4    27    23    1
     5    23    24   am
     6    24    25    2
     7    24    17    1
     8    17    18   ar
     9    18    19   ar
    10    19    20   ar
    11    20     1    1
    12     1     2    2
    13     2     3    1
    14     3     4    1
    15     4     5    1
    16     5     6    1
    17     6     7    1
    18     7     8    1
    19     3     9    1
    20     9    10    1
    21    10    11   ar
    22    11    12   ar
    23    12    13   ar
    24    13    14   ar
    25    14    15   ar
    26    20    21   ar
    27    21    22   ar
    28    22    17   ar
    29    15     1    1
    30     8     3    1
    31    15    10   ar
    32    23    26    1
    33     6    16    1
@<TRIPOS>MOLECULE
*****
 30 33 0 0 0
SMALL
GASTEIGER

@<TRIPOS>ATOM
      1 C           3.6373    1.1313   34.1443 C.2     1  UNL1        0.0020
      2 C           2.7834    1.8838   33.1670 C.2     1  UNL1        0.0130
      3 C           1.9196    3.0146   33.6412 C.3     1  UNL1        0.1542
      4 C           1.9297    2.6361   32.1898 C.3     1  UNL1        0.0614
      5 C           1.0759    3.3885   31.2127 C.3     1  UNL1        0.0725
      6 N           0.2120    4.5194   31.6869 N.3     1  UNL1       -0.2972
      7 C           0.2019    4.8978   33.1383 C.3     1  UNL1        0.0725
      8 C           1.0557    4.1454   34.1155 C.3     1  UNL1        0.0614
      9 O           1.9095    3.3930   35.0927 O.3     1  UNL1       -0.4785
     10 C           2.7633    2.6406   36.0699 C.ar    1  UNL1        0.1386
     11 C           2.7532    3.0191   37.5214 C.ar    1  UNL1        0.0369
     12 C           3.6070    2.2667   38.4986 C.ar    1  UNL1        0.0031
     13 C           4.4709    1.1358   38.0243 C.ar    1  UNL1        0.0002
     14 C           4.4810    0.7574   36.5729 C.ar    1  UNL1        0.0030
     15 C           3.6272    1.5098   35.5957 C.ar    1  UNL1        0.0338
     16 H          -0.7480    4.2809   31.4381 H       1  UNL1        0.1233
     17 C           6.2289   -2.2612   32.7215 C.ar    1  UNL1        0.0534
     18 C           6.7591   -0.8580   32.7136 C.ar    1  UNL1        0.0045
     19 C           5.8952    0.2728   33.1879 C.ar    1  UNL1        0.0001
     20 C           4.5012    0.0005   33.6700 C.ar    1  UNL1       -0.0001
     21 C           3.9710   -1.4027   33.6779 C.ar    1  UNL1        0.0001
     22 C           4.8348   -2.5335   33.2037 C.ar    1  UNL1        0.0045
     23 N           6.4925   -4.7460   32.0101 N.am    1  UNL1       -0.3009
     24 C           7.0928   -3.3920   32.2473 C.2     1  UNL1        0.2458
     25 O           8.5571   -3.1688   32.0102 O.2     1  UNL1       -0.2701
     26 H           5.5315   -4.8925   32.1657 H       1  UNL1        0.1497
     27 C           7.3564   -5.8768   31.5359 C.3     1  UNL1        0.0896
     28 C           8.9007   -6.7608   29.6428 C.3     1  UNL1        0.0017
     29 C           7.6710   -6.0191   30.0761 C.3     1  UNL1        0.0196
     30 C           6.7560   -5.4197   29.0498 C.3     1  UNL1        0.0017
@<TRIPOS>BOND
     1    28    29    1
     2    29    30    1
     3    29    27    1
     4    27    23    1
     5    23    24   am
     6    24    25    2
     7    24    17    1
     8    17    18   ar
     9    18    19   ar
    10    19    20   ar
    11    20     1    1
    12     1     2    2
    13     2     3    1
    14     3     4    1
    15     4     5    1
    16     5     6    1
    17     6     7    1
    18     7     8    1
    19     3     9    1
    20     9    10    1
    21    10    11   ar
    22    11    12   ar
    23    12    13   ar
    24    13    14   ar
    25    14    15   ar
    26    20    21   ar
    27    21    22   ar
    28    22    17   ar
    29    15     1    1
    30     8     3    1
    31    15    10   ar
    32    23    26    1
    33     6    16    1
@<TRIPOS>MOLECULE
*****
 30 33 0 0 0
SMALL
GASTEIGER

@<TRIPOS>ATOM
      1 C           2.7557    1.2050   18.9197 C.2     1  UNL1        0.0020
      2 C           2.9886   -0.2663   19.0966 C.2     1  UNL1        0.0130
      3 C           4.2979   -0.8729   18.6867 C.3     1  UNL1        0.1542
      4 C           3.2216   -1.7374   19.2734 C.3     1  UNL1        0.0614
      5 C           3.4546   -3.2086   19.4503 C.3     1  UNL1        0.0725
      6 N           4.7639   -3.8152   19.0405 N.3     1  UNL1       -0.2972
      7 C           5.8401   -2.9507   18.4538 C.3     1  UNL1        0.0725
      8 C           5.6071   -1.4795   18.2769 C.3     1  UNL1        0.0614
      9 O           5.3741   -0.0082   18.1000 O.3     1  UNL1       -0.4785
     10 C           5.1411    1.4629   17.9231 C.ar    1  UNL1        0.1386
     11 C           6.2174    2.3276   17.3364 C.ar    1  UNL1        0.0369
     12 C           5.9844    3.7987   17.1596 C.ar    1  UNL1        0.0031
     13 C           4.6752    4.4054   17.5694 C.ar    1  UNL1        0.0002
     14 C           3.5989    3.5408   18.1561 C.ar    1  UNL1        0.0030
     15 C           3.8319    2.0696   18.3330 C.ar    1  UNL1        0.0338
     16 H           4.5518   -4.5326   18.3471 H       1  UNL1        0.1233
     17 C          -1.1720    3.0249   20.1492 C.ar    1  UNL1        0.0534
     18 C          -0.7603    3.0333   18.7068 C.ar    1  UNL1        0.0045
     19 C           0.5489    2.4267   18.2970 C.ar    1  UNL1        0.0001
     20 C           1.4465    1.8116   19.3295 C.ar    1  UNL1       -0.0001
     21 C           1.0348    1.8032   20.7719 C.ar    1  UNL1        0.0001
     22 C          -0.2744    2.4098   21.1818 C.ar    1  UNL1        0.0045
     23 N          -3.6822    2.7563   20.7628 N.am    1  UNL1       -0.3009
     24 C          -2.4812    3.6315   20.5590 C.2     1  UNL1        0.2458
     25 O          -2.5894    5.1134   20.7650 O.2     1  UNL1       -0.2701
     26 H          -3.6112    1.7837   20.6276 H       1  UNL1        0.1497
     27 C          -4.9914    3.3629   21.1726 C.3     1  UNL1        0.0896
     28 C          -6.6652    4.0430   23.0398 C.3     1  UNL1        0.0017
     29 C          -5.3146    3.5373   22.6270 C.3     1  UNL1        0.0196
     30 C          -4.2874    3.2059   23.6686 C.3     1  UNL1        0.0017
@<TRIPOS>BOND
     1    28    29    1
     2    29    30    1
     3    29    27    1
     4    27    23    1
     5    23    24   am
     6    24    25    2
     7    24    17    1
     8    17    18   ar
     9    18    19   ar
    10    19    20   ar
    11    20     1    1
    12     1     2    2
    13     2     3    1
    14     3     4    1
    15     4     5    1
    16     5     6    1
    17     6     7    1
    18     7     8    1
    19     3     9    1
    20     9    10    1
    21    10    11   ar
    22    11    12   ar
    23    12    13   ar
    24    13    14   ar
    25    14    15   ar
    26    20    21   ar
    27    21    22   ar
    28    22    17   ar
    29    15     1    1
    30     8     3    1
    31    15    10   ar
    32    23    26    1
    33     6    16    1
@<TRIPOS>MOLECULE
*****
 30 33 0 0 0
SMALL
GASTEIGER

@<TRIPOS>ATOM
      1 C         -13.9831   -3.6684   19.1749 C.2     1  UNL1        0.0020
      2 C         -12.5307   -4.0307   19.0784 C.2     1  UNL1        0.0130
      3 C         -12.1187   -5.4723   19.0338 C.3     1  UNL1        0.1542
      4 C         -11.0783   -4.3930   18.9820 C.3     1  UNL1        0.0614
      5 C          -9.6260   -4.7553   18.8855 C.3     1  UNL1        0.0725
      6 N          -9.2140   -6.1969   18.8409 N.3     1  UNL1       -0.2972
      7 C         -10.2543   -7.2762   18.8928 C.3     1  UNL1        0.0725
      8 C         -11.7067   -6.9139   18.9892 C.3     1  UNL1        0.0614
      9 O         -13.1591   -6.5516   19.0857 O.3     1  UNL1       -0.4785
     10 C         -14.6115   -6.1893   19.1821 C.ar    1  UNL1        0.1386
     11 C         -15.6519   -7.2686   19.2340 C.ar    1  UNL1        0.0369
     12 C         -17.1043   -6.9063   19.3305 C.ar    1  UNL1        0.0031
     13 C         -17.5163   -5.4647   19.3751 C.ar    1  UNL1        0.0002
     14 C         -16.4759   -4.3854   19.3232 C.ar    1  UNL1        0.0030
     15 C         -15.0235   -4.7477   19.2268 C.ar    1  UNL1        0.0338
     16 H          -8.5912   -6.3499   19.6342 H       1  UNL1        0.1233
     17 C         -15.2192    0.6565   19.3087 C.ar    1  UNL1        0.0534
     18 C         -14.0624    0.2332   18.4528 C.ar    1  UNL1        0.0045
     19 C         -13.6504   -1.2084   18.4082 C.ar    1  UNL1        0.0001
     20 C         -14.3951   -2.2268   19.2195 C.ar    1  UNL1       -0.0001
     21 C         -15.5520   -1.8035   20.0755 C.ar    1  UNL1        0.0001
     22 C         -15.9640   -0.3619   20.1201 C.ar    1  UNL1        0.0045
     23 N         -16.8650    2.5026   20.1043 N.am    1  UNL1       -0.3009
     24 C         -15.6312    2.0981   19.3533 C.2     1  UNL1        0.2458
     25 O         -14.8093    3.1352   18.6469 O.2     1  UNL1       -0.2701
     26 H         -17.4044    1.8219   20.5679 H       1  UNL1        0.1497
     27 C         -17.2770    3.9442   20.1489 C.3     1  UNL1        0.0896
     28 C         -17.5324    6.1337   21.5240 C.3     1  UNL1        0.0017
     29 C         -16.8712    4.8047   21.3087 C.3     1  UNL1        0.0196
     30 C         -15.8043    4.3360   22.2531 C.3     1  UNL1        0.0017
@<TRIPOS>BOND
     1    28    29    1
     2    29    30    1
     3    29    27    1
     4    27    23    1
     5    23    24   am
     6    24    25    2
     7    24    17    1
     8    17    18   ar
     9    18    19   ar
    10    19    20   ar
    11    20     1    1
    12     1     2    2
    13     2     3    1
    14     3     4    1
    15     4     5    1
    16     5     6    1
    17     6     7    1
    18     7     8    1
    19     3     9    1
    20     9    10    1
    21    10    11   ar
    22    11    12   ar
    23    12    13   ar
    24    13    14   ar
    25    14    15   ar
    26    20    21   ar
    27    21    22   ar
    28    22    17   ar
    29    15     1    1
    30     8     3    1
    31    15    10   ar
    32    23    26    1
    33     6    16    1
@<TRIPOS>MOLECULE
*****
 30 33 0 0 0
SMALL
GASTEIGER

@<TRIPOS>ATOM
      1 C           4.0582   -1.3903   22.3020 C.2     1  UNL1        0.0020
      2 C           4.4638   -1.6877   20.8888 C.2     1  UNL1        0.0130
      3 C           3.7417   -1.0344   19.7479 C.3     1  UNL1        0.1542
      4 C           4.8695   -1.9851   19.4757 C.3     1  UNL1        0.0614
      5 C           5.2751   -2.2825   18.0626 C.3     1  UNL1        0.0725
      6 N           4.5529   -1.6292   16.9217 N.3     1  UNL1       -0.2972
      7 C           3.4251   -0.6785   17.1939 C.3     1  UNL1        0.0725
      8 C           3.0195   -0.3811   18.6071 C.3     1  UNL1        0.0614
      9 O           2.6138   -0.0837   20.0202 O.3     1  UNL1       -0.4785
     10 C           2.2082    0.2137   21.4334 C.ar    1  UNL1        0.1386
     11 C           1.0803    1.1644   21.7057 C.ar    1  UNL1        0.0369
     12 C           0.6747    1.4618   23.1188 C.ar    1  UNL1        0.0031
     13 C           1.3969    0.8085   24.2597 C.ar    1  UNL1        0.0002
     14 C           2.5247   -0.1422   23.9875 C.ar    1  UNL1        0.0030
     15 C           2.9304   -0.4396   22.5743 C.ar    1  UNL1        0.0338
     16 H           4.1725   -2.3800   16.3454 H       1  UNL1        0.1233
     17 C           6.2248   -3.3502   25.7247 C.ar    1  UNL1        0.0534
     18 C           6.1434   -4.0399   24.3952 C.ar    1  UNL1        0.0045
     19 C           5.4212   -3.3866   23.2543 C.ar    1  UNL1        0.0001
     20 C           4.7804   -2.0436   23.4429 C.ar    1  UNL1       -0.0001
     21 C           4.8617   -1.3538   24.7725 C.ar    1  UNL1        0.0001
     22 C           5.5839   -2.0071   25.9134 C.ar    1  UNL1        0.0045
     23 N           6.2153   -4.9449   27.7757 N.am    1  UNL1       -0.3009
     24 C           6.9470   -4.0035   26.8656 C.2     1  UNL1        0.2458
     25 O           8.4009   -3.7154   27.0963 O.2     1  UNL1       -0.2701
     26 H           5.2611   -5.1340   27.6243 H       1  UNL1        0.1497
     27 C           6.9375   -5.5982   28.9166 C.3     1  UNL1        0.0896
     28 C           7.1405   -5.8213   31.4972 C.3     1  UNL1        0.0017
     29 C           6.9026   -4.9760   30.2811 C.3     1  UNL1        0.0196
     30 C           6.6298   -3.5085   30.4295 C.3     1  UNL1        0.0017
@<TRIPOS>BOND
     1    28    29    1
     2    29    30    1
     3    29    27    1
     4    27    23    1
     5    23    24   am
     6    24    25    2
     7    24    17    1
     8    17    18   ar
     9    18    19   ar
    10    19    20   ar
    11    20     1    1
    12     1     2    2
    13     2     3    1
    14     3     4    1
    15     4     5    1
    16     5     6    1
    17     6     7    1
    18     7     8    1
    19     3     9    1
    20     9    10    1
    21    10    11   ar
    22    11    12   ar
    23    12    13   ar
    24    13    14   ar
    25    14    15   ar
    26    20    21   ar
    27    21    22   ar
    28    22    17   ar
    29    15     1    1
    30     8     3    1
    31    15    10   ar
    32    23    26    1
    33     6    16    1
