@<TRIPOS>MOLECULE
*****
 33 36 0 0 0
SMALL
GASTEIGER

@<TRIPOS>ATOM
      1 N          -9.2669  -17.0514   22.6612 N.ar    1  UNL1       -0.2874
      2 C         -10.7192  -16.7623   22.4221 C.ar    1  UNL1        0.0858
      3 C         -11.4280  -17.3930   21.2603 C.ar    1  UNL1        0.0705
      4 C         -10.6845  -18.3127   20.3376 C.ar    1  UNL1        0.1996
      5 O         -11.3934  -18.9433   19.1757 O.2     1  UNL1       -0.2864
      6 C          -9.2322  -18.6017   20.5767 C.ar    1  UNL1        0.0583
      7 C          -8.4887  -19.5214   19.6540 C.ar    1  UNL1        0.0356
      8 C          -7.0364  -19.8105   19.8932 C.ar    1  UNL1        0.1543
      9 F          -6.2929  -20.7302   18.9705 F       1  UNL1       -0.2028
     10 C          -6.3275  -19.1798   21.0551 C.ar    1  UNL1        0.0879
     11 C          -7.0710  -18.2601   21.9777 C.ar    1  UNL1        0.0893
     12 CL         -6.3622  -17.6295   23.1395 Cl      1  UNL1       -0.0794
     13 C          -8.5234  -17.9711   21.7385 C.ar    1  UNL1        0.0803
     14 N          -8.3469  -16.7913   27.7687 N.pl3   1  UNL1       -0.3408
     15 C          -8.0981  -16.2907   26.3768 C.ar    1  UNL1        0.1548
     16 N          -8.8069  -16.9214   25.2150 N.ar    1  UNL1       -0.2091
     17 C          -8.5580  -16.4207   23.8231 C.ar    1  UNL1        0.1769
     18 C          -7.6003  -15.2894   23.5930 C.ar    1  UNL1        0.1767
     19 F          -7.3515  -14.7888   22.2010 F       1  UNL1       -0.2009
     20 C          -6.8915  -14.6588   24.7548 C.ar    1  UNL1        0.0652
     21 C          -7.1403  -15.1594   26.1467 C.ar    1  UNL1        0.1734
     22 F          -6.4315  -14.5288   27.3085 F       1  UNL1       -0.2012
     23 H          -8.9755  -17.5338   27.9197 H       1  UNL1        0.1438
     24 H          -7.8817  -16.3774   28.5313 H       1  UNL1        0.1438
     25 N          -4.8752  -19.4689   21.2942 N.pl3   1  UNL1       -0.3004
     26 C          -3.9940  -19.5428   22.5058 C.3     1  UNL1        0.1220
     27 C          -2.8213  -19.8777   21.6324 C.3     1  UNL1        0.1498
     28 O          -1.3689  -20.1668   21.8715 O.3     1  UNL1       -0.3810
     29 C          -3.7026  -19.8038   20.4208 C.3     1  UNL1        0.1220
     30 H          -0.9303  -20.3416   21.0242 H       1  UNL1        0.2105
     31 C         -12.8804  -17.1039   21.0211 C.2     1  UNL1        0.0774
     32 O         -13.2821  -15.9495   20.1517 O.co2   1  UNL1       -0.5444
     33 O         -13.9310  -17.9693   21.6513 O.co2   1  UNL1       -0.5444
@<TRIPOS>UNITY_ATOM_ATTR
32 1
charge -1
@<TRIPOS>BOND
     1    14    15    1
     2    15    16   ar
     3    16    17   ar
     4    17     1    1
     5     1     2   ar
     6     2     3   ar
     7     3    31    1
     8    31    32   ar
     9    31    33   ar
    10     3     4   ar
    11     4     5    2
    12     4     6   ar
    13     6     7   ar
    14     7     8   ar
    15     8     9    1
    16     8    10   ar
    17    10    25    1
    18    25    26    1
    19    26    27    1
    20    27    28    1
    21    27    29    1
    22    10    11   ar
    23    11    12    1
    24    11    13   ar
    25    17    18   ar
    26    18    19    1
    27    18    20   ar
    28    20    21   ar
    29    21    22    1
    30    21    15   ar
    31    13     1   ar
    32    13     6   ar
    33    29    25    1
    34    14    23    1
    35    14    24    1
    36    28    30    1
@<TRIPOS>MOLECULE
*****
 33 36 0 0 0
SMALL
GASTEIGER

@<TRIPOS>ATOM
      1 N           0.9717    2.9332   31.8709 N.ar    1  UNL1       -0.2874
      2 C           0.2556    4.1888   32.2716 C.ar    1  UNL1        0.0858
      3 C           0.5094    4.8000   33.6176 C.ar    1  UNL1        0.0705
      4 C           1.4794    4.1556   34.5631 C.ar    1  UNL1        0.1996
      5 O           1.7332    4.7669   35.9092 O.2     1  UNL1       -0.2864
      6 C           2.1955    2.9000   34.1625 C.ar    1  UNL1        0.0583
      7 C           3.1655    2.2555   35.1079 C.ar    1  UNL1        0.0356
      8 C           3.8816    0.9999   34.7073 C.ar    1  UNL1        0.1543
      9 F           4.8515    0.3555   35.6527 F       1  UNL1       -0.2028
     10 C           3.6277    0.3887   33.3612 C.ar    1  UNL1        0.0879
     11 C           2.6578    1.0331   32.4157 C.ar    1  UNL1        0.0893
     12 CL          2.4039    0.4219   31.0696 Cl      1  UNL1       -0.0794
     13 C           1.9416    2.2888   32.8164 C.ar    1  UNL1        0.0803
     14 N          -1.5661   -0.4783   28.8839 N.pl3   1  UNL1       -0.3408
     15 C          -0.5510    0.6162   29.0313 C.ar    1  UNL1        0.1548
     16 N          -0.2972    1.2275   30.3774 N.ar    1  UNL1       -0.2091
     17 C           0.7178    2.3220   30.5248 C.ar    1  UNL1        0.1769
     18 C           1.4791    2.8052   29.3261 C.ar    1  UNL1        0.1767
     19 F           2.4942    3.8998   29.4735 F       1  UNL1       -0.2009
     20 C           1.2253    2.1940   27.9800 C.ar    1  UNL1        0.0652
     21 C           0.2102    1.0995   27.8326 C.ar    1  UNL1        0.1734
     22 F          -0.0436    0.4883   26.4865 F       1  UNL1       -0.2012
     23 H          -2.0657   -0.7954   29.6707 H       1  UNL1        0.1438
     24 H          -1.7327   -0.8794   28.0005 H       1  UNL1        0.1438
     25 N           4.3439   -0.8670   32.9605 N.pl3   1  UNL1       -0.3004
     26 C           5.4176   -1.2054   31.9692 C.3     1  UNL1        0.1220
     27 C           5.3566   -2.6427   32.3939 C.3     1  UNL1        0.1498
     28 O           6.0727   -3.8984   31.9933 O.3     1  UNL1       -0.3810
     29 C           4.2829   -2.3043   33.3852 C.3     1  UNL1        0.1220
     30 H           5.7379   -4.6428   32.5174 H       1  UNL1        0.2105
     31 C          -0.2067    6.0557   34.0183 C.2     1  UNL1        0.0774
     32 O           0.5766    7.2795   34.3909 O.co2   1  UNL1       -0.5444
     33 O          -1.7061    6.0876   34.0464 O.co2   1  UNL1       -0.5444
@<TRIPOS>UNITY_ATOM_ATTR
32 1
charge -1
@<TRIPOS>BOND
     1    14    15    1
     2    15    16   ar
     3    16    17   ar
     4    17     1    1
     5     1     2   ar
     6     2     3   ar
     7     3    31    1
     8    31    32   ar
     9    31    33   ar
    10     3     4   ar
    11     4     5    2
    12     4     6   ar
    13     6     7   ar
    14     7     8   ar
    15     8     9    1
    16     8    10   ar
    17    10    25    1
    18    25    26    1
    19    26    27    1
    20    27    28    1
    21    27    29    1
    22    10    11   ar
    23    11    12    1
    24    11    13   ar
    25    17    18   ar
    26    18    19    1
    27    18    20   ar
    28    20    21   ar
    29    21    22    1
    30    21    15   ar
    31    13     1   ar
    32    13     6   ar
    33    29    25    1
    34    14    23    1
    35    14    24    1
    36    28    30    1
@<TRIPOS>MOLECULE
*****
 33 36 0 0 0
SMALL
GASTEIGER

@<TRIPOS>ATOM
      1 N           4.7254    0.0080   34.0704 N.ar    1  UNL1       -0.2874
      2 C           4.9878    0.2351   35.5296 C.ar    1  UNL1        0.0858
      3 C           4.1416    1.2033   36.3020 C.ar    1  UNL1        0.0705
      4 C           3.0330    1.9443   35.6150 C.ar    1  UNL1        0.1996
      5 O           2.1867    2.9124   36.3875 O.2     1  UNL1       -0.2864
      6 C           2.7706    1.7171   34.1558 C.ar    1  UNL1        0.0583
      7 C           1.6619    2.4581   33.4688 C.ar    1  UNL1        0.0356
      8 C           1.3995    2.2310   32.0096 C.ar    1  UNL1        0.1543
      9 F           0.2909    2.9720   31.3226 F       1  UNL1       -0.2028
     10 C           2.2458    1.2628   31.2372 C.ar    1  UNL1        0.0879
     11 C           3.3544    0.5218   31.9241 C.ar    1  UNL1        0.0893
     12 CL          4.2007   -0.4463   31.1517 Cl      1  UNL1       -0.0794
     13 C           3.6168    0.7490   33.3834 C.ar    1  UNL1        0.0803
     14 N           8.9028   -0.9756   31.1408 N.pl3   1  UNL1       -0.3408
     15 C           7.6604   -1.4520   31.8332 C.ar    1  UNL1        0.1548
     16 N           6.8141   -0.4838   32.6056 N.ar    1  UNL1       -0.2091
     17 C           5.5717   -0.9602   33.2979 C.ar    1  UNL1        0.1769
     18 C           5.1754   -2.4047   33.2179 C.ar    1  UNL1        0.1767
     19 F           3.9329   -2.8810   33.9103 F       1  UNL1       -0.2009
     20 C           6.0216   -3.3728   32.4455 C.ar    1  UNL1        0.0652
     21 C           7.2642   -2.8965   31.7531 C.ar    1  UNL1        0.1734
     22 F           8.1103   -3.8646   30.9808 F       1  UNL1       -0.2012
     23 H           9.1629   -0.0276   31.1934 H       1  UNL1        0.1438
     24 H           9.4583   -1.6111   30.6339 H       1  UNL1        0.1438
     25 N           1.9834    1.0357   29.7779 N.pl3   1  UNL1       -0.3004
     26 C           1.2819   -0.0220   28.9784 C.3     1  UNL1        0.1220
     27 C           1.6123    0.7144   27.7141 C.3     1  UNL1        0.1498
     28 O           1.3499    0.4873   26.2548 O.3     1  UNL1       -0.3810
     29 C           2.3139    1.7721   28.5136 C.3     1  UNL1        0.1220
     30 H           1.7383    1.2119   25.7398 H       1  UNL1        0.2105
     31 C           4.4040    1.4304   37.7613 C.2     1  UNL1        0.0774
     32 O           3.4076    0.9690   38.7832 O.co2   1  UNL1       -0.5444
     33 O           5.6627    2.1190   38.1987 O.co2   1  UNL1       -0.5444
@<TRIPOS>UNITY_ATOM_ATTR
32 1
charge -1
@<TRIPOS>BOND
     1    14    15    1
     2    15    16   ar
     3    16    17   ar
     4    17     1    1
     5     1     2   ar
     6     2     3   ar
     7     3    31    1
     8    31    32   ar
     9    31    33   ar
    10     3     4   ar
    11     4     5    2
    12     4     6   ar
    13     6     7   ar
    14     7     8   ar
    15     8     9    1
    16     8    10   ar
    17    10    25    1
    18    25    26    1
    19    26    27    1
    20    27    28    1
    21    27    29    1
    22    10    11   ar
    23    11    12    1
    24    11    13   ar
    25    17    18   ar
    26    18    19    1
    27    18    20   ar
    28    20    21   ar
    29    21    22    1
    30    21    15   ar
    31    13     1   ar
    32    13     6   ar
    33    29    25    1
    34    14    23    1
    35    14    24    1
    36    28    30    1
@<TRIPOS>MOLECULE
*****
 33 36 0 0 0
SMALL
GASTEIGER

@<TRIPOS>ATOM
      1 N           3.9694   -0.4327   31.5340 N.ar    1  UNL1       -0.2874
      2 C           3.0737   -0.5630   30.3379 C.ar    1  UNL1        0.0858
      3 C           1.8227    0.2594   30.2447 C.ar    1  UNL1        0.0705
      4 C           1.4675    1.2120   31.3475 C.ar    1  UNL1        0.1996
      5 O           0.2165    2.0345   31.2543 O.2     1  UNL1       -0.2864
      6 C           2.3632    1.3423   32.5436 C.ar    1  UNL1        0.0583
      7 C           2.0080    2.2949   33.6465 C.ar    1  UNL1        0.0356
      8 C           2.9038    2.4251   34.8426 C.ar    1  UNL1        0.1543
      9 F           2.5485    3.3778   35.9454 F       1  UNL1       -0.2028
     10 C           4.1548    1.6027   34.9358 C.ar    1  UNL1        0.0879
     11 C           4.5100    0.6501   33.8330 C.ar    1  UNL1        0.0893
     12 CL          5.7610   -0.1723   33.9262 Cl      1  UNL1       -0.0794
     13 C           3.6142    0.5199   32.6368 C.ar    1  UNL1        0.0803
     14 N           6.3327   -4.9154   32.6834 N.pl3   1  UNL1       -0.3408
     15 C           6.4021   -3.4965   32.2019 C.ar    1  UNL1        0.1548
     16 N           5.1511   -2.6741   32.1087 N.ar    1  UNL1       -0.2091
     17 C           5.2204   -1.2552   31.6272 C.ar    1  UNL1        0.1769
     18 C           6.5408   -0.6586   31.2390 C.ar    1  UNL1        0.1767
     19 F           6.6102    0.7604   30.7575 F       1  UNL1       -0.2009
     20 C           7.7918   -1.4809   31.3322 C.ar    1  UNL1        0.0652
     21 C           7.7225   -2.8999   31.8137 C.ar    1  UNL1        0.1734
     22 F           8.9735   -3.7223   31.9069 F       1  UNL1       -0.2012
     23 H           5.4661   -5.3069   32.9382 H       1  UNL1        0.1438
     24 H           7.1538   -5.4551   32.7446 H       1  UNL1        0.1438
     25 N           5.0505    1.7329   36.1319 N.pl3   1  UNL1       -0.3004
     26 C           4.9915    1.2681   37.5568 C.3     1  UNL1        0.1220
     27 C           6.3173    1.9171   37.8235 C.3     1  UNL1        0.1498
     28 O           7.2131    2.0474   39.0196 O.3     1  UNL1       -0.3810
     29 C           6.3763    2.3820   36.3985 C.3     1  UNL1        0.1220
     30 H           8.0032    2.5557   38.7780 H       1  UNL1        0.2105
     31 C           0.9269    0.1292   29.0486 C.2     1  UNL1        0.0774
     32 O           1.3719    0.6577   27.7172 O.co2   1  UNL1       -0.5444
     33 O          -0.4139   -0.5295   29.1839 O.co2   1  UNL1       -0.5444
@<TRIPOS>UNITY_ATOM_ATTR
32 1
charge -1
@<TRIPOS>BOND
     1    14    15    1
     2    15    16   ar
     3    16    17   ar
     4    17     1    1
     5     1     2   ar
     6     2     3   ar
     7     3    31    1
     8    31    32   ar
     9    31    33   ar
    10     3     4   ar
    11     4     5    2
    12     4     6   ar
    13     6     7   ar
    14     7     8   ar
    15     8     9    1
    16     8    10   ar
    17    10    25    1
    18    25    26    1
    19    26    27    1
    20    27    28    1
    21    27    29    1
    22    10    11   ar
    23    11    12    1
    24    11    13   ar
    25    17    18   ar
    26    18    19    1
    27    18    20   ar
    28    20    21   ar
    29    21    22    1
    30    21    15   ar
    31    13     1   ar
    32    13     6   ar
    33    29    25    1
    34    14    23    1
    35    14    24    1
    36    28    30    1
@<TRIPOS>MOLECULE
*****
 33 36 0 0 0
SMALL
GASTEIGER

@<TRIPOS>ATOM
      1 N          -8.5567  -17.1806   23.8186 N.ar    1  UNL1       -0.2874
      2 C          -8.0069  -16.3175   24.9153 C.ar    1  UNL1        0.0858
      3 C          -6.5302  -16.0706   25.0063 C.ar    1  UNL1        0.0705
      4 C          -5.6033  -16.6869   24.0007 C.ar    1  UNL1        0.1996
      5 O          -4.1265  -16.4399   24.0918 O.2     1  UNL1       -0.2864
      6 C          -6.1532  -17.5500   22.9041 C.ar    1  UNL1        0.0583
      7 C          -5.2263  -18.1662   21.8985 C.ar    1  UNL1        0.0356
      8 C          -5.7762  -19.0293   20.8018 C.ar    1  UNL1        0.1543
      9 F          -4.8494  -19.6456   19.7963 F       1  UNL1       -0.2028
     10 C          -7.2530  -19.2763   20.7108 C.ar    1  UNL1        0.0879
     11 C          -8.1798  -18.6600   21.7164 C.ar    1  UNL1        0.0893
     12 CL         -9.6565  -18.9069   21.6253 Cl      1  UNL1       -0.0794
     13 C          -7.6299  -17.7969   22.8130 C.ar    1  UNL1        0.0803
     14 N         -13.1861  -16.0648   21.7390 N.pl3   1  UNL1       -0.3408
     15 C         -12.3482  -16.8696   22.6878 C.ar    1  UNL1        0.1548
     16 N         -10.8714  -16.6227   22.7788 N.ar    1  UNL1       -0.2091
     17 C         -10.0335  -17.4276   23.7276 C.ar    1  UNL1        0.1769
     18 C         -10.6723  -18.4794   24.5853 C.ar    1  UNL1        0.1767
     19 F          -9.8344  -19.2842   25.5340 F       1  UNL1       -0.2009
     20 C         -12.1490  -18.7263   24.4942 C.ar    1  UNL1        0.0652
     21 C         -12.9870  -17.9214   23.5454 C.ar    1  UNL1        0.1734
     22 F         -14.4637  -18.1684   23.4544 F       1  UNL1       -0.2012
     23 H         -12.7668  -15.3745   21.1761 H       1  UNL1        0.1438
     24 H         -14.1553  -16.2269   21.6793 H       1  UNL1        0.1438
     25 N          -7.8028  -20.1394   19.6141 N.pl3   1  UNL1       -0.3004
     26 C          -7.4456  -21.4770   19.0370 C.3     1  UNL1        0.1220
     27 C          -8.5805  -21.3600   18.0632 C.3     1  UNL1        0.1498
     28 O          -9.1304  -22.2232   16.9665 O.3     1  UNL1       -0.3810
     29 C          -8.9378  -20.0224   18.6403 C.3     1  UNL1        0.1220
     30 H          -9.8922  -21.7821   16.5592 H       1  UNL1        0.2105
     31 C          -5.9802  -15.2075   26.1030 C.2     1  UNL1        0.0774
     32 O          -6.6015  -15.2423   27.4678 O.co2   1  UNL1       -0.5444
     33 O          -4.8090  -14.3095   25.8347 O.co2   1  UNL1       -0.5444
@<TRIPOS>UNITY_ATOM_ATTR
32 1
charge -1
@<TRIPOS>BOND
     1    14    15    1
     2    15    16   ar
     3    16    17   ar
     4    17     1    1
     5     1     2   ar
     6     2     3   ar
     7     3    31    1
     8    31    32   ar
     9    31    33   ar
    10     3     4   ar
    11     4     5    2
    12     4     6   ar
    13     6     7   ar
    14     7     8   ar
    15     8     9    1
    16     8    10   ar
    17    10    25    1
    18    25    26    1
    19    26    27    1
    20    27    28    1
    21    27    29    1
    22    10    11   ar
    23    11    12    1
    24    11    13   ar
    25    17    18   ar
    26    18    19    1
    27    18    20   ar
    28    20    21   ar
    29    21    22    1
    30    21    15   ar
    31    13     1   ar
    32    13     6   ar
    33    29    25    1
    34    14    23    1
    35    14    24    1
    36    28    30    1
@<TRIPOS>MOLECULE
*****
 33 36 0 0 0
SMALL
GASTEIGER

@<TRIPOS>ATOM
      1 N          -6.6621  -19.2037   20.4214 N.ar    1  UNL1       -0.2874
      2 C          -7.2076  -20.0139   19.2830 C.ar    1  UNL1        0.0858
      3 C          -8.6902  -20.1287   19.0871 C.ar    1  UNL1        0.0705
      4 C          -9.6274  -19.4333   20.0294 C.ar    1  UNL1        0.1996
      5 O         -11.1102  -19.5482   19.8334 O.2     1  UNL1       -0.2864
      6 C          -9.0819  -18.6231   21.1678 C.ar    1  UNL1        0.0583
      7 C         -10.0191  -17.9277   22.1102 C.ar    1  UNL1        0.0356
      8 C          -9.4736  -17.1174   23.2485 C.ar    1  UNL1        0.1543
      9 F         -10.4108  -16.4220   24.1909 F       1  UNL1       -0.2028
     10 C          -7.9909  -17.0026   23.4446 C.ar    1  UNL1        0.0879
     11 C          -7.0537  -17.6980   22.5022 C.ar    1  UNL1        0.0893
     12 CL         -5.5710  -17.5832   22.6982 Cl      1  UNL1       -0.0794
     13 C          -7.5993  -18.5083   21.3638 C.ar    1  UNL1        0.0803
     14 N          -2.0574  -17.3187   18.9234 N.pl3   1  UNL1       -0.3408
     15 C          -2.8770  -18.1463   19.8684 C.ar    1  UNL1        0.1548
     16 N          -4.3597  -18.2612   19.6724 N.ar    1  UNL1       -0.2091
     17 C          -5.1793  -19.0888   20.6175 C.ar    1  UNL1        0.1769
     18 C          -4.5163  -19.8017   21.7586 C.ar    1  UNL1        0.1767
     19 F          -5.3360  -20.6294   22.7037 F       1  UNL1       -0.2009
     20 C          -3.0336  -19.6869   21.9547 C.ar    1  UNL1        0.0652
     21 C          -2.2139  -18.8592   21.0096 C.ar    1  UNL1        0.1734
     22 F          -0.7313  -18.7444   21.2056 F       1  UNL1       -0.2012
     23 H          -2.4926  -16.8508   18.1744 H       1  UNL1        0.1438
     24 H          -1.0843  -17.2433   19.0520 H       1  UNL1        0.1438
     25 N          -7.4454  -16.1924   24.5829 N.pl3   1  UNL1       -0.3004
     26 C          -6.3968  -15.1287   24.7210 C.3     1  UNL1        0.1220
     27 C          -6.6740  -15.0465   26.1929 C.3     1  UNL1        0.1498
     28 O          -6.1285  -14.2362   27.3313 O.3     1  UNL1       -0.3810
     29 C          -7.7226  -16.1101   26.0548 C.3     1  UNL1        0.1220
     30 H          -6.5825  -14.4847   28.1517 H       1  UNL1        0.2105
     31 C          -9.2358  -20.9390   17.9486 C.2     1  UNL1        0.0774
     32 O         -10.3601  -20.3995   17.1152 O.co2   1  UNL1       -0.5444
     33 O          -8.6569  -22.2888   17.6437 O.co2   1  UNL1       -0.5444
@<TRIPOS>UNITY_ATOM_ATTR
32 1
charge -1
@<TRIPOS>BOND
     1    14    15    1
     2    15    16   ar
     3    16    17   ar
     4    17     1    1
     5     1     2   ar
     6     2     3   ar
     7     3    31    1
     8    31    32   ar
     9    31    33   ar
    10     3     4   ar
    11     4     5    2
    12     4     6   ar
    13     6     7   ar
    14     7     8   ar
    15     8     9    1
    16     8    10   ar
    17    10    25    1
    18    25    26    1
    19    26    27    1
    20    27    28    1
    21    27    29    1
    22    10    11   ar
    23    11    12    1
    24    11    13   ar
    25    17    18   ar
    26    18    19    1
    27    18    20   ar
    28    20    21   ar
    29    21    22    1
    30    21    15   ar
    31    13     1   ar
    32    13     6   ar
    33    29    25    1
    34    14    23    1
    35    14    24    1
    36    28    30    1
@<TRIPOS>MOLECULE
*****
 33 36 0 0 0
SMALL
GASTEIGER

@<TRIPOS>ATOM
      1 N           2.4664    0.6985   31.4265 N.ar    1  UNL1       -0.2874
      2 C           3.4307   -0.4130   31.7171 C.ar    1  UNL1        0.0858
      3 C           4.1298   -0.4718   33.0429 C.ar    1  UNL1        0.0705
      4 C           3.8647    0.5809   34.0780 C.ar    1  UNL1        0.1996
      5 O           4.5639    0.5220   35.4038 O.2     1  UNL1       -0.2864
      6 C           2.9004    1.6925   33.7873 C.ar    1  UNL1        0.0583
      7 C           2.6353    2.7452   34.8224 C.ar    1  UNL1        0.0356
      8 C           1.6710    3.8568   34.5318 C.ar    1  UNL1        0.1543
      9 F           1.4059    4.9095   35.5669 F       1  UNL1       -0.2028
     10 C           0.9718    3.9157   33.2060 C.ar    1  UNL1        0.0879
     11 C           1.2369    2.8629   32.1709 C.ar    1  UNL1        0.0893
     12 CL          0.5378    2.9217   30.8451 Cl      1  UNL1       -0.0794
     13 C           2.2013    1.7513   32.4616 C.ar    1  UNL1        0.0803
     14 N          -1.4022   -0.8207   28.3078 N.pl3   1  UNL1       -0.3408
     15 C          -0.1672   -0.0022   28.5413 C.ar    1  UNL1        0.1548
     16 N           0.5321   -0.0611   29.8671 N.ar    1  UNL1       -0.2091
     17 C           1.7672    0.7574   30.1007 C.ar    1  UNL1        0.1769
     18 C           2.3031    1.6348   29.0084 C.ar    1  UNL1        0.1767
     19 F           3.5382    2.4533   29.2420 F       1  UNL1       -0.2009
     20 C           1.6039    1.6937   27.6827 C.ar    1  UNL1        0.0652
     21 C           0.3688    0.8752   27.4491 C.ar    1  UNL1        0.1734
     22 F          -0.3304    0.9341   26.1233 F       1  UNL1       -0.2012
     23 H          -1.7540   -1.3966   29.0247 H       1  UNL1        0.1438
     24 H          -1.8611   -0.7821   27.4377 H       1  UNL1        0.1438
     25 N           0.0075    5.0272   32.9153 N.pl3   1  UNL1       -0.3004
     26 C          -0.0421    6.1580   31.9311 C.3     1  UNL1        0.1220
     27 C          -1.3562    6.5993   32.5043 C.3     1  UNL1        0.1498
     28 O          -2.3206    7.7109   32.2136 O.3     1  UNL1       -0.3810
     29 C          -1.3065    5.4684   33.4885 C.3     1  UNL1        0.1220
     30 H          -3.0735    7.6532   32.8225 H       1  UNL1        0.2105
     31 C           5.0942   -1.5835   33.3336 C.2     1  UNL1        0.0774
     32 O           6.5665   -1.3030   33.3917 O.co2   1  UNL1       -0.5444
     33 O           4.5861   -2.9755   33.5661 O.co2   1  UNL1       -0.5444
@<TRIPOS>UNITY_ATOM_ATTR
32 1
charge -1
@<TRIPOS>BOND
     1    14    15    1
     2    15    16   ar
     3    16    17   ar
     4    17     1    1
     5     1     2   ar
     6     2     3   ar
     7     3    31    1
     8    31    32   ar
     9    31    33   ar
    10     3     4   ar
    11     4     5    2
    12     4     6   ar
    13     6     7   ar
    14     7     8   ar
    15     8     9    1
    16     8    10   ar
    17    10    25    1
    18    25    26    1
    19    26    27    1
    20    27    28    1
    21    27    29    1
    22    10    11   ar
    23    11    12    1
    24    11    13   ar
    25    17    18   ar
    26    18    19    1
    27    18    20   ar
    28    20    21   ar
    29    21    22    1
    30    21    15   ar
    31    13     1   ar
    32    13     6   ar
    33    29    25    1
    34    14    23    1
    35    14    24    1
    36    28    30    1
@<TRIPOS>MOLECULE
*****
 33 36 0 0 0
SMALL
GASTEIGER

@<TRIPOS>ATOM
      1 N          -8.9401  -17.1886   23.3594 N.ar    1  UNL1       -0.2874
      2 C         -10.4206  -17.0811   23.1441 C.ar    1  UNL1        0.0858
      3 C         -11.0383  -17.6305   21.8924 C.ar    1  UNL1        0.0705
      4 C         -10.1754  -18.2874   20.8561 C.ar    1  UNL1        0.1996
      5 O         -10.7931  -18.8368   19.6044 O.2     1  UNL1       -0.2864
      6 C          -8.6949  -18.3949   21.0715 C.ar    1  UNL1        0.0583
      7 C          -7.8320  -19.0518   20.0352 C.ar    1  UNL1        0.0356
      8 C          -6.3515  -19.1593   20.2505 C.ar    1  UNL1        0.1543
      9 F          -5.4886  -19.8162   19.2142 F       1  UNL1       -0.2028
     10 C          -5.7337  -18.6099   21.5022 C.ar    1  UNL1        0.0879
     11 C          -6.5966  -17.9530   22.5385 C.ar    1  UNL1        0.0893
     12 CL         -5.9790  -17.4037   23.7901 Cl      1  UNL1       -0.0794
     13 C          -8.0772  -17.8455   22.3231 C.ar    1  UNL1        0.0803
     14 N          -5.5026  -14.0605   25.6830 N.pl3   1  UNL1       -0.3408
     15 C          -6.6037  -15.0752   25.7729 C.ar    1  UNL1        0.1548
     16 N          -7.2214  -15.6246   24.5212 N.ar    1  UNL1       -0.2091
     17 C          -8.3224  -16.6393   24.6111 C.ar    1  UNL1        0.1769
     18 C          -8.8057  -17.1046   25.9527 C.ar    1  UNL1        0.1767
     19 F          -9.9068  -18.1194   26.0426 F       1  UNL1       -0.2009
     20 C          -8.1881  -16.5553   27.2043 C.ar    1  UNL1        0.0652
     21 C          -7.0870  -15.5405   27.1145 C.ar    1  UNL1        0.1734
     22 F          -6.4694  -14.9912   28.3661 F       1  UNL1       -0.2012
     23 H          -5.1854  -13.7551   24.8025 H       1  UNL1        0.1438
     24 H          -5.0972  -13.6999   26.5045 H       1  UNL1        0.1438
     25 N          -4.2532  -18.7174   21.7175 N.pl3   1  UNL1       -0.3004
     26 C          -3.2554  -19.8370   21.6865 C.3     1  UNL1        0.1220
     27 C          -2.1594  -18.8695   22.0221 C.3     1  UNL1        0.1498
     28 O          -0.6787  -18.9770   22.2374 O.3     1  UNL1       -0.3810
     29 C          -3.1572  -17.7499   22.0531 C.3     1  UNL1        0.1220
     30 H          -0.3173  -18.1004   22.4419 H       1  UNL1        0.2105
     31 C         -12.5189  -17.5230   21.6770 C.2     1  UNL1        0.0774
     32 O         -13.0523  -16.7574   20.5026 O.co2   1  UNL1       -0.5444
     33 O         -13.4660  -18.1812   22.6361 O.co2   1  UNL1       -0.5444
@<TRIPOS>UNITY_ATOM_ATTR
32 1
charge -1
@<TRIPOS>BOND
     1    14    15    1
     2    15    16   ar
     3    16    17   ar
     4    17     1    1
     5     1     2   ar
     6     2     3   ar
     7     3    31    1
     8    31    32   ar
     9    31    33   ar
    10     3     4   ar
    11     4     5    2
    12     4     6   ar
    13     6     7   ar
    14     7     8   ar
    15     8     9    1
    16     8    10   ar
    17    10    25    1
    18    25    26    1
    19    26    27    1
    20    27    28    1
    21    27    29    1
    22    10    11   ar
    23    11    12    1
    24    11    13   ar
    25    17    18   ar
    26    18    19    1
    27    18    20   ar
    28    20    21   ar
    29    21    22    1
    30    21    15   ar
    31    13     1   ar
    32    13     6   ar
    33    29    25    1
    34    14    23    1
    35    14    24    1
    36    28    30    1
@<TRIPOS>MOLECULE
*****
 33 36 0 0 0
SMALL
GASTEIGER

@<TRIPOS>ATOM
      1 N          -3.4522    3.9077   21.3193 N.ar    1  UNL1       -0.2874
      2 C          -4.5512    4.1086   20.3184 C.ar    1  UNL1        0.0858
      3 C          -5.9603    4.3245   20.7849 C.ar    1  UNL1        0.0705
      4 C          -6.2704    4.3396   22.2524 C.ar    1  UNL1        0.1996
      5 O          -7.6796    4.5556   22.7190 O.2     1  UNL1       -0.2864
      6 C          -5.1715    4.1388   23.2534 C.ar    1  UNL1        0.0583
      7 C          -5.4816    4.1538   24.7209 C.ar    1  UNL1        0.0356
      8 C          -4.3827    3.9530   25.7218 C.ar    1  UNL1        0.1543
      9 F          -4.6928    3.9681   27.1893 F       1  UNL1       -0.2028
     10 C          -2.9735    3.7370   25.2553 C.ar    1  UNL1        0.0879
     11 C          -2.6633    3.7219   23.7878 C.ar    1  UNL1        0.0893
     12 CL         -1.2542    3.5059   23.3212 Cl      1  UNL1       -0.0794
     13 C          -3.7624    3.9228   22.7868 C.ar    1  UNL1        0.0803
     14 N           0.4040    0.6893   19.9881 N.pl3   1  UNL1       -0.3408
     15 C          -0.1149    2.0825   20.1872 C.ar    1  UNL1        0.1548
     16 N          -1.5241    2.2985   20.6537 N.ar    1  UNL1       -0.2091
     17 C          -2.0430    3.6917   20.8527 C.ar    1  UNL1        0.1769
     18 C          -1.1528    4.8690   20.5852 C.ar    1  UNL1        0.1767
     19 F          -1.6718    6.2622   20.7843 F       1  UNL1       -0.2009
     20 C           0.2563    4.6531   20.1187 C.ar    1  UNL1        0.0652
     21 C           0.7753    3.2598   19.9196 C.ar    1  UNL1        0.1734
     22 F           2.1844    3.0439   19.4531 F       1  UNL1       -0.2012
     23 H          -0.1803   -0.0834   20.1637 H       1  UNL1        0.1438
     24 H           1.3289    0.5476   19.6819 H       1  UNL1        0.1438
     25 N          -1.8745    3.5361   26.2562 N.pl3   1  UNL1       -0.3004
     26 C          -1.2052    2.3430   26.8713 C.3     1  UNL1        0.1220
     27 C          -0.3204    3.2520   27.6717 C.3     1  UNL1        0.1498
     28 O           0.7787    3.0512   28.6727 O.3     1  UNL1       -0.3810
     29 C          -0.9897    4.4452   27.0567 C.3     1  UNL1        0.1220
     30 H           1.1084    3.9142   28.9684 H       1  UNL1        0.2105
     31 C          -7.0593    4.5254   19.7840 C.2     1  UNL1        0.0774
     32 O          -7.9815    5.7018   19.9087 O.co2   1  UNL1       -0.5444
     33 O          -7.2361    3.5499   18.6583 O.co2   1  UNL1       -0.5444
@<TRIPOS>UNITY_ATOM_ATTR
32 1
charge -1
@<TRIPOS>BOND
     1    14    15    1
     2    15    16   ar
     3    16    17   ar
     4    17     1    1
     5     1     2   ar
     6     2     3   ar
     7     3    31    1
     8    31    32   ar
     9    31    33   ar
    10     3     4   ar
    11     4     5    2
    12     4     6   ar
    13     6     7   ar
    14     7     8   ar
    15     8     9    1
    16     8    10   ar
    17    10    25    1
    18    25    26    1
    19    26    27    1
    20    27    28    1
    21    27    29    1
    22    10    11   ar
    23    11    12    1
    24    11    13   ar
    25    17    18   ar
    26    18    19    1
    27    18    20   ar
    28    20    21   ar
    29    21    22    1
    30    21    15   ar
    31    13     1   ar
    32    13     6   ar
    33    29    25    1
    34    14    23    1
    35    14    24    1
    36    28    30    1
