@<TRIPOS>MOLECULE
*****
 24 26 0 0 0
SMALL
GASTEIGER

@<TRIPOS>ATOM
      1 C          -7.9393  -18.0278   21.6336 C.3     1  UNL1        0.1471
      2 O          -6.6449  -17.3709   22.0117 O.3     1  UNL1       -0.3812
      3 C          -9.0478  -18.9024   21.1273 C.3     1  UNL1        0.0584
      4 C         -10.3515  -18.2646   21.5065 C.ar    1  UNL1       -0.0202
      5 C         -11.7751  -18.6752   21.2731 C.ar    1  UNL1       -0.0044
      6 C         -12.8960  -17.8170   21.7802 C.ar    1  UNL1       -0.0003
      7 C         -12.5931  -16.5482   22.5208 C.ar    1  UNL1       -0.0002
      8 C         -11.1695  -16.1376   22.7543 C.ar    1  UNL1       -0.0011
      9 C         -10.0486  -16.9958   22.2471 C.ar    1  UNL1        0.0157
     10 C          -8.5579  -16.8495   22.3256 C.3     1  UNL1        0.2136
     11 H          -5.9038  -17.9095   21.6932 H       1  UNL1        0.2105
     12 C          -7.0502  -19.0688   21.0206 C.3     1  UNL1        0.1001
     13 N          -6.1815  -18.7178   19.8492 N.3     1  UNL1       -0.2954
     14 H          -6.6194  -19.1281   19.0244 H       1  UNL1        0.1233
     15 C          -4.3715  -20.5573   20.1493 C.3     1  UNL1        0.0185
     16 C          -4.7420  -19.1392   19.8300 C.3     1  UNL1        0.0687
     17 O          -7.8159  -15.7227   22.9812 O.3     1  UNL1       -0.4726
     18 C          -7.5346  -15.7663   24.4540 C.ar    1  UNL1        0.1349
     19 C          -8.6458  -16.0467   25.4218 C.ar    1  UNL1        0.0366
     20 C          -8.3646  -16.0904   26.8945 C.ar    1  UNL1        0.0031
     21 C          -6.9722  -15.8535   27.3995 C.ar    1  UNL1       -0.0001
     22 C          -5.8610  -15.5730   26.4317 C.ar    1  UNL1       -0.0013
     23 C          -6.1422  -15.5294   24.9590 C.ar    1  UNL1        0.0121
     24 C          -5.0310  -15.2489   23.9912 C.3     1  UNL1        0.0342
@<TRIPOS>BOND
     1    15    16    1
     2    16    13    1
     3    13    12    1
     4    12     1    1
     5     1     2    1
     6     1     3    1
     7     3     4    1
     8     4     5   ar
     9     5     6   ar
    10     6     7   ar
    11     7     8   ar
    12     8     9   ar
    13     9    10    1
    14    10    17    1
    15    17    18    1
    16    18    19   ar
    17    19    20   ar
    18    20    21   ar
    19    21    22   ar
    20    22    23   ar
    21    23    24    1
    22    10     1    1
    23    23    18   ar
    24     9     4   ar
    25    13    14    1
    26     2    11    1
@<TRIPOS>MOLECULE
*****
 24 26 0 0 0
SMALL
GASTEIGER

@<TRIPOS>ATOM
      1 C          -9.6749  -17.0361   21.6546 C.3     1  UNL1        0.1471
      2 O         -10.0593  -15.6904   22.1942 O.3     1  UNL1       -0.3812
      3 C          -9.5848  -18.3862   21.0071 C.3     1  UNL1        0.0584
      4 C          -8.2013  -18.9187   21.2360 C.ar    1  UNL1       -0.0202
      5 C          -7.5394  -20.2014   20.8279 C.ar    1  UNL1       -0.0044
      6 C          -6.1124  -20.4631   21.2089 C.ar    1  UNL1       -0.0003
      7 C          -5.3474  -19.4422   21.9979 C.ar    1  UNL1       -0.0002
      8 C          -6.0094  -18.1596   22.4060 C.ar    1  UNL1       -0.0011
      9 C          -7.4364  -17.8979   22.0250 C.ar    1  UNL1        0.0157
     10 C          -8.3471  -16.7344   22.2837 C.3     1  UNL1        0.2136
     11 H         -10.9808  -15.4991   21.9594 H       1  UNL1        0.2105
     12 C         -11.0831  -17.0566   21.1383 C.3     1  UNL1        0.1001
     13 N         -12.0642  -18.0564   21.6748 N.3     1  UNL1       -0.2954
     14 H         -12.8774  -18.0302   21.0597 H       1  UNL1        0.1233
     15 C         -11.8188  -18.5405   24.2155 C.3     1  UNL1        0.0185
     16 C         -12.5780  -17.9245   23.0778 C.3     1  UNL1        0.0687
     17 O          -7.9922  -15.4879   23.0390 O.3     1  UNL1       -0.4726
     18 C          -7.6121  -15.5713   24.4877 C.ar    1  UNL1        0.1349
     19 C          -8.6680  -15.8009   25.5281 C.ar    1  UNL1        0.0366
     20 C          -8.2880  -15.8844   26.9767 C.ar    1  UNL1        0.0031
     21 C          -6.8520  -15.7382   27.3850 C.ar    1  UNL1       -0.0001
     22 C          -5.7961  -15.5086   26.3446 C.ar    1  UNL1       -0.0013
     23 C          -6.1761  -15.4252   24.8960 C.ar    1  UNL1        0.0121
     24 C          -5.1203  -15.1956   23.8556 C.3     1  UNL1        0.0342
@<TRIPOS>BOND
     1    15    16    1
     2    16    13    1
     3    13    12    1
     4    12     1    1
     5     1     2    1
     6     1     3    1
     7     3     4    1
     8     4     5   ar
     9     5     6   ar
    10     6     7   ar
    11     7     8   ar
    12     8     9   ar
    13     9    10    1
    14    10    17    1
    15    17    18    1
    16    18    19   ar
    17    19    20   ar
    18    20    21   ar
    19    21    22   ar
    20    22    23   ar
    21    23    24    1
    22    10     1    1
    23    23    18   ar
    24     9     4   ar
    25    13    14    1
    26     2    11    1
@<TRIPOS>MOLECULE
*****
 24 26 0 0 0
SMALL
GASTEIGER

@<TRIPOS>ATOM
      1 C          -6.8401  -16.0340   23.3796 C.3     1  UNL1        0.1471
      2 O          -7.8215  -14.9111   23.5401 O.3     1  UNL1       -0.3812
      3 C          -5.6869  -16.9923   23.4232 C.3     1  UNL1        0.0584
      4 C          -6.0011  -18.1378   22.5072 C.ar    1  UNL1       -0.0202
      5 C          -5.2344  -19.3764   22.1495 C.ar    1  UNL1       -0.0044
      6 C          -5.8152  -20.3647   21.1821 C.ar    1  UNL1       -0.0003
      7 C          -7.1626  -20.1144   20.5723 C.ar    1  UNL1       -0.0002
      8 C          -7.9293  -18.8758   20.9299 C.ar    1  UNL1       -0.0011
      9 C          -7.3486  -17.8875   21.8974 C.ar    1  UNL1        0.0157
     10 C          -7.8670  -16.5873   22.4366 C.3     1  UNL1        0.2136
     11 H          -7.4663  -14.2579   24.1631 H       1  UNL1        0.2105
     12 C          -6.0183  -15.2460   24.3562 C.3     1  UNL1        0.1001
     13 N          -6.6601  -14.6700   25.5835 N.3     1  UNL1       -0.2954
     14 H          -6.1794  -13.7927   25.7829 H       1  UNL1        0.1233
     15 C          -7.9601  -16.0429   27.3653 C.3     1  UNL1        0.0185
     16 C          -6.6751  -15.4558   26.8611 C.3     1  UNL1        0.0687
     17 O          -9.1817  -15.9519   22.0930 O.3     1  UNL1       -0.4726
     18 C         -10.4617  -16.6909   22.3497 C.ar    1  UNL1        0.1349
     19 C         -10.6628  -17.4138   23.6485 C.ar    1  UNL1        0.0366
     20 C         -11.9427  -18.1528   23.9051 C.ar    1  UNL1        0.0031
     21 C         -13.0214  -18.1688   22.8629 C.ar    1  UNL1       -0.0001
     22 C         -12.8202  -17.4458   21.5641 C.ar    1  UNL1       -0.0013
     23 C         -11.5403  -16.7069   21.3075 C.ar    1  UNL1        0.0121
     24 C         -11.3391  -15.9840   20.0087 C.3     1  UNL1        0.0342
@<TRIPOS>BOND
     1    15    16    1
     2    16    13    1
     3    13    12    1
     4    12     1    1
     5     1     2    1
     6     1     3    1
     7     3     4    1
     8     4     5   ar
     9     5     6   ar
    10     6     7   ar
    11     7     8   ar
    12     8     9   ar
    13     9    10    1
    14    10    17    1
    15    17    18    1
    16    18    19   ar
    17    19    20   ar
    18    20    21   ar
    19    21    22   ar
    20    22    23   ar
    21    23    24    1
    22    10     1    1
    23    23    18   ar
    24     9     4   ar
    25    13    14    1
    26     2    11    1
@<TRIPOS>MOLECULE
*****
 24 26 0 0 0
SMALL
GASTEIGER

@<TRIPOS>ATOM
      1 C          -7.9904  -16.1470   23.5019 C.3     1  UNL1        0.1471
      2 O          -6.9618  -15.6073   22.5528 O.3     1  UNL1       -0.3812
      3 C          -8.9514  -16.4303   24.6182 C.3     1  UNL1        0.0584
      4 C          -9.6541  -17.7190   24.3092 C.ar    1  UNL1       -0.0202
      5 C         -10.7055  -18.4914   25.0493 C.ar    1  UNL1       -0.0044
      6 C         -11.2303  -19.7770   24.4820 C.ar    1  UNL1       -0.0003
      7 C         -10.7037  -20.2901   23.1746 C.ar    1  UNL1       -0.0002
      8 C          -9.6523  -19.5177   22.4345 C.ar    1  UNL1       -0.0011
      9 C          -9.1275  -18.2321   23.0017 C.ar    1  UNL1        0.0157
     10 C          -8.0993  -17.2606   22.5028 C.3     1  UNL1        0.2136
     11 H          -6.6074  -14.7738   22.8999 H       1  UNL1        0.2105
     12 C          -7.6665  -14.9206   24.3025 C.3     1  UNL1        0.1001
     13 N          -6.2435  -14.6168   24.6666 N.3     1  UNL1       -0.2954
     14 H          -5.6636  -14.9636   23.9024 H       1  UNL1        0.1233
     15 C          -6.5471  -15.4232   27.1176 C.3     1  UNL1        0.0185
     16 C          -5.6606  -15.1645   25.9355 C.3     1  UNL1        0.0687
     17 O          -7.3173  -17.3814   21.2285 O.3     1  UNL1       -0.4726
     18 C          -6.4292  -18.5693   21.0033 C.ar    1  UNL1        0.1349
     19 C          -5.1111  -18.6655   21.7127 C.ar    1  UNL1        0.0366
     20 C          -4.2231  -19.8532   21.4875 C.ar    1  UNL1        0.0031
     21 C          -4.6533  -20.9447   20.5529 C.ar    1  UNL1       -0.0001
     22 C          -5.9714  -20.8485   19.8435 C.ar    1  UNL1       -0.0013
     23 C          -6.8594  -19.6608   20.0687 C.ar    1  UNL1        0.0121
     24 C          -8.1776  -19.5646   19.3593 C.3     1  UNL1        0.0342
@<TRIPOS>BOND
     1    15    16    1
     2    16    13    1
     3    13    12    1
     4    12     1    1
     5     1     2    1
     6     1     3    1
     7     3     4    1
     8     4     5   ar
     9     5     6   ar
    10     6     7   ar
    11     7     8   ar
    12     8     9   ar
    13     9    10    1
    14    10    17    1
    15    17    18    1
    16    18    19   ar
    17    19    20   ar
    18    20    21   ar
    19    21    22   ar
    20    22    23   ar
    21    23    24    1
    22    10     1    1
    23    23    18   ar
    24     9     4   ar
    25    13    14    1
    26     2    11    1
@<TRIPOS>MOLECULE
*****
 24 26 0 0 0
SMALL
GASTEIGER

@<TRIPOS>ATOM
      1 C          -6.8171  -15.8151   23.8824 C.3     1  UNL1        0.1471
      2 O          -8.1594  -15.1469   23.8432 O.3     1  UNL1       -0.3812
      3 C          -5.4069  -16.2611   24.1321 C.3     1  UNL1        0.0584
      4 C          -5.1405  -17.4601   23.2710 C.ar    1  UNL1       -0.0202
      5 C          -3.9247  -18.3214   23.0979 C.ar    1  UNL1       -0.0044
      6 C          -3.9545  -19.4776   22.1428 C.ar    1  UNL1       -0.0003
      7 C          -5.2001  -19.7726   21.3609 C.ar    1  UNL1       -0.0002
      8 C          -6.4159  -18.9113   21.5340 C.ar    1  UNL1       -0.0011
      9 C          -6.3861  -17.7551   22.4891 C.ar    1  UNL1        0.0157
     10 C          -7.4223  -16.7384   22.8669 C.3     1  UNL1        0.2136
     11 H          -8.1638  -14.3940   24.4548 H       1  UNL1        0.2105
     12 C          -6.4925  -14.7521   24.8897 C.3     1  UNL1        0.1001
     13 N          -5.9987  -15.1364   26.2530 N.3     1  UNL1       -0.2954
     14 H          -5.5712  -16.0580   26.1623 H       1  UNL1        0.1233
     15 C          -8.1250  -16.1559   27.3436 C.3     1  UNL1        0.0185
     16 C          -6.9580  -15.2153   27.4034 C.3     1  UNL1        0.0687
     17 O          -8.8185  -16.6590   22.3245 O.3     1  UNL1       -0.4726
     18 C          -9.6121  -17.9137   22.1094 C.ar    1  UNL1        0.1349
     19 C          -9.9158  -18.3796   20.7163 C.ar    1  UNL1        0.0366
     20 C         -10.7093  -19.6342   20.5012 C.ar    1  UNL1        0.0031
     21 C         -11.1991  -20.4230   21.6793 C.ar    1  UNL1       -0.0001
     22 C         -10.8954  -19.9571   23.0724 C.ar    1  UNL1       -0.0013
     23 C         -10.1019  -18.7026   23.2875 C.ar    1  UNL1        0.0121
     24 C          -9.7982  -18.2367   24.6806 C.3     1  UNL1        0.0342
@<TRIPOS>BOND
     1    15    16    1
     2    16    13    1
     3    13    12    1
     4    12     1    1
     5     1     2    1
     6     1     3    1
     7     3     4    1
     8     4     5   ar
     9     5     6   ar
    10     6     7   ar
    11     7     8   ar
    12     8     9   ar
    13     9    10    1
    14    10    17    1
    15    17    18    1
    16    18    19   ar
    17    19    20   ar
    18    20    21   ar
    19    21    22   ar
    20    22    23   ar
    21    23    24    1
    22    10     1    1
    23    23    18   ar
    24     9     4   ar
    25    13    14    1
    26     2    11    1
@<TRIPOS>MOLECULE
*****
 24 26 0 0 0
SMALL
GASTEIGER

@<TRIPOS>ATOM
      1 C         -14.7363   -7.3535   18.9730 C.3     1  UNL1        0.1471
      2 O         -13.6806   -8.3875   18.7155 O.3     1  UNL1       -0.3812
      3 C         -15.9904   -6.5558   19.1748 C.3     1  UNL1        0.0584
      4 C         -15.5955   -5.1485   19.5117 C.ar    1  UNL1       -0.0202
      5 C         -16.4066   -3.9234   19.8135 C.ar    1  UNL1       -0.0044
      6 C         -15.7195   -2.6261   20.1216 C.ar    1  UNL1       -0.0003
      7 C         -14.2212   -2.5541   20.1280 C.ar    1  UNL1       -0.0002
      8 C         -13.4101   -3.7792   19.8263 C.ar    1  UNL1       -0.0011
      9 C         -14.0973   -5.0764   19.5181 C.ar    1  UNL1        0.0157
     10 C         -13.5663   -6.4392   19.1851 C.3     1  UNL1        0.2136
     11 H         -14.1026   -9.2372   18.5135 H       1  UNL1        0.2105
     12 C         -15.6856   -8.4840   18.7070 C.3     1  UNL1        0.1001
     13 N         -16.0700   -9.4174   19.8165 N.3     1  UNL1       -0.2954
     14 H         -15.2482   -9.9862   20.0207 H       1  UNL1        0.1233
     15 C         -17.7892  -10.5990   18.2679 C.3     1  UNL1        0.0185
     16 C         -17.2184  -10.3652   19.6352 C.3     1  UNL1        0.0687
     17 O         -12.1192   -6.8206   19.0824 O.3     1  UNL1       -0.4726
     18 C         -11.1725   -5.9660   18.2927 C.ar    1  UNL1        0.1349
     19 C         -10.1672   -5.1079   19.0018 C.ar    1  UNL1        0.0366
     20 C          -9.2205   -4.2533   18.2122 C.ar    1  UNL1        0.0031
     21 C          -9.2793   -4.2569   16.7134 C.ar    1  UNL1       -0.0001
     22 C         -10.2846   -5.1150   16.0042 C.ar    1  UNL1       -0.0013
     23 C         -11.2312   -5.9696   16.7938 C.ar    1  UNL1        0.0121
     24 C         -12.2366   -6.8277   16.0847 C.3     1  UNL1        0.0342
@<TRIPOS>BOND
     1    15    16    1
     2    16    13    1
     3    13    12    1
     4    12     1    1
     5     1     2    1
     6     1     3    1
     7     3     4    1
     8     4     5   ar
     9     5     6   ar
    10     6     7   ar
    11     7     8   ar
    12     8     9   ar
    13     9    10    1
    14    10    17    1
    15    17    18    1
    16    18    19   ar
    17    19    20   ar
    18    20    21   ar
    19    21    22   ar
    20    22    23   ar
    21    23    24    1
    22    10     1    1
    23    23    18   ar
    24     9     4   ar
    25    13    14    1
    26     2    11    1
@<TRIPOS>MOLECULE
*****
 24 26 0 0 0
SMALL
GASTEIGER

@<TRIPOS>ATOM
      1 C         -12.1178   -6.2574   18.9995 C.3     1  UNL1        0.1471
      2 O         -12.0177   -7.7328   18.7487 O.3     1  UNL1       -0.3812
      3 C         -11.9068   -4.7877   19.2129 C.3     1  UNL1        0.0584
      4 C         -13.2443   -4.1600   19.4716 C.ar    1  UNL1       -0.0202
      5 C         -13.6514   -2.7432   19.7490 C.ar    1  UNL1       -0.0044
      6 C         -15.0962   -2.4082   19.9729 C.ar    1  UNL1       -0.0003
      7 C         -16.1340   -3.4900   19.9194 C.ar    1  UNL1       -0.0002
      8 C         -15.7269   -4.9067   19.6420 C.ar    1  UNL1       -0.0011
      9 C         -14.2821   -5.2418   19.4181 C.ar    1  UNL1        0.0157
     10 C         -13.5859   -6.5380   19.1264 C.3     1  UNL1        0.2136
     11 H         -11.0897   -7.9734   18.6008 H       1  UNL1        0.2105
     12 C         -10.6289   -6.2852   18.8203 C.3     1  UNL1        0.1001
     13 N          -9.8933   -5.0288   18.4591 N.3     1  UNL1       -0.2954
     14 H         -10.5767   -4.2718   18.4779 H       1  UNL1        0.1233
     15 C          -9.2252   -3.6567   16.3565 C.3     1  UNL1        0.0185
     16 C          -9.1751   -4.9313   17.1458 C.3     1  UNL1        0.0687
     17 O         -14.2425   -7.8793   18.9860 O.3     1  UNL1       -0.4726
     18 C         -15.5079   -8.0156   18.1920 C.ar    1  UNL1        0.1349
     19 C         -15.5643   -7.5152   16.7791 C.ar    1  UNL1        0.0366
     20 C         -16.8295   -7.6514   15.9851 C.ar    1  UNL1        0.0031
     21 C         -18.0385   -8.2881   16.6041 C.ar    1  UNL1       -0.0001
     22 C         -17.9821   -8.7885   18.0170 C.ar    1  UNL1       -0.0013
     23 C         -16.7168   -8.6523   18.8110 C.ar    1  UNL1        0.0121
     24 C         -16.6604   -9.1527   20.2240 C.3     1  UNL1        0.0342
@<TRIPOS>BOND
     1    15    16    1
     2    16    13    1
     3    13    12    1
     4    12     1    1
     5     1     2    1
     6     1     3    1
     7     3     4    1
     8     4     5   ar
     9     5     6   ar
    10     6     7   ar
    11     7     8   ar
    12     8     9   ar
    13     9    10    1
    14    10    17    1
    15    17    18    1
    16    18    19   ar
    17    19    20   ar
    18    20    21   ar
    19    21    22   ar
    20    22    23   ar
    21    23    24    1
    22    10     1    1
    23    23    18   ar
    24     9     4   ar
    25    13    14    1
    26     2    11    1
@<TRIPOS>MOLECULE
*****
 24 26 0 0 0
SMALL
GASTEIGER

@<TRIPOS>ATOM
      1 C         -12.2671   -6.0821   19.0072 C.3     1  UNL1        0.1471
      2 O         -11.8971   -7.5029   18.7000 O.3     1  UNL1       -0.3812
      3 C         -12.3277   -4.6121   19.2993 C.3     1  UNL1        0.0584
      4 C         -13.7675   -4.2359   19.4879 C.ar    1  UNL1       -0.0202
      5 C         -14.4306   -2.9264   19.7968 C.ar    1  UNL1       -0.0044
      6 C         -15.9229   -2.8545   19.9301 C.ar    1  UNL1       -0.0003
      7 C         -16.7521   -4.0921   19.7545 C.ar    1  UNL1       -0.0002
      8 C         -16.0890   -5.4016   19.4457 C.ar    1  UNL1       -0.0011
      9 C         -14.5967   -5.4735   19.3123 C.ar    1  UNL1        0.0157
     10 C         -13.6694   -6.6145   19.0152 C.3     1  UNL1        0.2136
     11 H         -10.9340   -7.5738   18.6091 H       1  UNL1        0.2105
     12 C         -10.7874   -5.8467   18.9349 C.3     1  UNL1        0.1001
     13 N         -10.0460   -6.1192   17.6597 N.3     1  UNL1       -0.2954
     14 H          -9.0711   -6.2782   17.9142 H       1  UNL1        0.1233
     15 C          -9.0727   -3.9583   16.5953 C.3     1  UNL1        0.0185
     16 C         -10.0457   -5.0994   16.5598 C.3     1  UNL1        0.0687
     17 O         -14.0735   -8.0379   18.7694 O.3     1  UNL1       -0.4726
     18 C         -15.5257   -8.3966   18.6569 C.ar    1  UNL1        0.1349
     19 C         -16.2726   -8.8868   19.8618 C.ar    1  UNL1        0.0366
     20 C         -17.7247   -9.2455   19.7495 C.ar    1  UNL1        0.0031
     21 C         -18.4299   -9.1140   18.4322 C.ar    1  UNL1       -0.0001
     22 C         -17.6830   -8.6237   17.2273 C.ar    1  UNL1       -0.0013
     23 C         -16.2309   -8.2651   17.3396 C.ar    1  UNL1        0.0121
     24 C         -15.4840   -7.7749   16.1347 C.3     1  UNL1        0.0342
@<TRIPOS>BOND
     1    15    16    1
     2    16    13    1
     3    13    12    1
     4    12     1    1
     5     1     2    1
     6     1     3    1
     7     3     4    1
     8     4     5   ar
     9     5     6   ar
    10     6     7   ar
    11     7     8   ar
    12     8     9   ar
    13     9    10    1
    14    10    17    1
    15    17    18    1
    16    18    19   ar
    17    19    20   ar
    18    20    21   ar
    19    21    22   ar
    20    22    23   ar
    21    23    24    1
    22    10     1    1
    23    23    18   ar
    24     9     4   ar
    25    13    14    1
    26     2    11    1
@<TRIPOS>MOLECULE
*****
 24 26 0 0 0
SMALL
GASTEIGER

@<TRIPOS>ATOM
      1 C         -14.2953   -6.6350   18.5950 C.3     1  UNL1        0.1471
      2 O         -15.5759   -5.8544   18.6205 O.3     1  UNL1       -0.3812
      3 C         -13.2039   -7.6616   18.5247 C.3     1  UNL1        0.0584
      4 C         -11.8919   -6.9561   18.7005 C.ar    1  UNL1       -0.0202
      5 C         -10.4780   -7.4566   18.7208 C.ar    1  UNL1       -0.0044
      6 C          -9.3447   -6.4944   18.9201 C.ar    1  UNL1       -0.0003
      7 C          -9.6252   -5.0318   19.0990 C.ar    1  UNL1       -0.0002
      8 C         -11.0391   -4.5313   19.0787 C.ar    1  UNL1       -0.0011
      9 C         -12.1724   -5.4935   18.8795 C.ar    1  UNL1        0.0157
     10 C         -13.6578   -5.2950   18.8142 C.3     1  UNL1        0.2136
     11 H         -16.3249   -6.4575   18.4932 H       1  UNL1        0.2105
     12 C         -15.2005   -7.8118   18.3810 C.3     1  UNL1        0.1001
     13 N         -15.2555   -8.9108   19.4004 N.3     1  UNL1       -0.2954
     14 H         -14.9955   -9.7719   18.9194 H       1  UNL1        0.1233
     15 C         -17.6519   -8.1921   20.1006 C.3     1  UNL1        0.0185
     16 C         -16.5346   -9.1925   20.1314 C.3     1  UNL1        0.0687
     17 O         -14.3790   -3.9863   18.9452 O.3     1  UNL1       -0.4726
     18 C         -13.8672   -2.7727   18.2273 C.ar    1  UNL1        0.1349
     19 C         -13.1591   -1.6928   18.9905 C.ar    1  UNL1        0.0366
     20 C         -12.6473   -0.4793   18.2727 C.ar    1  UNL1        0.0031
     21 C         -12.8436   -0.3456   16.7916 C.ar    1  UNL1       -0.0001
     22 C         -13.5517   -1.4255   16.0284 C.ar    1  UNL1       -0.0013
     23 C         -14.0635   -2.6391   16.7462 C.ar    1  UNL1        0.0121
     24 C         -14.7716   -3.7190   15.9830 C.3     1  UNL1        0.0342
@<TRIPOS>BOND
     1    15    16    1
     2    16    13    1
     3    13    12    1
     4    12     1    1
     5     1     2    1
     6     1     3    1
     7     3     4    1
     8     4     5   ar
     9     5     6   ar
    10     6     7   ar
    11     7     8   ar
    12     8     9   ar
    13     9    10    1
    14    10    17    1
    15    17    18    1
    16    18    19   ar
    17    19    20   ar
    18    20    21   ar
    19    21    22   ar
    20    22    23   ar
    21    23    24    1
    22    10     1    1
    23    23    18   ar
    24     9     4   ar
    25    13    14    1
    26     2    11    1
