@<TRIPOS>MOLECULE
*****
 23 25 0 0 0
SMALL
GASTEIGER

@<TRIPOS>ATOM
      1 N          -7.3270  -18.5864   22.4463 N.3     1  UNL1       -0.2700
      2 C          -5.9922  -19.0276   21.9232 C.3     1  UNL1        0.0628
      3 C          -4.7331  -18.5631   22.5934 C.3     1  UNL1        0.0481
      4 C          -3.3983  -19.0043   22.0703 C.3     1  UNL1        0.1435
      5 O          -3.3226  -19.9100   20.8769 O.3     1  UNL1       -0.3537
      6 C          -4.5816  -20.3745   20.2068 C.3     1  UNL1        0.1435
      7 C          -5.9164  -19.9333   20.7299 C.3     1  UNL1        0.0481
      8 C          -7.5394  -17.1572   22.8493 C.3     1  UNL1        0.0748
      9 C          -7.3368  -16.5889   24.2226 C.3     1  UNL1        0.0344
     10 C          -7.6640  -15.1260   24.1718 C.3     1  UNL1        0.0700
     11 N          -8.0689  -14.7900   22.7670 N.3     1  UNL1       -0.2963
     12 C          -7.9919  -16.0454   21.9497 C.3     1  UNL1        0.0847
     13 H          -7.4366  -14.0877   22.3831 H       1  UNL1        0.1233
     14 C          -8.4492  -19.5743   22.5664 C.3     1  UNL1        0.1014
     15 F         -13.9944  -17.6743   23.8477 F       1  UNL1       -0.2017
     16 C         -12.6081  -18.1493   23.5274 C.ar    1  UNL1        0.1696
     17 C         -11.7370  -18.7078   24.6133 C.ar    1  UNL1        0.0318
     18 C         -10.3507  -19.1828   24.2930 C.ar    1  UNL1        0.0018
     19 C          -9.8355  -19.0993   22.8868 C.ar    1  UNL1        0.0237
     20 C         -10.7066  -18.5408   21.8008 C.ar    1  UNL1        0.1669
     21 F         -10.1914  -18.4573   20.3945 F       1  UNL1       -0.2020
     22 C         -12.0929  -18.0658   22.1211 C.ar    1  UNL1        0.1943
     23 F         -12.9639  -17.5072   21.0351 F       1  UNL1       -0.1994
@<TRIPOS>BOND
     1    15    16    1
     2    16    17   ar
     3    17    18   ar
     4    18    19   ar
     5    19    14    1
     6    14     1    1
     7     1     2    1
     8     2     3    1
     9     3     4    1
    10     4     5    1
    11     5     6    1
    12     6     7    1
    13     8     1    1
    14     8     9    1
    15     9    10    1
    16    10    11    1
    17    11    12    1
    18    19    20   ar
    19    20    21    1
    20    20    22   ar
    21    22    23    1
    22    22    16   ar
    23     7     2    1
    24    12     8    1
    25    11    13    1
@<TRIPOS>MOLECULE
*****
 23 25 0 0 0
SMALL
GASTEIGER

@<TRIPOS>ATOM
      1 N          -8.3479  -17.7436   22.5413 N.3     1  UNL1       -0.2700
      2 C          -9.4619  -17.6296   21.5433 C.3     1  UNL1        0.0628
      3 C          -9.7279  -18.7524   20.5848 C.3     1  UNL1        0.0481
      4 C         -10.8419  -18.6384   19.5867 C.3     1  UNL1        0.1435
      5 O         -11.6899  -17.4017   19.5473 O.3     1  UNL1       -0.3537
      6 C         -11.4239  -16.2790   20.5058 C.3     1  UNL1        0.1435
      7 C         -10.3099  -16.3930   21.5038 C.3     1  UNL1        0.0481
      8 C          -8.0556  -16.6044   23.4724 C.3     1  UNL1        0.0748
      9 C          -8.5089  -16.4921   24.8978 C.3     1  UNL1        0.0344
     10 C          -7.9921  -15.1958   25.4478 C.3     1  UNL1        0.0700
     11 N          -7.2194  -14.5069   24.3623 N.3     1  UNL1       -0.2963
     12 C          -7.2587  -15.3774   23.1414 C.3     1  UNL1        0.0847
     13 H          -6.2531  -14.3698   24.6587 H       1  UNL1        0.1233
     14 C          -7.5262  -18.9967   22.6083 C.3     1  UNL1        0.1014
     15 F          -1.8332  -18.9560   20.7141 F       1  UNL1       -0.2017
     16 C          -3.2565  -18.9662   21.1877 C.ar    1  UNL1        0.1696
     17 C          -3.6442  -18.1952   22.4145 C.ar    1  UNL1        0.0318
     18 C          -5.0675  -18.2054   22.8880 C.ar    1  UNL1        0.0018
     19 C          -6.1030  -18.9865   22.1347 C.ar    1  UNL1        0.0237
     20 C          -5.7152  -19.7575   20.9079 C.ar    1  UNL1        0.1669
     21 F          -6.7507  -20.5387   20.1545 F       1  UNL1       -0.2020
     22 C          -4.2920  -19.7474   20.4344 C.ar    1  UNL1        0.1943
     23 F          -3.9042  -20.5184   19.2075 F       1  UNL1       -0.1994
@<TRIPOS>BOND
     1    15    16    1
     2    16    17   ar
     3    17    18   ar
     4    18    19   ar
     5    19    14    1
     6    14     1    1
     7     1     2    1
     8     2     3    1
     9     3     4    1
    10     4     5    1
    11     5     6    1
    12     6     7    1
    13     8     1    1
    14     8     9    1
    15     9    10    1
    16    10    11    1
    17    11    12    1
    18    19    20   ar
    19    20    21    1
    20    20    22   ar
    21    22    23    1
    22    22    16   ar
    23     7     2    1
    24    12     8    1
    25    11    13    1
@<TRIPOS>MOLECULE
*****
 23 25 0 0 0
SMALL
GASTEIGER

@<TRIPOS>ATOM
      1 N          -8.0821  -17.7681   22.5417 N.3     1  UNL1       -0.2700
      2 C          -9.2290  -17.7232   21.5760 C.3     1  UNL1        0.0628
      3 C         -10.1385  -16.5306   21.5467 C.3     1  UNL1        0.0481
      4 C         -11.2854  -16.4857   20.5810 C.3     1  UNL1        0.1435
      5 O         -11.5228  -17.6333   19.6446 O.3     1  UNL1       -0.3537
      6 C         -10.6134  -18.8257   19.6740 C.3     1  UNL1        0.1435
      7 C          -9.4664  -18.8706   20.6396 C.3     1  UNL1        0.0481
      8 C          -7.8629  -16.6343   23.4991 C.3     1  UNL1        0.0748
      9 C          -8.4755  -16.4999   24.8616 C.3     1  UNL1        0.0344
     10 C          -7.9838  -15.2184   25.4666 C.3     1  UNL1        0.0700
     11 N          -7.0672  -14.5607   24.4779 N.3     1  UNL1       -0.2963
     12 C          -6.9925  -15.4358   23.2619 C.3     1  UNL1        0.0847
     13 H          -6.1381  -14.4539   24.8851 H       1  UNL1        0.1233
     14 C          -7.1544  -18.9467   22.5500 C.3     1  UNL1        0.1014
     15 F          -1.9037  -18.6524   19.6614 F       1  UNL1       -0.2017
     16 C          -3.2164  -18.7260   20.3836 C.ar    1  UNL1        0.1696
     17 C          -4.4250  -19.2787   19.6881 C.ar    1  UNL1        0.0318
     18 C          -5.7377  -19.3523   20.4103 C.ar    1  UNL1        0.0018
     19 C          -5.8417  -18.8732   21.8279 C.ar    1  UNL1        0.0237
     20 C          -4.6331  -18.3204   22.5233 C.ar    1  UNL1        0.1669
     21 F          -4.7371  -17.8412   23.9409 F       1  UNL1       -0.2020
     22 C          -3.3204  -18.2468   21.8011 C.ar    1  UNL1        0.1943
     23 F          -2.1118  -17.6941   22.4966 F       1  UNL1       -0.1994
@<TRIPOS>BOND
     1    15    16    1
     2    16    17   ar
     3    17    18   ar
     4    18    19   ar
     5    19    14    1
     6    14     1    1
     7     1     2    1
     8     2     3    1
     9     3     4    1
    10     4     5    1
    11     5     6    1
    12     6     7    1
    13     8     1    1
    14     8     9    1
    15     9    10    1
    16    10    11    1
    17    11    12    1
    18    19    20   ar
    19    20    21    1
    20    20    22   ar
    21    22    23    1
    22    22    16   ar
    23     7     2    1
    24    12     8    1
    25    11    13    1
@<TRIPOS>MOLECULE
*****
 23 25 0 0 0
SMALL
GASTEIGER

@<TRIPOS>ATOM
      1 N          -6.8336  -18.5172   22.4057 N.3     1  UNL1       -0.2700
      2 C          -5.5291  -18.9264   21.7885 C.3     1  UNL1        0.0628
      3 C          -5.4614  -19.2545   20.3263 C.3     1  UNL1        0.0481
      4 C          -4.1570  -19.6637   19.7091 C.3     1  UNL1        0.1435
      5 O          -2.9202  -19.7448   20.5541 O.3     1  UNL1       -0.3537
      6 C          -2.9879  -19.4167   22.0162 C.3     1  UNL1        0.1435
      7 C          -4.2924  -19.0075   22.6334 C.3     1  UNL1        0.0481
      8 C          -7.0300  -17.1072   22.8784 C.3     1  UNL1        0.0748
      9 C          -6.3167  -16.4542   24.0250 C.3     1  UNL1        0.0344
     10 C          -6.8201  -15.0461   24.1428 C.3     1  UNL1        0.0700
     11 N          -7.8446  -14.8288   23.0688 N.3     1  UNL1       -0.2963
     12 C          -7.9743  -16.1026   22.2875 C.3     1  UNL1        0.0847
     13 H          -7.5449  -14.0735   22.4523 H       1  UNL1        0.1233
     14 C          -7.9416  -19.5179   22.5502 C.3     1  UNL1        0.1014
     15 F         -13.6057  -17.9099   21.3962 F       1  UNL1       -0.2017
     16 C         -12.1897  -18.3119   21.6847 C.ar    1  UNL1        0.1696
     17 C         -11.2386  -18.5715   20.5542 C.ar    1  UNL1        0.0318
     18 C          -9.8226  -18.9735   20.8427 C.ar    1  UNL1        0.0018
     19 C          -9.3576  -19.1159   22.2617 C.ar    1  UNL1        0.0237
     20 C         -10.3087  -18.8563   23.3922 C.ar    1  UNL1        0.1669
     21 F          -9.8438  -18.9987   24.8112 F       1  UNL1       -0.2020
     22 C         -11.7247  -18.4543   23.1037 C.ar    1  UNL1        0.1943
     23 F         -12.6759  -18.1947   24.2342 F       1  UNL1       -0.1994
@<TRIPOS>BOND
     1    15    16    1
     2    16    17   ar
     3    17    18   ar
     4    18    19   ar
     5    19    14    1
     6    14     1    1
     7     1     2    1
     8     2     3    1
     9     3     4    1
    10     4     5    1
    11     5     6    1
    12     6     7    1
    13     8     1    1
    14     8     9    1
    15     9    10    1
    16    10    11    1
    17    11    12    1
    18    19    20   ar
    19    20    21    1
    20    20    22   ar
    21    22    23    1
    22    22    16   ar
    23     7     2    1
    24    12     8    1
    25    11    13    1
@<TRIPOS>MOLECULE
*****
 23 25 0 0 0
SMALL
GASTEIGER

@<TRIPOS>ATOM
      1 N          -6.7575  -18.5515   22.4336 N.3     1  UNL1       -0.2700
      2 C          -5.4586  -18.9829   21.8198 C.3     1  UNL1        0.0628
      3 C          -4.2077  -19.0017   22.6473 C.3     1  UNL1        0.0481
      4 C          -2.9088  -19.4331   22.0335 C.3     1  UNL1        0.1435
      5 O          -2.8609  -19.8456   20.5920 O.3     1  UNL1       -0.3537
      6 C          -4.1118  -19.8267   19.7646 C.3     1  UNL1        0.1435
      7 C          -5.4107  -19.3954   20.3784 C.3     1  UNL1        0.0481
      8 C          -6.9347  -17.1358   22.8966 C.3     1  UNL1        0.0748
      9 C          -6.1529  -16.4592   23.9834 C.3     1  UNL1        0.0344
     10 C          -6.6598  -15.0534   24.1126 C.3     1  UNL1        0.0700
     11 N          -7.7548  -14.8610   23.1056 N.3     1  UNL1       -0.2963
     12 C          -7.9247  -16.1481   22.3542 C.3     1  UNL1        0.0847
     13 H          -7.5032  -14.1133   22.4591 H       1  UNL1        0.1233
     14 C          -7.8792  -19.5359   22.5845 C.3     1  UNL1        0.1014
     15 F         -13.5142  -17.8725   21.3678 F       1  UNL1       -0.2017
     16 C         -12.1055  -18.2883   21.6720 C.ar    1  UNL1        0.1696
     17 C         -11.6863  -18.5358   23.0907 C.ar    1  UNL1        0.0318
     18 C         -10.2775  -18.9516   23.3949 C.ar    1  UNL1        0.0018
     19 C          -9.2880  -19.1200   22.2803 C.ar    1  UNL1        0.0237
     20 C          -9.7072  -18.8725   20.8615 C.ar    1  UNL1        0.1669
     21 F          -8.7176  -19.0409   19.7468 F       1  UNL1       -0.2020
     22 C         -11.1159  -18.4567   20.5573 C.ar    1  UNL1        0.1943
     23 F         -11.5351  -18.2092   19.1385 F       1  UNL1       -0.1994
@<TRIPOS>BOND
     1    15    16    1
     2    16    17   ar
     3    17    18   ar
     4    18    19   ar
     5    19    14    1
     6    14     1    1
     7     1     2    1
     8     2     3    1
     9     3     4    1
    10     4     5    1
    11     5     6    1
    12     6     7    1
    13     8     1    1
    14     8     9    1
    15     9    10    1
    16    10    11    1
    17    11    12    1
    18    19    20   ar
    19    20    21    1
    20    20    22   ar
    21    22    23    1
    22    22    16   ar
    23     7     2    1
    24    12     8    1
    25    11    13    1
@<TRIPOS>MOLECULE
*****
 23 25 0 0 0
SMALL
GASTEIGER

@<TRIPOS>ATOM
      1 N          -7.4931  -17.9074   21.8954 N.3     1  UNL1       -0.2700
      2 C          -6.1792  -18.5977   21.6781 C.3     1  UNL1        0.0628
      3 C          -5.0252  -18.3195   22.5952 C.3     1  UNL1        0.0481
      4 C          -3.7113  -19.0098   22.3780 C.3     1  UNL1        0.1435
      5 O          -3.5514  -19.9782   21.2436 O.3     1  UNL1       -0.3537
      6 C          -4.7054  -20.2563   20.3266 C.3     1  UNL1        0.1435
      7 C          -6.0193  -19.5660   20.5439 C.3     1  UNL1        0.0481
      8 C          -7.5707  -16.7078   22.7926 C.3     1  UNL1        0.0748
      9 C          -7.5684  -16.7269   24.2925 C.3     1  UNL1        0.0344
     10 C          -7.6605  -15.3094   24.7743 C.3     1  UNL1        0.0700
     11 N          -7.7197  -14.4141   23.5722 N.3     1  UNL1       -0.2963
     12 C          -7.6642  -15.2784   22.3475 C.3     1  UNL1        0.0847
     13 H          -6.9270  -13.7723   23.5792 H       1  UNL1        0.1233
     14 C          -8.7293  -18.4166   21.2154 C.3     1  UNL1        0.1014
     15 F         -14.0893  -17.7191   23.8200 F       1  UNL1       -0.2017
     16 C         -12.7493  -17.8934   23.1689 C.ar    1  UNL1        0.1696
     17 C         -12.4834  -17.2830   21.8248 C.ar    1  UNL1        0.0318
     18 C         -11.1434  -17.4574   21.1737 C.ar    1  UNL1        0.0018
     19 C         -10.0693  -18.2422   21.8666 C.ar    1  UNL1        0.0237
     20 C         -10.3352  -18.8527   23.2106 C.ar    1  UNL1        0.1669
     21 F          -9.2610  -19.6377   23.9037 F       1  UNL1       -0.2020
     22 C         -11.6752  -18.6783   23.8618 C.ar    1  UNL1        0.1943
     23 F         -11.9410  -19.2889   25.2059 F       1  UNL1       -0.1994
@<TRIPOS>BOND
     1    15    16    1
     2    16    17   ar
     3    17    18   ar
     4    18    19   ar
     5    19    14    1
     6    14     1    1
     7     1     2    1
     8     2     3    1
     9     3     4    1
    10     4     5    1
    11     5     6    1
    12     6     7    1
    13     8     1    1
    14     8     9    1
    15     9    10    1
    16    10    11    1
    17    11    12    1
    18    19    20   ar
    19    20    21    1
    20    20    22   ar
    21    22    23    1
    22    22    16   ar
    23     7     2    1
    24    12     8    1
    25    11    13    1
@<TRIPOS>MOLECULE
*****
 23 25 0 0 0
SMALL
GASTEIGER

@<TRIPOS>ATOM
      1 N          -7.8042  -18.0466   22.4424 N.3     1  UNL1       -0.2700
      2 C          -8.8533  -18.3051   21.4020 C.3     1  UNL1        0.0628
      3 C         -10.1937  -17.6398   21.5070 C.3     1  UNL1        0.0481
      4 C         -11.2428  -17.8983   20.4666 C.3     1  UNL1        0.1435
      5 O         -10.9516  -18.8220   19.3212 O.3     1  UNL1       -0.3537
      6 C          -9.6114  -19.4873   19.2162 C.3     1  UNL1        0.1435
      7 C          -8.5622  -19.2288   20.2566 C.3     1  UNL1        0.0481
      8 C          -7.8773  -16.8116   23.2907 C.3     1  UNL1        0.0748
      9 C          -8.4441  -16.7263   24.6768 C.3     1  UNL1        0.0344
     10 C          -8.3136  -15.3070   25.1445 C.3     1  UNL1        0.0700
     11 N          -7.6661  -14.5151   24.0473 N.3     1  UNL1       -0.2963
     12 C          -7.3965  -15.4450   22.9016 C.3     1  UNL1        0.0847
     13 H          -6.7898  -14.1137   24.3809 H       1  UNL1        0.1233
     14 C          -6.6819  -19.0231   22.6347 C.3     1  UNL1        0.1014
     15 F          -1.1258  -17.5913   20.8797 F       1  UNL1       -0.2017
     16 C          -2.5149  -17.9493   21.3184 C.ar    1  UNL1        0.1696
     17 C          -3.0465  -17.4315   22.6220 C.ar    1  UNL1        0.0318
     18 C          -4.4355  -17.7895   23.0607 C.ar    1  UNL1        0.0018
     19 C          -5.2929  -18.6651   22.1959 C.ar    1  UNL1        0.0237
     20 C          -4.7613  -19.1829   20.8924 C.ar    1  UNL1        0.1669
     21 F          -5.6188  -20.0586   20.0275 F       1  UNL1       -0.2020
     22 C          -3.3723  -18.8250   20.4536 C.ar    1  UNL1        0.1943
     23 F          -2.8407  -19.3428   19.1500 F       1  UNL1       -0.1994
@<TRIPOS>BOND
     1    15    16    1
     2    16    17   ar
     3    17    18   ar
     4    18    19   ar
     5    19    14    1
     6    14     1    1
     7     1     2    1
     8     2     3    1
     9     3     4    1
    10     4     5    1
    11     5     6    1
    12     6     7    1
    13     8     1    1
    14     8     9    1
    15     9    10    1
    16    10    11    1
    17    11    12    1
    18    19    20   ar
    19    20    21    1
    20    20    22   ar
    21    22    23    1
    22    22    16   ar
    23     7     2    1
    24    12     8    1
    25    11    13    1
@<TRIPOS>MOLECULE
*****
 23 25 0 0 0
SMALL
GASTEIGER

@<TRIPOS>ATOM
      1 N          -7.3741  -16.7697   23.0183 N.3     1  UNL1       -0.2700
      2 C          -7.1004  -16.1937   24.3760 C.3     1  UNL1        0.0628
      3 C          -5.7299  -15.6850   24.7126 C.3     1  UNL1        0.0481
      4 C          -5.4562  -15.1091   26.0703 C.3     1  UNL1        0.1435
      5 O          -6.5530  -15.0419   27.0915 O.3     1  UNL1       -0.3537
      6 C          -7.9233  -15.5505   26.7549 C.3     1  UNL1        0.1435
      7 C          -8.1970  -16.1265   25.3972 C.3     1  UNL1        0.0481
      8 C          -6.6825  -18.0279   22.5840 C.3     1  UNL1        0.0748
      9 C          -7.3526  -19.3035   22.1672 C.3     1  UNL1        0.0344
     10 C          -6.2836  -20.2954   21.8159 C.3     1  UNL1        0.0700
     11 N          -4.9527  -19.6328   22.0157 N.3     1  UNL1       -0.2963
     12 C          -5.1993  -18.2314   22.4904 C.3     1  UNL1        0.0847
     13 H          -4.4394  -19.6145   21.1345 H       1  UNL1        0.1233
     14 C          -8.3393  -16.0874   22.0949 C.3     1  UNL1        0.1014
     15 F         -14.0126  -18.0066   21.7341 F       1  UNL1       -0.2017
     16 C         -12.5943  -17.5268   21.8243 C.ar    1  UNL1        0.1696
     17 C         -11.6540  -18.1479   22.8142 C.ar    1  UNL1        0.0318
     18 C         -10.2356  -17.6681   22.9044 C.ar    1  UNL1        0.0018
     19 C          -9.7577  -16.5672   22.0047 C.ar    1  UNL1        0.0237
     20 C         -10.6980  -15.9461   21.0148 C.ar    1  UNL1        0.1669
     21 F         -10.2200  -14.8451   20.1151 F       1  UNL1       -0.2020
     22 C         -12.1163  -16.4259   20.9246 C.ar    1  UNL1        0.1943
     23 F         -13.0567  -15.8047   19.9346 F       1  UNL1       -0.1994
@<TRIPOS>BOND
     1    15    16    1
     2    16    17   ar
     3    17    18   ar
     4    18    19   ar
     5    19    14    1
     6    14     1    1
     7     1     2    1
     8     2     3    1
     9     3     4    1
    10     4     5    1
    11     5     6    1
    12     6     7    1
    13     8     1    1
    14     8     9    1
    15     9    10    1
    16    10    11    1
    17    11    12    1
    18    19    20   ar
    19    20    21    1
    20    20    22   ar
    21    22    23    1
    22    22    16   ar
    23     7     2    1
    24    12     8    1
    25    11    13    1
@<TRIPOS>MOLECULE
*****
 23 25 0 0 0
SMALL
GASTEIGER

@<TRIPOS>ATOM
      1 N          -8.3245  -18.4901   22.3019 N.3     1  UNL1       -0.2700
      2 C          -8.2475  -17.3485   23.2718 C.3     1  UNL1        0.0628
      3 C          -7.4419  -16.1294   22.9328 C.3     1  UNL1        0.0481
      4 C          -7.3649  -14.9877   23.9027 C.3     1  UNL1        0.1435
      5 O          -8.0935  -15.0652   25.2116 O.3     1  UNL1       -0.3537
      6 C          -8.8990  -16.2843   25.5506 C.3     1  UNL1        0.1435
      7 C          -8.9760  -17.4259   24.5807 C.3     1  UNL1        0.0481
      8 C          -9.3495  -18.4760   21.2068 C.3     1  UNL1        0.0748
      9 C          -9.4820  -19.4906   20.1099 C.3     1  UNL1        0.0344
     10 C         -10.6364  -19.0865   19.2416 C.3     1  UNL1        0.0700
     11 N         -11.2174  -17.8221   19.8018 N.3     1  UNL1       -0.2963
     12 C         -10.4221  -17.4448   21.0163 C.3     1  UNL1        0.0847
     13 H         -12.1925  -17.9739   20.0599 H       1  UNL1        0.1233
     14 C          -7.3765  -19.6458   22.4270 C.3     1  UNL1        0.1014
     15 F          -1.7387  -19.1302   20.4398 F       1  UNL1       -0.2017
     16 C          -3.1481  -19.2591   20.9366 C.ar    1  UNL1        0.1696
     17 C          -3.5739  -18.5371   22.1805 C.ar    1  UNL1        0.0318
     18 C          -4.9833  -18.6660   22.6773 C.ar    1  UNL1        0.0018
     19 C          -5.9670  -19.5169   21.9302 C.ar    1  UNL1        0.0237
     20 C          -5.5413  -20.2389   20.6862 C.ar    1  UNL1        0.1669
     21 F          -6.5250  -21.0898   19.9390 F       1  UNL1       -0.2020
     22 C          -4.1318  -20.1100   20.1894 C.ar    1  UNL1        0.1943
     23 F          -3.7061  -20.8320   18.9454 F       1  UNL1       -0.1994
@<TRIPOS>BOND
     1    15    16    1
     2    16    17   ar
     3    17    18   ar
     4    18    19   ar
     5    19    14    1
     6    14     1    1
     7     1     2    1
     8     2     3    1
     9     3     4    1
    10     4     5    1
    11     5     6    1
    12     6     7    1
    13     8     1    1
    14     8     9    1
    15     9    10    1
    16    10    11    1
    17    11    12    1
    18    19    20   ar
    19    20    21    1
    20    20    22   ar
    21    22    23    1
    22    22    16   ar
    23     7     2    1
    24    12     8    1
    25    11    13    1
