@<TRIPOS>MOLECULE
*****
 33 37 0 0 0
SMALL
GASTEIGER

@<TRIPOS>ATOM
      1 N          -2.1408    4.2855   25.5826 N.3     1  UNL1       -0.2710
      2 C          -1.8573    4.7867   24.1975 C.3     1  UNL1        0.0728
      3 C          -0.9916    3.9842   23.2721 C.3     1  UNL1        0.0298
      4 C          -0.4094    2.6805   23.7317 C.3     1  UNL1        0.1147
      5 C          -0.6929    2.1793   25.1168 C.3     1  UNL1        0.0298
      6 C          -1.5586    2.9818   26.0422 C.3     1  UNL1        0.0728
      7 C           0.4563    1.8779   22.8063 C.2     1  UNL1        0.3507
      8 N           0.5520    2.0481   21.3191 N.2     1  UNL1       -0.0350
      9 C           1.5332    1.0395   20.7993 C.2     1  UNL1        0.2324
     10 C           2.0276    0.7412   19.4148 C.2     1  UNL1        0.0598
     11 C           3.0327   -0.3507   19.1964 C.2     1  UNL1        0.0648
     12 C           3.5434   -1.1441   20.3624 C.2     1  UNL1       -0.0258
     13 C           4.5484   -2.2359   20.1440 C.3     1  UNL1        0.0275
     14 C           3.0490   -0.8458   21.7468 C.3     1  UNL1        0.1004
     15 C           2.0439    0.2460   21.9653 C.2     1  UNL1        0.2171
     16 N           1.3784    0.7641   23.2056 N.2     1  UNL1       -0.0389
     17 C           3.5271   -0.6490   17.8120 C.1     1  UNL1        0.0999
     18 N           4.0214   -0.9473   16.4276 N.1     1  UNL1       -0.1908
     19 C          -3.0065    5.0882   26.5081 C.3     1  UNL1        0.0970
     20 C          -4.3466    4.5607   26.9276 C.3     1  UNL1        0.1264
     21 C          -5.6187    3.5772   22.7247 C.ar    1  UNL1        0.1593
     22 C          -6.8716    4.1784   22.1602 C.ar    1  UNL1        0.1357
     23 N          -7.7004    5.1076   22.9967 N.ar    1  UNL1       -0.2392
     24 C          -7.2764    5.4354   24.3976 C.ar    1  UNL1        0.0975
     25 C          -8.1053    6.3645   25.2341 C.ar    1  UNL1        0.0255
     26 C          -7.6813    6.6924   26.6350 C.ar    1  UNL1        0.0623
     27 C          -6.4283    6.0911   27.1996 C.ar    1  UNL1        0.2611
     28 O          -6.0043    6.4189   28.6005 O.2     1  UNL1       -0.2670
     29 N          -5.5995    5.1620   26.3631 N.ar    1  UNL1       -0.2926
     30 C          -6.0235    4.8341   24.9621 C.ar    1  UNL1        0.0832
     31 C          -5.1947    3.9050   24.1256 C.ar    1  UNL1        0.0573
     32 C          -3.8388    3.2028   20.8695 C.3     1  UNL1        0.2525
     33 O          -4.7898    2.6480   21.8882 O.3     1  UNL1       -0.4698
@<TRIPOS>BOND
     1    32    33    1
     2    33    21    1
     3    21    22   ar
     4    22    23   ar
     5    23    24   ar
     6    24    25   ar
     7    25    26   ar
     8    26    27   ar
     9    27    28    2
    10    27    29   ar
    11    29    20    1
    12    20    19    1
    13    19     1    1
    14     1     2    1
    15     2     3    1
    16     3     4    1
    17     4     7    1
    18     7     8    2
    19     8     9    1
    20     9    10    2
    21    10    11    1
    22    11    17    1
    23    17    18    3
    24    11    12    2
    25    12    13    1
    26    12    14    1
    27    14    15    1
    28    15    16    2
    29     4     5    1
    30     5     6    1
    31    29    30   ar
    32    30    31   ar
    33    31    21   ar
    34    30    24   ar
    35     6     1    1
    36    16     7    1
    37    15     9    1
@<TRIPOS>MOLECULE
*****
 33 37 0 0 0
SMALL
GASTEIGER

@<TRIPOS>ATOM
      1 N          -1.8835    3.8920   25.4201 N.3     1  UNL1       -0.2710
      2 C          -1.3410    2.6994   26.1504 C.3     1  UNL1        0.0728
      3 C          -0.4064    1.7550   25.4544 C.3     1  UNL1        0.0298
      4 C          -0.0144    2.0031   24.0280 C.3     1  UNL1        0.1147
      5 C          -0.5569    3.1957   23.2976 C.3     1  UNL1        0.0298
      6 C          -1.4915    4.1402   23.9937 C.3     1  UNL1        0.0728
      7 C           0.9202    1.0586   23.3318 C.2     1  UNL1        0.3507
      8 N           1.9899    0.2350   23.9855 N.2     1  UNL1       -0.0350
      9 C           2.6800   -0.5607   22.9175 C.2     1  UNL1        0.2324
     10 C           3.8109   -1.5446   22.9715 C.2     1  UNL1        0.0598
     11 C           4.2987   -2.1965   21.7117 C.2     1  UNL1        0.0648
     12 C           3.6555   -1.8645   20.3979 C.2     1  UNL1       -0.0258
     13 C           4.1433   -2.5164   19.1381 C.3     1  UNL1        0.0275
     14 C           2.5246   -0.8806   20.3439 C.3     1  UNL1        0.1004
     15 C           2.0368   -0.2287   21.6036 C.2     1  UNL1        0.2171
     16 N           0.9492    0.7721   21.8597 N.2     1  UNL1       -0.0389
     17 C           5.4296   -3.1804   21.7657 C.1     1  UNL1        0.0999
     18 N           6.5606   -4.1643   21.8198 N.1     1  UNL1       -0.1908
     19 C          -2.8181    4.8365   26.1162 C.3     1  UNL1        0.0970
     20 C          -4.1573    4.3538   26.5892 C.3     1  UNL1        0.1264
     21 C          -5.4760    3.5290   22.3666 C.ar    1  UNL1        0.1593
     22 C          -6.7301    4.1580   21.8362 C.ar    1  UNL1        0.1357
     23 N          -7.5447    5.0619   22.7133 N.ar    1  UNL1       -0.2392
     24 C          -7.1052    5.3369   24.1208 C.ar    1  UNL1        0.0975
     25 C          -7.9198    6.2408   24.9979 C.ar    1  UNL1        0.0255
     26 C          -7.4803    6.5158   26.4054 C.ar    1  UNL1        0.0623
     27 C          -6.2261    5.8868   26.9359 C.ar    1  UNL1        0.2611
     28 O          -5.7865    6.1617   28.3434 O.2     1  UNL1       -0.2670
     29 N          -5.4114    4.9828   26.0588 N.ar    1  UNL1       -0.2926
     30 C          -5.8510    4.7079   24.6512 C.ar    1  UNL1        0.0832
     31 C          -5.0364    3.8039   23.7741 C.ar    1  UNL1        0.0573
     32 C          -3.5654    3.1942   20.6382 C.3     1  UNL1        0.2525
     33 O          -4.6613    2.6250   21.4895 O.3     1  UNL1       -0.4698
@<TRIPOS>BOND
     1    32    33    1
     2    33    21    1
     3    21    22   ar
     4    22    23   ar
     5    23    24   ar
     6    24    25   ar
     7    25    26   ar
     8    26    27   ar
     9    27    28    2
    10    27    29   ar
    11    29    20    1
    12    20    19    1
    13    19     1    1
    14     1     2    1
    15     2     3    1
    16     3     4    1
    17     4     7    1
    18     7     8    2
    19     8     9    1
    20     9    10    2
    21    10    11    1
    22    11    17    1
    23    17    18    3
    24    11    12    2
    25    12    13    1
    26    12    14    1
    27    14    15    1
    28    15    16    2
    29     4     5    1
    30     5     6    1
    31    29    30   ar
    32    30    31   ar
    33    31    21   ar
    34    30    24   ar
    35     6     1    1
    36    16     7    1
    37    15     9    1
@<TRIPOS>MOLECULE
*****
 33 37 0 0 0
SMALL
GASTEIGER

@<TRIPOS>ATOM
      1 N           2.2091    1.5407   18.9384 N.3     1  UNL1       -0.2710
      2 C           2.0428    2.9834   19.3139 C.3     1  UNL1        0.0728
      3 C           0.8581    3.4152   20.1263 C.3     1  UNL1        0.0298
      4 C          -0.1603    2.4042   20.5632 C.3     1  UNL1        0.1147
      5 C           0.0061    0.9615   20.1878 C.3     1  UNL1        0.0298
      6 C           1.1908    0.5298   19.3754 C.3     1  UNL1        0.0728
      7 C          -1.3450    2.8359   21.3757 C.2     1  UNL1        0.3507
      8 N          -2.7706    2.8635   20.9100 N.2     1  UNL1       -0.0350
      9 C          -3.6188    3.3605   22.0429 C.2     1  UNL1        0.2324
     10 C          -5.0955    3.5946   22.1636 C.2     1  UNL1        0.0598
     11 C          -5.6708    4.1083   23.4502 C.2     1  UNL1        0.0648
     12 C          -4.7694    4.3878   24.6161 C.2     1  UNL1       -0.0258
     13 C          -5.3447    4.9014   25.9026 C.3     1  UNL1        0.0275
     14 C          -3.2927    4.1537   24.4954 C.3     1  UNL1        0.1004
     15 C          -2.7174    3.6400   23.2089 C.2     1  UNL1        0.2171
     16 N          -1.3122    3.3158   22.7965 N.2     1  UNL1       -0.0389
     17 C          -7.1475    4.3424   23.5708 C.1     1  UNL1        0.0999
     18 N          -8.6242    4.5765   23.6915 N.1     1  UNL1       -0.1908
     19 C           3.3939    1.1090   18.1260 C.3     1  UNL1        0.0970
     20 C           4.7344    0.9505   18.7803 C.3     1  UNL1        0.1264
     21 C           3.7223   -1.2898   22.5495 C.ar    1  UNL1        0.1593
     22 C           4.2862   -2.6602   22.7817 C.ar    1  UNL1        0.1357
     23 N           5.1873   -3.2839   21.7576 N.ar    1  UNL1       -0.2392
     24 C           5.5247   -2.5372   20.5012 C.ar    1  UNL1        0.0975
     25 C           6.4259   -3.1609   19.4771 C.ar    1  UNL1        0.0255
     26 C           6.7632   -2.4142   18.2207 C.ar    1  UNL1        0.0623
     27 C           6.1994   -1.0436   17.9884 C.ar    1  UNL1        0.2611
     28 O           6.5367   -0.2969   16.7320 O.2     1  UNL1       -0.2670
     29 N           5.2982   -0.4199   19.0125 N.ar    1  UNL1       -0.2926
     30 C           4.9609   -1.1667   20.2690 C.ar    1  UNL1        0.0832
     31 C           4.0597   -0.5430   21.2931 C.ar    1  UNL1        0.0573
     32 C           2.1187    0.6236   23.2685 C.3     1  UNL1        0.2525
     33 O           2.8212   -0.6661   23.5736 O.3     1  UNL1       -0.4698
@<TRIPOS>BOND
     1    32    33    1
     2    33    21    1
     3    21    22   ar
     4    22    23   ar
     5    23    24   ar
     6    24    25   ar
     7    25    26   ar
     8    26    27   ar
     9    27    28    2
    10    27    29   ar
    11    29    20    1
    12    20    19    1
    13    19     1    1
    14     1     2    1
    15     2     3    1
    16     3     4    1
    17     4     7    1
    18     7     8    2
    19     8     9    1
    20     9    10    2
    21    10    11    1
    22    11    17    1
    23    17    18    3
    24    11    12    2
    25    12    13    1
    26    12    14    1
    27    14    15    1
    28    15    16    2
    29     4     5    1
    30     5     6    1
    31    29    30   ar
    32    30    31   ar
    33    31    21   ar
    34    30    24   ar
    35     6     1    1
    36    16     7    1
    37    15     9    1
@<TRIPOS>MOLECULE
*****
 33 37 0 0 0
SMALL
GASTEIGER

@<TRIPOS>ATOM
      1 N           7.0925   -3.8702   30.0009 N.3     1  UNL1       -0.2710
      2 C           7.0385   -4.2324   31.4555 C.3     1  UNL1        0.0728
      3 C           6.4188   -3.2869   32.4413 C.3     1  UNL1        0.0298
      4 C           5.8532   -1.9792   31.9726 C.3     1  UNL1        0.1147
      5 C           5.9072   -1.6169   30.5180 C.3     1  UNL1        0.0298
      6 C           6.5269   -2.5624   29.5322 C.3     1  UNL1        0.0728
      7 C           5.2335   -1.0336   32.9585 C.2     1  UNL1        0.3507
      8 N           5.3717   -1.1001   34.4507 N.2     1  UNL1       -0.0350
      9 C           4.5904    0.0369   35.0396 C.2     1  UNL1        0.2324
     10 C           4.3642    0.4712   36.4575 C.2     1  UNL1        0.0598
     11 C           3.5170    1.6747   36.7472 C.2     1  UNL1        0.0648
     12 C           2.8960    2.4439   35.6190 C.2     1  UNL1       -0.0258
     13 C           2.0489    3.6473   35.9087 C.3     1  UNL1        0.0275
     14 C           3.1222    2.0096   34.2012 C.3     1  UNL1        0.1004
     15 C           3.9694    0.8061   33.9115 C.2     1  UNL1        0.2171
     16 N           4.3668    0.1445   32.6253 N.2     1  UNL1       -0.0389
     17 C           3.2909    2.1090   38.1650 C.1     1  UNL1        0.0999
     18 N           3.0647    2.5433   39.5828 N.1     1  UNL1       -0.1908
     19 C           7.7122   -4.8158   29.0150 C.3     1  UNL1        0.0970
     20 C           6.8420   -5.5923   28.0717 C.3     1  UNL1        0.1264
     21 C           6.3316   -3.5165   24.1118 C.ar    1  UNL1        0.1593
     22 C           6.9206   -4.1159   22.8694 C.ar    1  UNL1        0.1357
     23 N           7.6797   -5.4074   22.9469 N.ar    1  UNL1       -0.2392
     24 C           7.8498   -6.0993   24.2668 C.ar    1  UNL1        0.0975
     25 C           8.6089   -7.3907   24.3442 C.ar    1  UNL1        0.0255
     26 C           8.7791   -8.0826   25.6642 C.ar    1  UNL1        0.0623
     27 C           8.1901   -7.4832   26.9067 C.ar    1  UNL1        0.2611
     28 O           8.3602   -8.1751   28.2266 O.2     1  UNL1       -0.2670
     29 N           7.4310   -6.1917   26.8292 N.ar    1  UNL1       -0.2926
     30 C           7.2608   -5.4998   25.5092 C.ar    1  UNL1        0.0832
     31 C           6.5017   -4.2084   25.4317 C.ar    1  UNL1        0.0573
     32 C           4.3557   -2.1214   23.1634 C.3     1  UNL1        0.2525
     33 O           5.5725   -2.2250   24.0343 O.3     1  UNL1       -0.4698
@<TRIPOS>BOND
     1    32    33    1
     2    33    21    1
     3    21    22   ar
     4    22    23   ar
     5    23    24   ar
     6    24    25   ar
     7    25    26   ar
     8    26    27   ar
     9    27    28    2
    10    27    29   ar
    11    29    20    1
    12    20    19    1
    13    19     1    1
    14     1     2    1
    15     2     3    1
    16     3     4    1
    17     4     7    1
    18     7     8    2
    19     8     9    1
    20     9    10    2
    21    10    11    1
    22    11    17    1
    23    17    18    3
    24    11    12    2
    25    12    13    1
    26    12    14    1
    27    14    15    1
    28    15    16    2
    29     4     5    1
    30     5     6    1
    31    29    30   ar
    32    30    31   ar
    33    31    21   ar
    34    30    24   ar
    35     6     1    1
    36    16     7    1
    37    15     9    1
@<TRIPOS>MOLECULE
*****
 33 37 0 0 0
SMALL
GASTEIGER

@<TRIPOS>ATOM
      1 N           2.3221   -0.6936   20.4152 N.3     1  UNL1       -0.2710
      2 C           2.5849   -0.3042   21.8397 C.3     1  UNL1        0.0728
      3 C           3.5355   -1.1102   22.6744 C.3     1  UNL1        0.0298
      4 C           4.2233   -2.3056   22.0844 C.3     1  UNL1        0.1147
      5 C           3.9606   -2.6949   20.6599 C.3     1  UNL1        0.0298
      6 C           3.0100   -1.8889   19.8252 C.3     1  UNL1        0.0728
      7 C           5.1740   -3.1116   22.9191 C.2     1  UNL1        0.3507
      8 N           5.3871   -2.9707   24.3972 N.2     1  UNL1       -0.0350
      9 C           6.4232   -3.9721   24.8137 C.2     1  UNL1        0.2324
     10 C           7.0328   -4.2902   26.1468 C.2     1  UNL1        0.0598
     11 C           8.0698   -5.3683   26.2593 C.2     1  UNL1        0.0648
     12 C           8.4971   -6.1281   25.0386 C.2     1  UNL1       -0.0258
     13 C           9.5340   -7.2061   25.1511 C.3     1  UNL1        0.0275
     14 C           7.8875   -5.8100   23.7055 C.3     1  UNL1        0.1004
     15 C           6.8506   -4.7320   23.5931 C.2     1  UNL1        0.2171
     16 N           6.0785   -4.2002   22.4221 N.2     1  UNL1       -0.0389
     17 C           8.6794   -5.6864   27.5924 C.1     1  UNL1        0.0999
     18 N           9.2890   -6.0045   28.9255 N.1     1  UNL1       -0.1908
     19 C           1.3715    0.1125   19.5805 C.3     1  UNL1        0.0970
     20 C           1.8274    0.6944   18.2753 C.3     1  UNL1        0.1264
     21 C           6.1784   -0.2165   17.5762 C.ar    1  UNL1        0.1593
     22 C           7.1846    0.8959   17.5617 C.ar    1  UNL1        0.1357
     23 N           6.7405    2.3118   17.7802 N.ar    1  UNL1       -0.2392
     24 C           5.2902    2.6155   18.0133 C.ar    1  UNL1        0.0975
     25 C           4.8461    4.0315   18.2318 C.ar    1  UNL1        0.0255
     26 C           3.3958    4.3351   18.4648 C.ar    1  UNL1        0.0623
     27 C           2.3895    3.2228   18.4793 C.ar    1  UNL1        0.2611
     28 O           0.9392    3.5264   18.7124 O.2     1  UNL1       -0.2670
     29 N           2.8336    1.8068   18.2608 N.ar    1  UNL1       -0.2926
     30 C           4.2840    1.5032   18.0278 C.ar    1  UNL1        0.0832
     31 C           4.7281    0.0872   17.8092 C.ar    1  UNL1        0.0573
     32 C           7.4230   -2.3386   18.4115 C.3     1  UNL1        0.2525
     33 O           6.6226   -1.6324   17.3577 O.3     1  UNL1       -0.4698
@<TRIPOS>BOND
     1    32    33    1
     2    33    21    1
     3    21    22   ar
     4    22    23   ar
     5    23    24   ar
     6    24    25   ar
     7    25    26   ar
     8    26    27   ar
     9    27    28    2
    10    27    29   ar
    11    29    20    1
    12    20    19    1
    13    19     1    1
    14     1     2    1
    15     2     3    1
    16     3     4    1
    17     4     7    1
    18     7     8    2
    19     8     9    1
    20     9    10    2
    21    10    11    1
    22    11    17    1
    23    17    18    3
    24    11    12    2
    25    12    13    1
    26    12    14    1
    27    14    15    1
    28    15    16    2
    29     4     5    1
    30     5     6    1
    31    29    30   ar
    32    30    31   ar
    33    31    21   ar
    34    30    24   ar
    35     6     1    1
    36    16     7    1
    37    15     9    1
@<TRIPOS>MOLECULE
*****
 33 37 0 0 0
SMALL
GASTEIGER

@<TRIPOS>ATOM
      1 N          -3.8049    5.0259   21.7936 N.3     1  UNL1       -0.2710
      2 C          -2.7928    4.5002   22.7680 C.3     1  UNL1        0.0728
      3 C          -1.7032    3.5835   22.2963 C.3     1  UNL1        0.0298
      4 C          -1.6258    3.1925   20.8502 C.3     1  UNL1        0.1147
      5 C          -2.6378    3.7183   19.8759 C.3     1  UNL1        0.0298
      6 C          -3.7274    4.6349   20.3476 C.3     1  UNL1        0.0728
      7 C          -0.5362    2.2758   20.3785 C.2     1  UNL1        0.3507
      8 N          -0.2383    0.9088   20.9193 N.2     1  UNL1       -0.0350
      9 C           0.9287    0.3533   20.1581 C.2     1  UNL1        0.2324
     10 C           1.6606   -0.9524   20.2551 C.2     1  UNL1        0.0598
     11 C           2.8159   -1.2344   19.3409 C.2     1  UNL1        0.0648
     12 C           3.2393   -0.2106   18.3297 C.2     1  UNL1       -0.0258
     13 C           4.3946   -0.4926   17.4155 C.3     1  UNL1        0.0275
     14 C           2.5075    1.0951   18.2326 C.3     1  UNL1        0.1004
     15 C           1.3522    1.3771   19.1468 C.2     1  UNL1        0.2171
     16 N           0.4468    2.5652   19.2830 N.2     1  UNL1       -0.0389
     17 C           3.5478   -2.5401   19.4379 C.1     1  UNL1        0.0999
     18 N           4.2797   -3.8459   19.5350 N.1     1  UNL1       -0.1908
     19 C          -4.8944    5.9426   22.2654 C.3     1  UNL1        0.0970
     20 C          -6.2837    5.4144   22.4679 C.3     1  UNL1        0.1264
     21 C          -5.8644    5.4346   26.9483 C.ar    1  UNL1        0.1593
     22 C          -6.8425    6.1998   27.7896 C.ar    1  UNL1        0.1357
     23 N          -7.9604    6.9582   27.1375 N.ar    1  UNL1       -0.2392
     24 C          -8.1001    6.9514   25.6441 C.ar    1  UNL1        0.0975
     25 C          -9.2180    7.7099   24.9920 C.ar    1  UNL1        0.0255
     26 C          -9.3577    7.7031   23.4985 C.ar    1  UNL1        0.0623
     27 C          -8.3796    6.9380   22.6571 C.ar    1  UNL1        0.2611
     28 O          -8.5193    6.9312   21.1637 O.2     1  UNL1       -0.2670
     29 N          -7.2618    6.1795   23.3093 N.ar    1  UNL1       -0.2926
     30 C          -7.1220    6.1863   24.8028 C.ar    1  UNL1        0.0832
     31 C          -6.0042    5.4279   25.4549 C.ar    1  UNL1        0.0573
     32 C          -3.4732    4.4236   26.8490 C.3     1  UNL1        0.2525
     33 O          -4.7466    4.6762   27.6004 O.3     1  UNL1       -0.4698
@<TRIPOS>BOND
     1    32    33    1
     2    33    21    1
     3    21    22   ar
     4    22    23   ar
     5    23    24   ar
     6    24    25   ar
     7    25    26   ar
     8    26    27   ar
     9    27    28    2
    10    27    29   ar
    11    29    20    1
    12    20    19    1
    13    19     1    1
    14     1     2    1
    15     2     3    1
    16     3     4    1
    17     4     7    1
    18     7     8    2
    19     8     9    1
    20     9    10    2
    21    10    11    1
    22    11    17    1
    23    17    18    3
    24    11    12    2
    25    12    13    1
    26    12    14    1
    27    14    15    1
    28    15    16    2
    29     4     5    1
    30     5     6    1
    31    29    30   ar
    32    30    31   ar
    33    31    21   ar
    34    30    24   ar
    35     6     1    1
    36    16     7    1
    37    15     9    1
@<TRIPOS>MOLECULE
*****
 33 37 0 0 0
SMALL
GASTEIGER

@<TRIPOS>ATOM
      1 N           4.6103   -1.6727   24.1518 N.3     1  UNL1       -0.2710
      2 C           5.2674   -1.9658   25.4680 C.3     1  UNL1        0.0728
      3 C           4.7733   -1.2995   26.7178 C.3     1  UNL1        0.0298
      4 C           3.6222   -0.3401   26.6513 C.3     1  UNL1        0.1147
      5 C           2.9652   -0.0470   25.3351 C.3     1  UNL1        0.0298
      6 C           3.4592   -0.7133   24.0854 C.3     1  UNL1        0.0728
      7 C           3.1281    0.3263   27.9011 C.2     1  UNL1        0.3507
      8 N           3.6506    0.0968   29.2883 N.2     1  UNL1       -0.0350
      9 C           2.8701    0.9678   30.2275 C.2     1  UNL1        0.2324
     10 C           2.9446    1.1610   31.7132 C.2     1  UNL1        0.0598
     11 C           2.0142    2.1220   32.3921 C.2     1  UNL1        0.0648
     12 C           1.0095    2.8899   31.5854 C.2     1  UNL1       -0.0258
     13 C           0.0792    3.8509   32.2643 C.3     1  UNL1        0.0275
     14 C           0.9350    2.6967   30.0998 C.3     1  UNL1        0.1004
     15 C           1.8653    1.7357   29.4208 C.2     1  UNL1        0.2171
     16 N           2.0248    1.3392   27.9830 N.2     1  UNL1       -0.0389
     17 C           2.0887    2.3152   33.8778 C.1     1  UNL1        0.0999
     18 N           2.1632    2.5084   35.3634 N.1     1  UNL1       -0.1908
     19 C           5.1045   -2.3391   22.9021 C.3     1  UNL1        0.0970
     20 C           4.1288   -2.7821   21.8524 C.3     1  UNL1        0.1264
     21 C           1.1935    0.1110   20.0457 C.ar    1  UNL1        0.1593
     22 C           1.3632    0.5628   18.6255 C.ar    1  UNL1        0.1357
     23 N           2.5114    0.0503   17.8075 N.ar    1  UNL1       -0.2392
     24 C           3.4898   -0.9140   18.4097 C.ar    1  UNL1        0.0975
     25 C           4.6380   -1.4265   17.5917 C.ar    1  UNL1        0.0255
     26 C           5.6164   -2.3908   18.1939 C.ar    1  UNL1        0.0623
     27 C           5.4467   -2.8427   19.6142 C.ar    1  UNL1        0.2611
     28 O           6.4251   -3.8071   20.2164 O.2     1  UNL1       -0.2670
     29 N           4.2985   -2.3302   20.4322 N.ar    1  UNL1       -0.2926
     30 C           3.3201   -1.3659   19.8299 C.ar    1  UNL1        0.0832
     31 C           2.1719   -0.8534   20.6479 C.ar    1  UNL1        0.0573
     32 C          -0.4301    2.0351   20.6872 C.3     1  UNL1        0.2525
     33 O           0.0453    0.6234   20.8637 O.3     1  UNL1       -0.4698
@<TRIPOS>BOND
     1    32    33    1
     2    33    21    1
     3    21    22   ar
     4    22    23   ar
     5    23    24   ar
     6    24    25   ar
     7    25    26   ar
     8    26    27   ar
     9    27    28    2
    10    27    29   ar
    11    29    20    1
    12    20    19    1
    13    19     1    1
    14     1     2    1
    15     2     3    1
    16     3     4    1
    17     4     7    1
    18     7     8    2
    19     8     9    1
    20     9    10    2
    21    10    11    1
    22    11    17    1
    23    17    18    3
    24    11    12    2
    25    12    13    1
    26    12    14    1
    27    14    15    1
    28    15    16    2
    29     4     5    1
    30     5     6    1
    31    29    30   ar
    32    30    31   ar
    33    31    21   ar
    34    30    24   ar
    35     6     1    1
    36    16     7    1
    37    15     9    1
@<TRIPOS>MOLECULE
*****
 33 37 0 0 0
SMALL
GASTEIGER

@<TRIPOS>ATOM
      1 N           4.9695   -1.1742   28.9586 N.3     1  UNL1       -0.2710
      2 C           3.7297   -0.7702   28.2171 C.3     1  UNL1        0.0728
      3 C           3.6302   -1.0040   26.7389 C.3     1  UNL1        0.0298
      4 C           4.7705   -1.6418   26.0020 C.3     1  UNL1        0.1147
      5 C           6.0103   -2.0458   26.7435 C.3     1  UNL1        0.0298
      6 C           6.1098   -1.8119   28.2217 C.3     1  UNL1        0.0728
      7 C           4.6710   -1.8757   24.5236 C.2     1  UNL1        0.3507
      8 N           4.3085   -0.8498   23.4911 N.2     1  UNL1       -0.0350
      9 C           4.3300   -1.5165   22.1477 C.2     1  UNL1        0.2324
     10 C           4.0560   -1.0001   20.7663 C.2     1  UNL1        0.0598
     11 C           4.1578   -1.9217   19.5871 C.2     1  UNL1        0.0648
     12 C           4.5335   -3.3597   19.7894 C.2     1  UNL1       -0.0258
     13 C           4.6352   -4.2812   18.6102 C.3     1  UNL1        0.0275
     14 C           4.8075   -3.8761   21.1707 C.3     1  UNL1        0.1004
     15 C           4.7058   -2.9546   22.3499 C.2     1  UNL1        0.2171
     16 N           4.9165   -3.1765   23.8183 N.2     1  UNL1       -0.0389
     17 C           3.8837   -1.4052   18.2058 C.1     1  UNL1        0.0999
     18 N           3.6097   -0.8887   16.8244 N.1     1  UNL1       -0.1908
     19 C           5.0690   -0.9403   30.4370 C.3     1  UNL1        0.0970
     20 C           3.8565   -1.1022   31.3051 C.3     1  UNL1        0.1264
     21 C           0.8806    2.1692   30.4733 C.ar    1  UNL1        0.1593
     22 C           0.5726    3.1891   31.5292 C.ar    1  UNL1        0.1357
     23 N           1.2566    3.1186   32.8623 N.ar    1  UNL1       -0.2392
     24 C           2.2485    2.0282   33.1396 C.ar    1  UNL1        0.0975
     25 C           2.9325    1.9576   34.4727 C.ar    1  UNL1        0.0255
     26 C           3.9245    0.8672   34.7500 C.ar    1  UNL1        0.0623
     27 C           4.2325   -0.1528   33.6941 C.ar    1  UNL1        0.2611
     28 O           5.2245   -1.2432   33.9714 O.2     1  UNL1       -0.2670
     29 N           3.5485   -0.0823   32.3610 N.ar    1  UNL1       -0.2926
     30 C           2.5565    1.0083   32.0837 C.ar    1  UNL1        0.0832
     31 C           1.8726    1.0788   30.7506 C.ar    1  UNL1        0.0573
     32 C           0.0878    1.0108   28.2872 C.3     1  UNL1        0.2525
     33 O           0.1966    2.2397   29.1402 O.3     1  UNL1       -0.4698
@<TRIPOS>BOND
     1    32    33    1
     2    33    21    1
     3    21    22   ar
     4    22    23   ar
     5    23    24   ar
     6    24    25   ar
     7    25    26   ar
     8    26    27   ar
     9    27    28    2
    10    27    29   ar
    11    29    20    1
    12    20    19    1
    13    19     1    1
    14     1     2    1
    15     2     3    1
    16     3     4    1
    17     4     7    1
    18     7     8    2
    19     8     9    1
    20     9    10    2
    21    10    11    1
    22    11    17    1
    23    17    18    3
    24    11    12    2
    25    12    13    1
    26    12    14    1
    27    14    15    1
    28    15    16    2
    29     4     5    1
    30     5     6    1
    31    29    30   ar
    32    30    31   ar
    33    31    21   ar
    34    30    24   ar
    35     6     1    1
    36    16     7    1
    37    15     9    1
@<TRIPOS>MOLECULE
*****
 33 37 0 0 0
SMALL
GASTEIGER

@<TRIPOS>ATOM
      1 N           2.0574    0.4515   22.2746 N.3     1  UNL1       -0.2710
      2 C           1.7236    1.8480   22.7087 C.3     1  UNL1        0.0728
      3 C           0.6229    2.6031   22.0244 C.3     1  UNL1        0.0298
      4 C          -0.1439    1.9618   20.9061 C.3     1  UNL1        0.1147
      5 C           0.1900    0.5653   20.4720 C.3     1  UNL1        0.0298
      6 C           1.2907   -0.1898   21.1563 C.3     1  UNL1        0.0728
      7 C          -1.2446    2.7169   20.2217 C.2     1  UNL1        0.3507
      8 N          -2.6976    2.6867   20.5928 N.2     1  UNL1       -0.0350
      9 C          -3.4365    3.5859   19.6466 C.2     1  UNL1        0.2324
     10 C          -4.8879    3.9469   19.5319 C.2     1  UNL1        0.0598
     11 C          -5.3429    4.8939   18.4612 C.2     1  UNL1        0.0648
     12 C          -4.3466    5.4798   17.5053 C.2     1  UNL1       -0.0258
     13 C          -4.8016    6.4268   16.4347 C.3     1  UNL1        0.0275
     14 C          -2.8952    5.1189   17.6200 C.3     1  UNL1        0.1004
     15 C          -2.4401    4.1720   18.6906 C.2     1  UNL1        0.2171
     16 N          -1.0855    3.6349   19.0461 N.2     1  UNL1       -0.0389
     17 C          -6.7943    5.2548   18.3466 C.1     1  UNL1        0.0999
     18 N          -8.2457    5.6158   18.2319 N.1     1  UNL1       -0.1908
     19 C           3.1582   -0.3036   22.9590 C.3     1  UNL1        0.0970
     20 C           4.4338   -0.5976   22.2266 C.3     1  UNL1        0.1264
     21 C           4.6787    0.8290   17.9658 C.ar    1  UNL1        0.1593
     22 C           4.6864   -0.1640   16.8417 C.ar    1  UNL1        0.1357
     23 N           4.6125   -1.6327   17.1378 N.ar    1  UNL1       -0.2392
     24 C           4.5309   -2.1082   18.5581 C.ar    1  UNL1        0.0975
     25 C           4.4569   -3.5768   18.8542 C.ar    1  UNL1        0.0255
     26 C           4.3753   -4.0524   20.2744 C.ar    1  UNL1        0.0623
     27 C           4.3676   -3.0593   21.3986 C.ar    1  UNL1        0.2611
     28 O           4.2860   -3.5348   22.8189 O.2     1  UNL1       -0.2670
     29 N           4.4415   -1.5907   21.1025 N.ar    1  UNL1       -0.2926
     30 C           4.5232   -1.1151   19.6822 C.ar    1  UNL1        0.0832
     31 C           4.5971    0.3535   19.3861 C.ar    1  UNL1        0.0573
     32 C           4.6862    3.2929   18.7899 C.3     1  UNL1        0.2525
     33 O           4.7526    2.2976   17.6697 O.3     1  UNL1       -0.4698
@<TRIPOS>BOND
     1    32    33    1
     2    33    21    1
     3    21    22   ar
     4    22    23   ar
     5    23    24   ar
     6    24    25   ar
     7    25    26   ar
     8    26    27   ar
     9    27    28    2
    10    27    29   ar
    11    29    20    1
    12    20    19    1
    13    19     1    1
    14     1     2    1
    15     2     3    1
    16     3     4    1
    17     4     7    1
    18     7     8    2
    19     8     9    1
    20     9    10    2
    21    10    11    1
    22    11    17    1
    23    17    18    3
    24    11    12    2
    25    12    13    1
    26    12    14    1
    27    14    15    1
    28    15    16    2
    29     4     5    1
    30     5     6    1
    31    29    30   ar
    32    30    31   ar
    33    31    21   ar
    34    30    24   ar
    35     6     1    1
    36    16     7    1
    37    15     9    1
