@<TRIPOS>MOLECULE
*****
 35 39 0 0 0
SMALL
GASTEIGER

@<TRIPOS>ATOM
      1 C         -12.2798   -2.2235   18.9503 C.ar    1  UNL1        0.1453
      2 C         -13.5317   -2.9639   18.5833 C.ar    1  UNL1        0.0375
      3 C         -13.4856   -4.4445   18.3475 C.ar    1  UNL1        0.0033
      4 C         -12.1877   -5.1848   18.4788 C.ar    1  UNL1        0.0046
      5 C         -12.1416   -6.6655   18.2430 C.ar    1  UNL1        0.0537
      6 C         -10.8437   -7.4058   18.3743 C.ar    1  UNL1        0.0045
      7 C          -9.5918   -6.6655   18.7413 C.ar    1  UNL1        0.0001
      8 C          -9.6378   -5.1849   18.9771 C.ar    1  UNL1        0.0001
      9 C         -10.9358   -4.4445   18.8458 C.ar    1  UNL1        0.0032
     10 C         -10.9818   -2.9639   19.0816 C.ar    1  UNL1        0.0375
     11 C         -13.3935   -7.4058   17.8760 C.2     1  UNL1        0.2505
     12 O         -13.7143   -7.6683   16.4344 O.2     1  UNL1       -0.2698
     13 N         -14.3246   -7.8835   18.9506 N.am    1  UNL1       -0.2658
     14 H         -14.1141   -7.7112   19.8967 H       1  UNL1        0.1566
     15 C         -15.5766   -8.6238   18.5836 C.ar    1  UNL1        0.1344
     16 C         -16.6964   -7.9060   17.8902 C.ar    1  UNL1        0.0345
     17 C         -17.9483   -8.6462   17.5232 C.ar    1  UNL1        0.0045
     18 C         -18.0804  -10.1043   17.8496 C.ar    1  UNL1        0.0208
     19 C         -16.9606  -10.8221   18.5429 C.ar    1  UNL1        0.1003
     20 N         -15.7087  -10.0819   18.9099 N.ar    1  UNL1       -0.2290
     21 O         -12.3258   -0.7429   19.1861 O.3     1  UNL1       -0.4534
     22 C         -17.2242    1.3617   18.2772 C.ar    1  UNL1        0.1739
     23 C         -16.3412    1.8732   17.1779 C.ar    1  UNL1        0.0592
     24 C         -14.8957    1.4750   17.1302 C.ar    1  UNL1        0.0875
     25 N         -14.0127    1.9865   16.0309 N.ar    1  UNL1       -0.2435
     26 C         -12.5674    1.5882   15.9833 C.ar    1  UNL1        0.1020
     27 C         -12.0051    0.6784   17.0351 C.ar    1  UNL1        0.0581
     28 C         -12.8881    0.1669   18.1344 C.ar    1  UNL1        0.1483
     29 C         -14.3335    0.5652   18.1819 C.ar    1  UNL1        0.0554
     30 C         -15.2166    0.0536   19.2813 C.ar    1  UNL1        0.0446
     31 C         -16.6620    0.4519   19.3289 C.ar    1  UNL1        0.1726
     32 C         -19.6509    1.1368   17.3768 C.3     1  UNL1        0.2526
     33 O         -18.6697    1.7600   18.3248 O.3     1  UNL1       -0.4683
     34 O         -17.5451   -0.0596   20.4282 O.3     1  UNL1       -0.4684
     35 C         -18.3742   -1.2909   20.2126 C.3     1  UNL1        0.2526
@<TRIPOS>BOND
     1    32    33    1
     2    33    22    1
     3    22    23   ar
     4    23    24   ar
     5    24    25   ar
     6    25    26   ar
     7    26    27   ar
     8    27    28   ar
     9    28    21    1
    10    21     1    1
    11     1     2   ar
    12     2     3   ar
    13     3     4   ar
    14     4     5   ar
    15     5    11    1
    16    11    12    2
    17    11    13   am
    18    13    15    1
    19    15    16   ar
    20    16    17   ar
    21    17    18   ar
    22    18    19   ar
    23    19    20   ar
    24     5     6   ar
    25     6     7   ar
    26     7     8   ar
    27     8     9   ar
    28     9    10   ar
    29    28    29   ar
    30    29    30   ar
    31    30    31   ar
    32    31    34    1
    33    34    35    1
    34    31    22   ar
    35    29    24   ar
    36    10     1   ar
    37     9     4   ar
    38    20    15   ar
    39    13    14    1
@<TRIPOS>MOLECULE
*****
 35 39 0 0 0
SMALL
GASTEIGER

@<TRIPOS>ATOM
      1 C           2.5330    0.6222   24.7209 C.ar    1  UNL1        0.1453
      2 C           3.4929   -0.5056   24.9594 C.ar    1  UNL1        0.0375
      3 C           3.8777   -1.4146   23.8300 C.ar    1  UNL1        0.0033
      4 C           3.3026   -1.1959   22.4620 C.ar    1  UNL1        0.0046
      5 C           3.6874   -2.1050   21.3326 C.ar    1  UNL1        0.0537
      6 C           3.1123   -1.8864   19.9646 C.ar    1  UNL1        0.0045
      7 C           2.1524   -0.7586   19.7260 C.ar    1  UNL1        0.0001
      8 C           1.7676    0.1504   20.8554 C.ar    1  UNL1        0.0001
      9 C           2.3427   -0.0683   22.2234 C.ar    1  UNL1        0.0032
     10 C           1.9579    0.8408   23.3528 C.ar    1  UNL1        0.0375
     11 C           4.6473   -3.2327   21.5712 C.2     1  UNL1        0.2505
     12 O           4.1959   -4.6521   21.3937 O.2     1  UNL1       -0.2698
     13 N           6.0585   -2.9410   21.9873 N.am    1  UNL1       -0.2658
     14 H           6.3548   -2.0093   22.1038 H       1  UNL1        0.1566
     15 C           7.0185   -4.0687   22.2260 C.ar    1  UNL1        0.1344
     16 C           7.1850   -4.6325   23.6060 C.ar    1  UNL1        0.0345
     17 C           8.1449   -5.7601   23.8446 C.ar    1  UNL1        0.0045
     18 C           8.9382   -6.3239   22.7033 C.ar    1  UNL1        0.0208
     19 C           8.7717   -5.7601   21.3233 C.ar    1  UNL1        0.1003
     20 N           7.8118   -4.6325   21.0846 N.ar    1  UNL1       -0.2290
     21 O           2.1482    1.5312   25.8503 O.3     1  UNL1       -0.4534
     22 C           3.8082   -0.5036   30.5782 C.ar    1  UNL1        0.1739
     23 C           2.3097   -0.5637   30.6027 C.ar    1  UNL1        0.0592
     24 C           1.5199   -0.0701   29.4267 C.ar    1  UNL1        0.0875
     25 N           0.0214   -0.1302   29.4512 N.ar    1  UNL1       -0.2435
     26 C          -0.7682    0.3635   28.2753 C.ar    1  UNL1        0.1020
     27 C          -0.0593    0.9173   27.0750 C.ar    1  UNL1        0.0581
     28 C           1.4393    0.9774   27.0506 C.ar    1  UNL1        0.1483
     29 C           2.2289    0.4837   28.2264 C.ar    1  UNL1        0.0554
     30 C           3.7275    0.5438   28.2021 C.ar    1  UNL1        0.0446
     31 C           4.5172    0.0502   29.3779 C.ar    1  UNL1        0.1726
     32 C           4.1328   -0.6987   33.1486 C.3     1  UNL1        0.2526
     33 O           4.5979   -0.9973   31.7542 O.3     1  UNL1       -0.4683
     34 O           6.0158    0.1103   29.3536 O.3     1  UNL1       -0.4684
     35 C           6.7927   -0.8757   28.5324 C.3     1  UNL1        0.2526
@<TRIPOS>BOND
     1    32    33    1
     2    33    22    1
     3    22    23   ar
     4    23    24   ar
     5    24    25   ar
     6    25    26   ar
     7    26    27   ar
     8    27    28   ar
     9    28    21    1
    10    21     1    1
    11     1     2   ar
    12     2     3   ar
    13     3     4   ar
    14     4     5   ar
    15     5    11    1
    16    11    12    2
    17    11    13   am
    18    13    15    1
    19    15    16   ar
    20    16    17   ar
    21    17    18   ar
    22    18    19   ar
    23    19    20   ar
    24     5     6   ar
    25     6     7   ar
    26     7     8   ar
    27     8     9   ar
    28     9    10   ar
    29    28    29   ar
    30    29    30   ar
    31    30    31   ar
    32    31    34    1
    33    34    35    1
    34    31    22   ar
    35    29    24   ar
    36    10     1   ar
    37     9     4   ar
    38    20    15   ar
    39    13    14    1
@<TRIPOS>MOLECULE
*****
 35 39 0 0 0
SMALL
GASTEIGER

@<TRIPOS>ATOM
      1 C           6.9517   -2.6772   22.7633 C.ar    1  UNL1        0.1453
      2 C           6.4164   -2.3094   24.1154 C.ar    1  UNL1        0.0375
      3 C           6.5186   -3.2821   25.2526 C.ar    1  UNL1        0.0033
      4 C           7.1563   -4.6228   25.0378 C.ar    1  UNL1        0.0046
      5 C           7.2585   -5.5955   26.1751 C.ar    1  UNL1        0.0537
      6 C           7.8962   -6.9361   25.9602 C.ar    1  UNL1        0.0045
      7 C           8.4315   -7.3040   24.6081 C.ar    1  UNL1        0.0001
      8 C           8.3292   -6.3313   23.4709 C.ar    1  UNL1        0.0001
      9 C           7.6916   -4.9906   23.6858 C.ar    1  UNL1        0.0032
     10 C           7.5893   -4.0179   22.5485 C.ar    1  UNL1        0.0375
     11 C           6.7232   -5.2276   27.5271 C.2     1  UNL1        0.2505
     12 O           5.4118   -5.7878   27.9924 O.2     1  UNL1       -0.2698
     13 N           7.4992   -4.2996   28.4139 N.am    1  UNL1       -0.2658
     14 H           8.3600   -3.9319   28.1085 H       1  UNL1        0.1566
     15 C           6.9639   -3.9317   29.7660 C.ar    1  UNL1        0.1344
     16 C           7.0713   -4.9022   30.9046 C.ar    1  UNL1        0.0345
     17 C           6.5360   -4.5344   32.2567 C.ar    1  UNL1        0.0045
     18 C           5.8933   -3.1959   32.4701 C.ar    1  UNL1        0.0208
     19 C           5.7860   -2.2254   31.3315 C.ar    1  UNL1        0.1003
     20 N           6.3213   -2.5932   29.9794 N.ar    1  UNL1       -0.2290
     21 O           6.8494   -1.7045   21.6261 O.3     1  UNL1       -0.4534
     22 C           1.6781   -0.3367   20.8282 C.ar    1  UNL1        0.1739
     23 C           2.0941   -1.1161   19.6160 C.ar    1  UNL1        0.0592
     24 C           3.4909   -1.6530   19.5124 C.ar    1  UNL1        0.0875
     25 N           3.9069   -2.4325   18.3003 N.ar    1  UNL1       -0.2435
     26 C           5.3037   -2.9693   18.1967 C.ar    1  UNL1        0.1020
     27 C           6.2845   -2.7266   19.3053 C.ar    1  UNL1        0.0581
     28 C           5.8686   -1.9471   20.5175 C.ar    1  UNL1        0.1483
     29 C           4.4718   -1.4103   20.6210 C.ar    1  UNL1        0.0554
     30 C           4.0558   -0.6308   21.8333 C.ar    1  UNL1        0.0446
     31 C           2.6590   -0.0940   21.9368 C.ar    1  UNL1        0.1726
     32 C          -0.0199    1.5989   20.4815 C.3     1  UNL1        0.2526
     33 O           0.2813    0.2002   20.9318 O.3     1  UNL1       -0.4683
     34 O           2.2430    0.6855   23.1490 O.3     1  UNL1       -0.4684
     35 C           2.4958    0.1317   24.5199 C.3     1  UNL1        0.2526
@<TRIPOS>BOND
     1    32    33    1
     2    33    22    1
     3    22    23   ar
     4    23    24   ar
     5    24    25   ar
     6    25    26   ar
     7    26    27   ar
     8    27    28   ar
     9    28    21    1
    10    21     1    1
    11     1     2   ar
    12     2     3   ar
    13     3     4   ar
    14     4     5   ar
    15     5    11    1
    16    11    12    2
    17    11    13   am
    18    13    15    1
    19    15    16   ar
    20    16    17   ar
    21    17    18   ar
    22    18    19   ar
    23    19    20   ar
    24     5     6   ar
    25     6     7   ar
    26     7     8   ar
    27     8     9   ar
    28     9    10   ar
    29    28    29   ar
    30    29    30   ar
    31    30    31   ar
    32    31    34    1
    33    34    35    1
    34    31    22   ar
    35    29    24   ar
    36    10     1   ar
    37     9     4   ar
    38    20    15   ar
    39    13    14    1
@<TRIPOS>MOLECULE
*****
 35 39 0 0 0
SMALL
GASTEIGER

@<TRIPOS>ATOM
      1 C           3.9623   -1.4254   25.0371 C.ar    1  UNL1        0.1453
      2 C           3.1925   -0.2000   24.6422 C.ar    1  UNL1        0.0375
      3 C           2.8675    0.0489   23.1992 C.ar    1  UNL1        0.0033
      4 C           3.3121   -0.9276   22.1510 C.ar    1  UNL1        0.0046
      5 C           2.9870   -0.6786   20.7079 C.ar    1  UNL1        0.0537
      6 C           3.4317   -1.6551   19.6597 C.ar    1  UNL1        0.0045
      7 C           4.2014   -2.8806   20.0545 C.ar    1  UNL1        0.0001
      8 C           4.5265   -3.1294   21.4976 C.ar    1  UNL1        0.0001
      9 C           4.0818   -2.1530   22.5458 C.ar    1  UNL1        0.0032
     10 C           4.4069   -2.4019   23.9889 C.ar    1  UNL1        0.0375
     11 C           2.2173    0.5468   20.3131 C.2     1  UNL1        0.2505
     12 O           2.9128    1.8727   20.2231 O.2     1  UNL1       -0.2698
     13 N           0.7521    0.4462   20.0082 N.am    1  UNL1       -0.2658
     14 H           0.2956   -0.4241   20.0673 H       1  UNL1        0.1566
     15 C          -0.0177    1.6716   19.6134 C.ar    1  UNL1        0.1344
     16 C           0.2364    2.3215   18.2856 C.ar    1  UNL1        0.0345
     17 C          -0.5333    3.5469   17.8908 C.ar    1  UNL1        0.0045
     18 C          -1.5572    4.1223   18.8237 C.ar    1  UNL1        0.0208
     19 C          -1.8113    3.4724   20.1515 C.ar    1  UNL1        0.1003
     20 N          -1.0416    2.2471   20.5463 N.ar    1  UNL1       -0.2290
     21 O           4.2873   -1.6743   26.4801 O.3     1  UNL1       -0.4534
     22 C           1.7199    1.1402   30.3189 C.ar    1  UNL1        0.1739
     23 C           3.0973    1.7264   30.2243 C.ar    1  UNL1        0.0592
     24 C           4.0836    1.1694   29.2408 C.ar    1  UNL1        0.0875
     25 N           5.4610    1.7556   29.1462 N.ar    1  UNL1       -0.2435
     26 C           6.4472    1.1986   28.1628 C.ar    1  UNL1        0.1020
     27 C           6.0560    0.0553   27.2741 C.ar    1  UNL1        0.0581
     28 C           4.6786   -0.5310   27.3688 C.ar    1  UNL1        0.1483
     29 C           3.6924    0.0261   28.3521 C.ar    1  UNL1        0.0554
     30 C           2.3149   -0.5602   28.4469 C.ar    1  UNL1        0.0446
     31 C           1.3287   -0.0031   29.4302 C.ar    1  UNL1        0.1726
     32 C           1.2191    2.4204   32.5236 C.3     1  UNL1        0.2526
     33 O           0.7336    1.6972   31.3023 O.3     1  UNL1       -0.4683
     34 O          -0.0488   -0.5894   29.5250 O.3     1  UNL1       -0.4684
     35 C          -1.1485   -0.0660   28.6494 C.3     1  UNL1        0.2526
@<TRIPOS>BOND
     1    32    33    1
     2    33    22    1
     3    22    23   ar
     4    23    24   ar
     5    24    25   ar
     6    25    26   ar
     7    26    27   ar
     8    27    28   ar
     9    28    21    1
    10    21     1    1
    11     1     2   ar
    12     2     3   ar
    13     3     4   ar
    14     4     5   ar
    15     5    11    1
    16    11    12    2
    17    11    13   am
    18    13    15    1
    19    15    16   ar
    20    16    17   ar
    21    17    18   ar
    22    18    19   ar
    23    19    20   ar
    24     5     6   ar
    25     6     7   ar
    26     7     8   ar
    27     8     9   ar
    28     9    10   ar
    29    28    29   ar
    30    29    30   ar
    31    30    31   ar
    32    31    34    1
    33    34    35    1
    34    31    22   ar
    35    29    24   ar
    36    10     1   ar
    37     9     4   ar
    38    20    15   ar
    39    13    14    1
@<TRIPOS>MOLECULE
*****
 35 39 0 0 0
SMALL
GASTEIGER

@<TRIPOS>ATOM
      1 C         -16.2227    0.6529   19.4915 C.ar    1  UNL1        0.1453
      2 C         -16.7130   -0.7244   19.8273 C.ar    1  UNL1        0.0375
      3 C         -15.8030   -1.9054   19.6626 C.ar    1  UNL1        0.0033
      4 C         -14.4027   -1.7091   19.1620 C.ar    1  UNL1        0.0046
      5 C         -13.4926   -2.8902   18.9973 C.ar    1  UNL1        0.0537
      6 C         -12.0923   -2.6939   18.4967 C.ar    1  UNL1        0.0045
      7 C         -11.6020   -1.3166   18.1609 C.ar    1  UNL1        0.0001
      8 C         -12.5120   -0.1357   18.3256 C.ar    1  UNL1        0.0001
      9 C         -13.9124   -0.3319   18.8262 C.ar    1  UNL1        0.0032
     10 C         -14.8224    0.8491   18.9909 C.ar    1  UNL1        0.0375
     11 C         -13.9830   -4.2674   19.3331 C.2     1  UNL1        0.2505
     12 O         -13.7496   -4.8334   20.7025 O.2     1  UNL1       -0.2698
     13 N         -14.7067   -5.0785   18.2996 N.am    1  UNL1       -0.2658
     14 H         -14.8599   -4.7070   17.4009 H       1  UNL1        0.1566
     15 C         -15.1970   -6.4558   18.6354 C.ar    1  UNL1        0.1344
     16 C         -16.5094   -6.6337   19.3398 C.ar    1  UNL1        0.0345
     17 C         -16.9997   -8.0109   19.6756 C.ar    1  UNL1        0.0045
     18 C         -16.1778   -9.2102   19.3071 C.ar    1  UNL1        0.0208
     19 C         -14.8655   -9.0324   18.6027 C.ar    1  UNL1        0.1003
     20 N         -14.3751   -7.6552   18.2669 N.ar    1  UNL1       -0.2290
     21 O         -17.1327    1.8338   19.6562 O.3     1  UNL1       -0.4534
     22 C         -15.5525    5.0789   23.6839 C.ar    1  UNL1        0.1739
     23 C         -16.8290    4.4384   24.1422 C.ar    1  UNL1        0.0592
     24 C         -17.5433    3.4669   23.2499 C.ar    1  UNL1        0.0875
     25 N         -18.8198    2.8264   23.7082 N.ar    1  UNL1       -0.2435
     26 C         -19.5340    1.8550   22.8159 C.ar    1  UNL1        0.1020
     27 C         -18.9716    1.5242   21.4652 C.ar    1  UNL1        0.0581
     28 C         -17.6951    2.1647   21.0069 C.ar    1  UNL1        0.1483
     29 C         -16.9809    3.1361   21.8992 C.ar    1  UNL1        0.0554
     30 C         -15.7043    3.7767   21.4409 C.ar    1  UNL1        0.0446
     31 C         -14.9901    4.7481   22.3332 C.ar    1  UNL1        0.1726
     32 C         -14.5645    5.6929   26.0071 C.3     1  UNL1        0.2526
     33 O         -14.8382    6.0504   24.5762 O.3     1  UNL1       -0.4683
     34 O         -13.7135    5.3887   21.8749 O.3     1  UNL1       -0.4684
     35 C         -13.7574    6.6059   20.9994 C.3     1  UNL1        0.2526
@<TRIPOS>BOND
     1    32    33    1
     2    33    22    1
     3    22    23   ar
     4    23    24   ar
     5    24    25   ar
     6    25    26   ar
     7    26    27   ar
     8    27    28   ar
     9    28    21    1
    10    21     1    1
    11     1     2   ar
    12     2     3   ar
    13     3     4   ar
    14     4     5   ar
    15     5    11    1
    16    11    12    2
    17    11    13   am
    18    13    15    1
    19    15    16   ar
    20    16    17   ar
    21    17    18   ar
    22    18    19   ar
    23    19    20   ar
    24     5     6   ar
    25     6     7   ar
    26     7     8   ar
    27     8     9   ar
    28     9    10   ar
    29    28    29   ar
    30    29    30   ar
    31    30    31   ar
    32    31    34    1
    33    34    35    1
    34    31    22   ar
    35    29    24   ar
    36    10     1   ar
    37     9     4   ar
    38    20    15   ar
    39    13    14    1
@<TRIPOS>MOLECULE
*****
 35 39 0 0 0
SMALL
GASTEIGER

@<TRIPOS>ATOM
      1 C           5.2782   -1.5084   33.1513 C.ar    1  UNL1        0.1453
      2 C           6.0752   -2.7038   32.7201 C.ar    1  UNL1        0.0375
      3 C           6.3322   -2.9479   31.2626 C.ar    1  UNL1        0.0033
      4 C           5.7922   -1.9965   30.2362 C.ar    1  UNL1        0.0046
      5 C           6.0492   -2.2406   28.7787 C.ar    1  UNL1        0.0537
      6 C           5.5092   -1.2893   27.7523 C.ar    1  UNL1        0.0045
      7 C           4.7121   -0.0939   28.1835 C.ar    1  UNL1        0.0001
      8 C           4.4552    0.1501   29.6411 C.ar    1  UNL1        0.0001
      9 C           4.9952   -0.8012   30.6674 C.ar    1  UNL1        0.0032
     10 C           4.7382   -0.5571   32.1250 C.ar    1  UNL1        0.0375
     11 C           6.8462   -3.4360   28.3475 C.2     1  UNL1        0.2505
     12 O           8.3399   -3.3444   28.2455 O.2     1  UNL1       -0.2698
     13 N           6.1494   -4.7229   28.0184 N.am    1  UNL1       -0.2658
     14 H           5.1690   -4.7830   28.0854 H       1  UNL1        0.1566
     15 C           6.9464   -5.9183   27.5872 C.ar    1  UNL1        0.1344
     16 C           6.9171   -6.3622   26.1547 C.ar    1  UNL1        0.0345
     17 C           7.7140   -7.5576   25.7235 C.ar    1  UNL1        0.0045
     18 C           8.5403   -8.3090   26.7248 C.ar    1  UNL1        0.0208
     19 C           8.5696   -7.8651   28.1573 C.ar    1  UNL1        0.1003
     20 N           7.7727   -6.6697   28.5885 N.ar    1  UNL1       -0.2290
     21 O           5.0213   -1.2644   34.6088 O.3     1  UNL1       -0.4534
     22 C           4.1615    2.2268   38.6489 C.ar    1  UNL1        0.1739
     23 C           5.6246    2.3121   38.3297 C.ar    1  UNL1        0.0592
     24 C           6.2054    1.4606   37.2398 C.ar    1  UNL1        0.0875
     25 N           7.6685    1.5459   36.9206 N.ar    1  UNL1       -0.2435
     26 C           8.2492    0.6944   35.8308 C.ar    1  UNL1        0.1020
     27 C           7.3668   -0.2424   35.0602 C.ar    1  UNL1        0.0581
     28 C           5.9037   -0.3276   35.3794 C.ar    1  UNL1        0.1483
     29 C           5.3230    0.5238   36.4692 C.ar    1  UNL1        0.0554
     30 C           3.8598    0.4386   36.7885 C.ar    1  UNL1        0.0446
     31 C           3.2791    1.2901   37.8783 C.ar    1  UNL1        0.1726
     32 C           4.3228    4.2898   40.2199 C.3     1  UNL1        0.2526
     33 O           3.5807    3.0784   39.7387 O.3     1  UNL1       -0.4683
     34 O           1.8159    1.2049   38.1975 O.3     1  UNL1       -0.4684
     35 C           1.3404    0.3100   39.3035 C.3     1  UNL1        0.2526
@<TRIPOS>BOND
     1    32    33    1
     2    33    22    1
     3    22    23   ar
     4    23    24   ar
     5    24    25   ar
     6    25    26   ar
     7    26    27   ar
     8    27    28   ar
     9    28    21    1
    10    21     1    1
    11     1     2   ar
    12     2     3   ar
    13     3     4   ar
    14     4     5   ar
    15     5    11    1
    16    11    12    2
    17    11    13   am
    18    13    15    1
    19    15    16   ar
    20    16    17   ar
    21    17    18   ar
    22    18    19   ar
    23    19    20   ar
    24     5     6   ar
    25     6     7   ar
    26     7     8   ar
    27     8     9   ar
    28     9    10   ar
    29    28    29   ar
    30    29    30   ar
    31    30    31   ar
    32    31    34    1
    33    34    35    1
    34    31    22   ar
    35    29    24   ar
    36    10     1   ar
    37     9     4   ar
    38    20    15   ar
    39    13    14    1
@<TRIPOS>MOLECULE
*****
 35 39 0 0 0
SMALL
GASTEIGER

@<TRIPOS>ATOM
      1 C          -0.4730    2.9221   20.7333 C.ar    1  UNL1        0.1453
      2 C          -0.2026    1.4609   20.5289 C.ar    1  UNL1        0.0375
      3 C           1.0459    1.0206   19.8238 C.ar    1  UNL1        0.0033
      4 C           2.0241    2.0415   19.3230 C.ar    1  UNL1        0.0046
      5 C           3.2727    1.6012   18.6178 C.ar    1  UNL1        0.0537
      6 C           4.2509    2.6221   18.1169 C.ar    1  UNL1        0.0045
      7 C           3.9806    4.0833   18.3213 C.ar    1  UNL1        0.0001
      8 C           2.7321    4.5236   19.0265 C.ar    1  UNL1        0.0001
      9 C           1.7538    3.5027   19.5273 C.ar    1  UNL1        0.0032
     10 C           0.5053    3.9431   20.2325 C.ar    1  UNL1        0.0375
     11 C           3.5430    0.1400   18.4134 C.2     1  UNL1        0.2505
     12 O           3.4588   -0.4532   17.0383 O.2     1  UNL1       -0.2698
     13 N           3.8975   -0.7280   19.5842 N.am    1  UNL1       -0.2658
     14 H           3.9528   -0.3387   20.4868 H       1  UNL1        0.1566
     15 C           4.1679   -2.1893   19.3799 C.ar    1  UNL1        0.1344
     16 C           5.5763   -2.6738   19.2023 C.ar    1  UNL1        0.0345
     17 C           5.8467   -4.1350   18.9980 C.ar    1  UNL1        0.0045
     18 C           4.7086   -5.1117   18.9713 C.ar    1  UNL1        0.0208
     19 C           3.3001   -4.6272   19.1489 C.ar    1  UNL1        0.1003
     20 N           3.0298   -3.1660   19.3532 N.ar    1  UNL1       -0.2290
     21 O          -1.7215    3.3624   21.4385 O.3     1  UNL1       -0.4534
     22 C          -6.8912    4.2404   22.7623 C.ar    1  UNL1        0.1739
     23 C          -6.8181    4.3606   21.2690 C.ar    1  UNL1        0.0592
     24 C          -5.5073    4.1712   20.5646 C.ar    1  UNL1        0.0875
     25 N          -5.4341    4.2914   19.0713 N.ar    1  UNL1       -0.2435
     26 C          -4.1234    4.1019   18.3670 C.ar    1  UNL1        0.1020
     27 C          -2.8858    3.7923   19.1561 C.ar    1  UNL1        0.0581
     28 C          -2.9590    3.6721   20.6494 C.ar    1  UNL1        0.1483
     29 C          -4.2697    3.8615   21.3537 C.ar    1  UNL1        0.0554
     30 C          -4.3430    3.7413   22.8471 C.ar    1  UNL1        0.0446
     31 C          -5.6537    3.9307   23.5514 C.ar    1  UNL1        0.1726
     32 C          -8.4625    5.6880   24.2407 C.3     1  UNL1        0.2526
     33 O          -8.2020    4.4298   23.4667 O.3     1  UNL1       -0.4683
     34 O          -5.7269    3.8105   25.0448 O.3     1  UNL1       -0.4684
     35 C          -4.4855    3.9685   25.8717 C.3     1  UNL1        0.2526
@<TRIPOS>BOND
     1    32    33    1
     2    33    22    1
     3    22    23   ar
     4    23    24   ar
     5    24    25   ar
     6    25    26   ar
     7    26    27   ar
     8    27    28   ar
     9    28    21    1
    10    21     1    1
    11     1     2   ar
    12     2     3   ar
    13     3     4   ar
    14     4     5   ar
    15     5    11    1
    16    11    12    2
    17    11    13   am
    18    13    15    1
    19    15    16   ar
    20    16    17   ar
    21    17    18   ar
    22    18    19   ar
    23    19    20   ar
    24     5     6   ar
    25     6     7   ar
    26     7     8   ar
    27     8     9   ar
    28     9    10   ar
    29    28    29   ar
    30    29    30   ar
    31    30    31   ar
    32    31    34    1
    33    34    35    1
    34    31    22   ar
    35    29    24   ar
    36    10     1   ar
    37     9     4   ar
    38    20    15   ar
    39    13    14    1
@<TRIPOS>MOLECULE
*****
 35 39 0 0 0
SMALL
GASTEIGER

@<TRIPOS>ATOM
      1 C           4.6763   -1.0689   33.7454 C.ar    1  UNL1        0.1453
      2 C           3.6740   -0.1477   33.1153 C.ar    1  UNL1        0.0375
      3 C           3.5654   -0.0664   31.6215 C.ar    1  UNL1        0.0033
      4 C           4.4590   -0.9062   30.7577 C.ar    1  UNL1        0.0046
      5 C           4.3503   -0.8249   29.2638 C.ar    1  UNL1        0.0537
      6 C           5.2439   -1.6647   28.4000 C.ar    1  UNL1        0.0045
      7 C           6.2463   -2.5858   29.0301 C.ar    1  UNL1        0.0001
      8 C           6.3549   -2.6671   30.5239 C.ar    1  UNL1        0.0001
      9 C           5.4613   -1.8273   31.3877 C.ar    1  UNL1        0.0032
     10 C           5.5700   -1.9086   32.8816 C.ar    1  UNL1        0.0375
     11 C           3.3480    0.0962   28.6338 C.2     1  UNL1        0.2505
     12 O           3.6507    1.5598   28.5064 O.2     1  UNL1       -0.2698
     13 N           2.0431   -0.4463   28.1312 N.am    1  UNL1       -0.2658
     14 H           1.8444   -1.4069   28.2148 H       1  UNL1        0.1566
     15 C           1.0407    0.4748   27.5011 C.ar    1  UNL1        0.1344
     16 C          -0.2171    0.8307   28.2369 C.ar    1  UNL1        0.0345
     17 C          -1.2194    1.7518   27.6069 C.ar    1  UNL1        0.0045
     18 C          -0.9640    2.3170   26.2412 C.ar    1  UNL1        0.0208
     19 C           0.2938    1.9611   25.5054 C.ar    1  UNL1        0.1003
     20 N           1.2961    1.0400   26.1354 N.ar    1  UNL1       -0.2290
     21 O           4.7850   -1.1502   35.2393 O.3     1  UNL1       -0.4534
     22 C           3.7819    2.6234   38.9814 C.ar    1  UNL1        0.1739
     23 C           5.2592    2.6730   38.7262 C.ar    1  UNL1        0.0592
     24 C           5.8793    1.7419   37.7268 C.ar    1  UNL1        0.0875
     25 N           7.3566    1.7915   37.4716 N.ar    1  UNL1       -0.2435
     26 C           7.9767    0.8605   36.4723 C.ar    1  UNL1        0.1020
     27 C           7.1194   -0.1201   35.7282 C.ar    1  UNL1        0.0581
     28 C           5.6422   -0.1696   35.9834 C.ar    1  UNL1        0.1483
     29 C           5.0221    0.7614   36.9827 C.ar    1  UNL1        0.0554
     30 C           3.5448    0.7119   37.2380 C.ar    1  UNL1        0.0446
     31 C           2.9247    1.6429   38.2373 C.ar    1  UNL1        0.1726
     32 C           3.9682    4.6795   40.5587 C.3     1  UNL1        0.2526
     33 O           3.1618    3.5545   39.9808 O.3     1  UNL1       -0.4683
     34 O           1.4474    1.5934   38.4925 O.3     1  UNL1       -0.4684
     35 C           0.8841    0.5787   39.4429 C.3     1  UNL1        0.2526
@<TRIPOS>BOND
     1    32    33    1
     2    33    22    1
     3    22    23   ar
     4    23    24   ar
     5    24    25   ar
     6    25    26   ar
     7    26    27   ar
     8    27    28   ar
     9    28    21    1
    10    21     1    1
    11     1     2   ar
    12     2     3   ar
    13     3     4   ar
    14     4     5   ar
    15     5    11    1
    16    11    12    2
    17    11    13   am
    18    13    15    1
    19    15    16   ar
    20    16    17   ar
    21    17    18   ar
    22    18    19   ar
    23    19    20   ar
    24     5     6   ar
    25     6     7   ar
    26     7     8   ar
    27     8     9   ar
    28     9    10   ar
    29    28    29   ar
    30    29    30   ar
    31    30    31   ar
    32    31    34    1
    33    34    35    1
    34    31    22   ar
    35    29    24   ar
    36    10     1   ar
    37     9     4   ar
    38    20    15   ar
    39    13    14    1
@<TRIPOS>MOLECULE
*****
 35 39 0 0 0
SMALL
GASTEIGER

@<TRIPOS>ATOM
      1 C           2.0831   -0.5593   20.0005 C.ar    1  UNL1        0.1453
      2 C           1.1131    0.2817   19.2246 C.ar    1  UNL1        0.0375
      3 C           0.2986    1.3275   19.9265 C.ar    1  UNL1        0.0033
      4 C           0.4540    1.5324   21.4043 C.ar    1  UNL1        0.0046
      5 C          -0.3607    2.5782   22.1063 C.ar    1  UNL1        0.0537
      6 C          -0.2053    2.7831   23.5841 C.ar    1  UNL1        0.0045
      7 C           0.7647    1.9421   24.3599 C.ar    1  UNL1        0.0001
      8 C           1.5793    0.8963   23.6580 C.ar    1  UNL1        0.0001
      9 C           1.4239    0.6914   22.1802 C.ar    1  UNL1        0.0032
     10 C           2.2385   -0.3544   21.4783 C.ar    1  UNL1        0.0375
     11 C          -1.3306    3.4192   21.3304 C.2     1  UNL1        0.2505
     12 O          -0.9390    4.7966   20.8839 O.2     1  UNL1       -0.2698
     13 N          -2.6921    2.8827   21.0011 N.am    1  UNL1       -0.2658
     14 H          -2.9491    1.9787   21.2942 H       1  UNL1        0.1566
     15 C          -3.6621    3.7237   20.2252 C.ar    1  UNL1        0.1344
     16 C          -3.5351    3.8326   18.7346 C.ar    1  UNL1        0.0345
     17 C          -4.5051    4.6734   17.9587 C.ar    1  UNL1        0.0045
     18 C          -5.6020    5.4054   18.6735 C.ar    1  UNL1        0.0208
     19 C          -5.7290    5.2965   20.1641 C.ar    1  UNL1        0.1003
     20 N          -4.7590    4.4557   20.9400 N.ar    1  UNL1       -0.2290
     21 O           2.8977   -1.6051   19.2985 O.3     1  UNL1       -0.4534
     22 C           7.9500   -3.1066   20.5105 C.ar    1  UNL1        0.1739
     23 C           8.0655   -2.1425   19.3672 C.ar    1  UNL1        0.0592
     24 C           6.8312   -1.5261   18.7783 C.ar    1  UNL1        0.0875
     25 N           6.9467   -0.5620   17.6350 N.ar    1  UNL1       -0.2435
     26 C           5.7125    0.0544   17.0462 C.ar    1  UNL1        0.1020
     27 C           4.3628   -0.2933   17.6007 C.ar    1  UNL1        0.0581
     28 C           4.2474   -1.2574   18.7440 C.ar    1  UNL1        0.1483
     29 C           5.4816   -1.8738   19.3328 C.ar    1  UNL1        0.0554
     30 C           5.3661   -2.8379   20.4762 C.ar    1  UNL1        0.0446
     31 C           6.6004   -3.4543   21.0650 C.ar    1  UNL1        0.1726
     32 C           9.5332   -5.1480   20.7868 C.3     1  UNL1        0.2526
     33 O           9.1843   -3.7230   21.0993 O.3     1  UNL1       -0.4683
     34 O           6.4849   -4.4184   22.2083 O.3     1  UNL1       -0.4684
     35 C           6.4785   -3.9107   23.6198 C.3     1  UNL1        0.2526
@<TRIPOS>BOND
     1    32    33    1
     2    33    22    1
     3    22    23   ar
     4    23    24   ar
     5    24    25   ar
     6    25    26   ar
     7    26    27   ar
     8    27    28   ar
     9    28    21    1
    10    21     1    1
    11     1     2   ar
    12     2     3   ar
    13     3     4   ar
    14     4     5   ar
    15     5    11    1
    16    11    12    2
    17    11    13   am
    18    13    15    1
    19    15    16   ar
    20    16    17   ar
    21    17    18   ar
    22    18    19   ar
    23    19    20   ar
    24     5     6   ar
    25     6     7   ar
    26     7     8   ar
    27     8     9   ar
    28     9    10   ar
    29    28    29   ar
    30    29    30   ar
    31    30    31   ar
    32    31    34    1
    33    34    35    1
    34    31    22   ar
    35    29    24   ar
    36    10     1   ar
    37     9     4   ar
    38    20    15   ar
    39    13    14    1
