@<TRIPOS>MOLECULE
*****
 20 22 0 0 0
SMALL
GASTEIGER

@<TRIPOS>ATOM
      1 C          -7.9178  -19.3537   22.5875 C.2     1  UNL1        0.0421
      2 C          -6.8300  -20.3363   22.2697 C.2     1  UNL1        0.0033
      3 C          -5.5698  -19.8704   21.6027 C.ar    1  UNL1        0.0001
      4 C          -5.0987  -20.5339   20.3426 C.ar    1  UNL1        0.0000
      5 C          -3.8385  -20.0681   19.6757 C.ar    1  UNL1        0.0000
      6 C          -3.0493  -18.9386   20.2688 C.ar    1  UNL1        0.0000
      7 C          -1.7892  -18.4728   19.6018 C.ar    1  UNL1        0.0000
      8 C          -1.0001  -17.3434   20.1950 C.ar    1  UNL1        0.0000
      9 C          -1.4712  -16.6799   21.4550 C.ar    1  UNL1        0.0000
     10 C          -2.7314  -17.1458   22.1220 C.ar    1  UNL1        0.0000
     11 C          -3.5205  -18.2751   21.5289 C.ar    1  UNL1        0.0000
     12 C          -4.7807  -18.7411   22.1958 C.ar    1  UNL1        0.0000
     13 O          -9.1310  -20.9475   24.2421 O.2     1  UNL1       -0.2865
     14 C          -9.1780  -19.8196   23.2544 C.2     1  UNL1        0.1971
     15 C         -10.4853  -19.1576   22.9336 C.ar    1  UNL1        0.0581
     16 C         -11.4276  -18.7834   24.0390 C.ar    1  UNL1        0.0063
     17 C         -12.7348  -18.1214   23.7181 C.ar    1  UNL1        0.0208
     18 C         -13.0997  -17.8338   22.2919 C.ar    1  UNL1        0.0989
     19 N         -12.1574  -18.2081   21.1865 N.ar    1  UNL1       -0.2422
     20 C         -10.8502  -18.8700   21.5074 C.ar    1  UNL1        0.1020
@<TRIPOS>BOND
     1    13    14    2
     2    14     1    1
     3     1     2    2
     4     2     3    1
     5     3     4   ar
     6     4     5   ar
     7     5     6   ar
     8     6     7   ar
     9     7     8   ar
    10     8     9   ar
    11     9    10   ar
    12    10    11   ar
    13    11    12   ar
    14    14    15    1
    15    15    16   ar
    16    16    17   ar
    17    17    18   ar
    18    18    19   ar
    19    19    20   ar
    20    12     3   ar
    21    20    15   ar
    22    11     6   ar
@<TRIPOS>MOLECULE
*****
 20 22 0 0 0
SMALL
GASTEIGER

@<TRIPOS>ATOM
      1 C          -6.2565  -19.2742   20.9846 C.2     1  UNL1        0.0421
      2 C          -6.9402  -20.0155   22.0950 C.2     1  UNL1        0.0033
      3 C          -8.3175  -19.6109   22.5302 C.ar    1  UNL1        0.0001
      4 C          -9.0460  -20.4201   23.5620 C.ar    1  UNL1        0.0000
      5 C         -10.4233  -20.0155   23.9972 C.ar    1  UNL1        0.0000
      6 C         -11.0721  -18.8017   23.4006 C.ar    1  UNL1        0.0000
      7 C         -12.4493  -18.3971   23.8359 C.ar    1  UNL1        0.0000
      8 C         -13.0981  -17.1834   23.2393 C.ar    1  UNL1        0.0000
      9 C         -12.3696  -16.3742   22.2076 C.ar    1  UNL1        0.0000
     10 C         -10.9923  -16.7787   21.7724 C.ar    1  UNL1        0.0000
     11 C         -10.3436  -17.9925   22.3689 C.ar    1  UNL1        0.0000
     12 C          -8.9662  -18.3971   21.9337 C.ar    1  UNL1        0.0000
     13 O          -4.6398  -21.0542   20.0008 O.2     1  UNL1       -0.2865
     14 C          -4.8792  -19.6789   20.5495 C.2     1  UNL1        0.1971
     15 C          -3.7413  -18.7081   20.6630 C.ar    1  UNL1        0.0581
     16 C          -3.4044  -18.0996   21.9920 C.ar    1  UNL1        0.0063
     17 C          -2.2665  -17.1289   22.1055 C.ar    1  UNL1        0.0208
     18 C          -1.4655  -16.7668   20.8900 C.ar    1  UNL1        0.0989
     19 N          -1.8024  -17.3753   19.5611 N.ar    1  UNL1       -0.2422
     20 C          -2.9403  -18.3460   19.4476 C.ar    1  UNL1        0.1020
@<TRIPOS>BOND
     1    13    14    2
     2    14     1    1
     3     1     2    2
     4     2     3    1
     5     3     4   ar
     6     4     5   ar
     7     5     6   ar
     8     6     7   ar
     9     7     8   ar
    10     8     9   ar
    11     9    10   ar
    12    10    11   ar
    13    11    12   ar
    14    14    15    1
    15    15    16   ar
    16    16    17   ar
    17    17    18   ar
    18    18    19   ar
    19    19    20   ar
    20    12     3   ar
    21    20    15   ar
    22    11     6   ar
@<TRIPOS>MOLECULE
*****
 20 22 0 0 0
SMALL
GASTEIGER

@<TRIPOS>ATOM
      1 C          -6.3599  -19.3057   20.9739 C.2     1  UNL1        0.0421
      2 C          -7.5905  -19.7416   20.2354 C.2     1  UNL1        0.0033
      3 C          -8.9410  -19.2637   20.6804 C.ar    1  UNL1        0.0001
      4 C          -9.8957  -18.6783   19.6825 C.ar    1  UNL1        0.0000
      5 C         -11.2461  -18.2005   20.1275 C.ar    1  UNL1        0.0000
      6 C         -11.6419  -18.3081   21.5704 C.ar    1  UNL1        0.0000
      7 C         -12.9923  -17.8303   22.0153 C.ar    1  UNL1        0.0000
      8 C         -13.3880  -17.9378   23.4581 C.ar    1  UNL1        0.0000
      9 C         -12.4332  -18.5232   24.4560 C.ar    1  UNL1        0.0000
     10 C         -11.0828  -19.0011   24.0111 C.ar    1  UNL1        0.0000
     11 C         -10.6871  -18.8935   22.5682 C.ar    1  UNL1        0.0000
     12 C          -9.3367  -19.3713   22.1232 C.ar    1  UNL1        0.0000
     13 O          -4.8376  -21.1877   20.0302 O.2     1  UNL1       -0.2865
     14 C          -5.0095  -19.7835   20.5288 C.2     1  UNL1        0.1971
     15 C          -3.8309  -18.8571   20.5824 C.ar    1  UNL1        0.0581
     16 C          -3.1425  -18.4452   19.3149 C.ar    1  UNL1        0.0063
     17 C          -1.9640  -17.5189   19.3685 C.ar    1  UNL1        0.0208
     18 C          -1.4739  -17.0043   20.6895 C.ar    1  UNL1        0.0989
     19 N          -2.1623  -17.4162   21.9569 N.ar    1  UNL1       -0.2422
     20 C          -3.3408  -18.3426   21.9034 C.ar    1  UNL1        0.1020
@<TRIPOS>BOND
     1    13    14    2
     2    14     1    1
     3     1     2    2
     4     2     3    1
     5     3     4   ar
     6     4     5   ar
     7     5     6   ar
     8     6     7   ar
     9     7     8   ar
    10     8     9   ar
    11     9    10   ar
    12    10    11   ar
    13    11    12   ar
    14    14    15    1
    15    15    16   ar
    16    16    17   ar
    17    17    18   ar
    18    18    19   ar
    19    19    20   ar
    20    12     3   ar
    21    20    15   ar
    22    11     6   ar
@<TRIPOS>MOLECULE
*****
 20 22 0 0 0
SMALL
GASTEIGER

@<TRIPOS>ATOM
      1 C          -5.2767  -17.7457   22.9382 C.2     1  UNL1        0.0421
      2 C          -5.9466  -18.7645   22.0646 C.2     1  UNL1        0.0033
      3 C          -7.3881  -18.5955   21.6852 C.ar    1  UNL1        0.0001
      4 C          -7.9502  -19.3526   20.5186 C.ar    1  UNL1        0.0000
      5 C          -9.3915  -19.1837   20.1392 C.ar    1  UNL1        0.0000
      6 C         -10.2708  -18.2577   20.9264 C.ar    1  UNL1        0.0000
      7 C         -11.7121  -18.0888   20.5469 C.ar    1  UNL1        0.0000
      8 C         -12.5913  -17.1629   21.3341 C.ar    1  UNL1        0.0000
      9 C         -12.0292  -16.4059   22.5007 C.ar    1  UNL1        0.0000
     10 C         -10.5878  -16.5748   22.8801 C.ar    1  UNL1        0.0000
     11 C          -9.7087  -17.5007   22.0929 C.ar    1  UNL1        0.0000
     12 C          -8.2672  -17.6696   22.4723 C.ar    1  UNL1        0.0000
     13 O          -3.4542  -18.0874   24.7580 O.2     1  UNL1       -0.2865
     14 C          -3.8354  -17.9147   23.3176 C.2     1  UNL1        0.1971
     15 C          -2.7751  -17.9109   22.2565 C.ar    1  UNL1        0.0581
     16 C          -2.2210  -16.6106   21.7545 C.ar    1  UNL1        0.0063
     17 C          -1.1608  -16.6068   20.6934 C.ar    1  UNL1        0.0208
     18 C          -0.6547  -17.9035   20.1343 C.ar    1  UNL1        0.0989
     19 N          -1.2088  -19.2038   20.6363 N.ar    1  UNL1       -0.2422
     20 C          -2.2690  -19.2076   21.6974 C.ar    1  UNL1        0.1020
@<TRIPOS>BOND
     1    13    14    2
     2    14     1    1
     3     1     2    2
     4     2     3    1
     5     3     4   ar
     6     4     5   ar
     7     5     6   ar
     8     6     7   ar
     9     7     8   ar
    10     8     9   ar
    11     9    10   ar
    12    10    11   ar
    13    11    12   ar
    14    14    15    1
    15    15    16   ar
    16    16    17   ar
    17    17    18   ar
    18    18    19   ar
    19    19    20   ar
    20    12     3   ar
    21    20    15   ar
    22    11     6   ar
@<TRIPOS>MOLECULE
*****
 20 22 0 0 0
SMALL
GASTEIGER

@<TRIPOS>ATOM
      1 C          -7.8465  -19.2267   19.6283 C.2     1  UNL1        0.0421
      2 C          -7.0176  -19.8750   20.6972 C.2     1  UNL1        0.0033
      3 C          -5.5938  -19.4501   20.9033 C.ar    1  UNL1        0.0001
      4 C          -5.0177  -19.4045   22.2875 C.ar    1  UNL1        0.0000
      5 C          -3.5940  -18.9796   22.4937 C.ar    1  UNL1        0.0000
      6 C          -2.7464  -18.6003   21.3157 C.ar    1  UNL1        0.0000
      7 C          -1.3227  -18.1754   21.5219 C.ar    1  UNL1        0.0000
      8 C          -0.4751  -17.7962   20.3439 C.ar    1  UNL1        0.0000
      9 C          -1.0512  -17.8418   18.9597 C.ar    1  UNL1        0.0000
     10 C          -2.4749  -18.2667   18.7535 C.ar    1  UNL1        0.0000
     11 C          -3.3225  -18.6459   19.9315 C.ar    1  UNL1        0.0000
     12 C          -4.7463  -19.0708   19.7253 C.ar    1  UNL1        0.0000
     13 O          -9.6014  -20.6890   18.3906 O.2     1  UNL1       -0.2865
     14 C          -9.2701  -19.6516   19.4222 C.2     1  UNL1        0.1971
     15 C         -10.3627  -19.0392   20.2476 C.ar    1  UNL1        0.0581
     16 C         -10.6531  -19.5700   21.6201 C.ar    1  UNL1        0.0063
     17 C         -11.7455  -18.9576   22.4455 C.ar    1  UNL1        0.0208
     18 C         -12.5476  -17.8142   21.8984 C.ar    1  UNL1        0.0989
     19 N         -12.2573  -17.2833   20.5259 N.ar    1  UNL1       -0.2422
     20 C         -11.1648  -17.8958   19.7005 C.ar    1  UNL1        0.1020
@<TRIPOS>BOND
     1    13    14    2
     2    14     1    1
     3     1     2    2
     4     2     3    1
     5     3     4   ar
     6     4     5   ar
     7     5     6   ar
     8     6     7   ar
     9     7     8   ar
    10     8     9   ar
    11     9    10   ar
    12    10    11   ar
    13    11    12   ar
    14    14    15    1
    15    15    16   ar
    16    16    17   ar
    17    17    18   ar
    18    18    19   ar
    19    19    20   ar
    20    12     3   ar
    21    20    15   ar
    22    11     6   ar
@<TRIPOS>MOLECULE
*****
 20 22 0 0 0
SMALL
GASTEIGER

@<TRIPOS>ATOM
      1 C          -9.2808  -18.2536   20.9355 C.2     1  UNL1        0.0421
      2 C          -8.5610  -19.5503   21.1603 C.2     1  UNL1        0.0033
      3 C          -7.0614  -19.5864   21.1554 C.ar    1  UNL1        0.0001
      4 C          -6.3365  -20.5107   20.2226 C.ar    1  UNL1        0.0000
      5 C          -4.8370  -20.5469   20.2176 C.ar    1  UNL1        0.0000
      6 C          -4.0623  -19.6586   21.1455 C.ar    1  UNL1        0.0000
      7 C          -2.5628  -19.6947   21.1405 C.ar    1  UNL1        0.0000
      8 C          -1.7881  -18.8065   22.0684 C.ar    1  UNL1        0.0000
      9 C          -2.5130  -17.8821   23.0012 C.ar    1  UNL1        0.0000
     10 C          -4.0126  -17.8460   23.0061 C.ar    1  UNL1        0.0000
     11 C          -4.7872  -18.7342   22.0783 C.ar    1  UNL1        0.0000
     12 C          -6.2868  -18.6981   22.0832 C.ar    1  UNL1        0.0000
     13 O         -11.5313  -18.0721   19.6501 O.2     1  UNL1       -0.2865
     14 C         -10.7803  -18.2176   20.9404 C.2     1  UNL1        0.1971
     15 C         -11.5289  -18.3271   22.2357 C.ar    1  UNL1        0.0581
     16 C         -12.9278  -17.7958   22.3407 C.ar    1  UNL1        0.0063
     17 C         -13.6763  -17.9053   23.6359 C.ar    1  UNL1        0.0208
     18 C         -13.0261  -18.5460   24.8261 C.ar    1  UNL1        0.0989
     19 N         -11.6272  -19.0772   24.7211 N.ar    1  UNL1       -0.2422
     20 C         -10.8787  -18.9678   23.4259 C.ar    1  UNL1        0.1020
@<TRIPOS>BOND
     1    13    14    2
     2    14     1    1
     3     1     2    2
     4     2     3    1
     5     3     4   ar
     6     4     5   ar
     7     5     6   ar
     8     6     7   ar
     9     7     8   ar
    10     8     9   ar
    11     9    10   ar
    12    10    11   ar
    13    11    12   ar
    14    14    15    1
    15    15    16   ar
    16    16    17   ar
    17    17    18   ar
    18    18    19   ar
    19    19    20   ar
    20    12     3   ar
    21    20    15   ar
    22    11     6   ar
@<TRIPOS>MOLECULE
*****
 20 22 0 0 0
SMALL
GASTEIGER

@<TRIPOS>ATOM
      1 C         -11.4677   -5.9497   18.7249 C.2     1  UNL1        0.0421
      2 C         -12.8936   -5.6981   19.1163 C.2     1  UNL1        0.0033
      3 C         -13.9250   -6.7698   18.9221 C.ar    1  UNL1        0.0001
      4 C         -13.5866   -8.0031   18.1383 C.ar    1  UNL1        0.0000
      5 C         -14.6179   -9.0748   17.9440 C.ar    1  UNL1        0.0000
      6 C         -15.9878   -8.9132   18.5335 C.ar    1  UNL1        0.0000
      7 C         -17.0191   -9.9849   18.3392 C.ar    1  UNL1        0.0000
      8 C         -18.3889   -9.8232   18.9287 C.ar    1  UNL1        0.0000
      9 C         -18.7273   -8.5899   19.7125 C.ar    1  UNL1        0.0000
     10 C         -17.6960   -7.5182   19.9068 C.ar    1  UNL1        0.0000
     11 C         -16.3262   -7.6799   19.3173 C.ar    1  UNL1        0.0000
     12 C         -15.2948   -6.6081   19.5116 C.ar    1  UNL1        0.0000
     13 O          -9.1948   -5.1664   19.7099 O.2     1  UNL1       -0.2865
     14 C         -10.4363   -4.8780   18.9192 C.2     1  UNL1        0.1971
     15 C         -10.6466   -3.5178   18.3226 C.ar    1  UNL1        0.0581
     16 C         -11.4694   -2.4978   19.0524 C.ar    1  UNL1        0.0063
     17 C         -11.6796   -1.1377   18.4559 C.ar    1  UNL1        0.0208
     18 C         -11.0669   -0.7976   17.1296 C.ar    1  UNL1        0.0989
     19 N         -10.2441   -1.8176   16.3999 N.ar    1  UNL1       -0.2422
     20 C         -10.0339   -3.1777   16.9964 C.ar    1  UNL1        0.1020
@<TRIPOS>BOND
     1    13    14    2
     2    14     1    1
     3     1     2    2
     4     2     3    1
     5     3     4   ar
     6     4     5   ar
     7     5     6   ar
     8     6     7   ar
     9     7     8   ar
    10     8     9   ar
    11     9    10   ar
    12    10    11   ar
    13    11    12   ar
    14    14    15    1
    15    15    16   ar
    16    16    17   ar
    17    17    18   ar
    18    18    19   ar
    19    19    20   ar
    20    12     3   ar
    21    20    15   ar
    22    11     6   ar
@<TRIPOS>MOLECULE
*****
 20 22 0 0 0
SMALL
GASTEIGER

@<TRIPOS>ATOM
      1 C         -15.4885   -9.4138   17.8412 C.2     1  UNL1        0.0421
      2 C         -14.5265   -8.6583   18.7094 C.2     1  UNL1        0.0033
      3 C         -13.4697   -7.7965   18.0843 C.ar    1  UNL1        0.0001
      4 C         -13.2169   -7.8721   16.6077 C.ar    1  UNL1        0.0000
      5 C         -12.1602   -7.0104   15.9827 C.ar    1  UNL1        0.0000
      6 C         -11.3563   -6.0730   16.8342 C.ar    1  UNL1        0.0000
      7 C         -10.2996   -5.2112   16.2091 C.ar    1  UNL1        0.0000
      8 C          -9.4958   -4.2739   17.0607 C.ar    1  UNL1        0.0000
      9 C          -9.7486   -4.1983   18.5373 C.ar    1  UNL1        0.0000
     10 C         -10.8053   -5.0600   19.1623 C.ar    1  UNL1        0.0000
     11 C         -11.6091   -5.9974   18.3108 C.ar    1  UNL1        0.0000
     12 C         -12.6659   -6.8592   18.9359 C.ar    1  UNL1        0.0000
     13 O         -16.2958  -11.7409   18.6676 O.2     1  UNL1       -0.2865
     14 C         -16.5452  -10.2756   18.4663 C.2     1  UNL1        0.1971
     15 C         -17.8514   -9.6720   18.8902 C.ar    1  UNL1        0.0581
     16 C         -17.8852   -8.6553   19.9925 C.ar    1  UNL1        0.0063
     17 C         -19.1913   -8.0517   20.4163 C.ar    1  UNL1        0.0208
     18 C         -20.4637   -8.4649   19.7378 C.ar    1  UNL1        0.0989
     19 N         -20.4299   -9.4816   18.6354 N.ar    1  UNL1       -0.2422
     20 C         -19.1238  -10.0851   18.2117 C.ar    1  UNL1        0.1020
@<TRIPOS>BOND
     1    13    14    2
     2    14     1    1
     3     1     2    2
     4     2     3    1
     5     3     4   ar
     6     4     5   ar
     7     5     6   ar
     8     6     7   ar
     9     7     8   ar
    10     8     9   ar
    11     9    10   ar
    12    10    11   ar
    13    11    12   ar
    14    14    15    1
    15    15    16   ar
    16    16    17   ar
    17    17    18   ar
    18    18    19   ar
    19    19    20   ar
    20    12     3   ar
    21    20    15   ar
    22    11     6   ar
@<TRIPOS>MOLECULE
*****
 20 22 0 0 0
SMALL
GASTEIGER

@<TRIPOS>ATOM
      1 C          -7.7480  -19.7194   22.5198 C.2     1  UNL1        0.0421
      2 C          -7.0062  -18.4903   22.9542 C.2     1  UNL1        0.0033
      3 C          -5.6055  -18.2506   22.4738 C.ar    1  UNL1        0.0001
      4 C          -4.6233  -17.5348   23.3530 C.ar    1  UNL1        0.0000
      5 C          -3.2227  -17.2951   22.8727 C.ar    1  UNL1        0.0000
      6 C          -2.8041  -17.7713   21.5132 C.ar    1  UNL1        0.0000
      7 C          -1.4035  -17.5316   21.0329 C.ar    1  UNL1        0.0000
      8 C          -0.9850  -18.0078   19.6735 C.ar    1  UNL1        0.0000
      9 C          -1.9672  -18.7236   18.7943 C.ar    1  UNL1        0.0000
     10 C          -3.3679  -18.9633   19.2746 C.ar    1  UNL1        0.0000
     11 C          -3.7863  -18.4871   20.6340 C.ar    1  UNL1        0.0000
     12 C          -5.1870  -18.7268   21.1144 C.ar    1  UNL1        0.0000
     13 O          -9.4102  -20.9737   24.0735 O.2     1  UNL1       -0.2865
     14 C          -9.1487  -19.9590   23.0001 C.2     1  UNL1        0.1971
     15 C         -10.2879  -19.1840   22.4071 C.ar    1  UNL1        0.0581
     16 C         -10.2959  -18.8656   20.9414 C.ar    1  UNL1        0.0063
     17 C         -11.4350  -18.0906   20.3484 C.ar    1  UNL1        0.0208
     18 C         -12.5662  -17.6339   21.2213 C.ar    1  UNL1        0.0989
     19 N         -12.5582  -17.9523   22.6871 N.ar    1  UNL1       -0.2422
     20 C         -11.4190  -18.7273   23.2800 C.ar    1  UNL1        0.1020
@<TRIPOS>BOND
     1    13    14    2
     2    14     1    1
     3     1     2    2
     4     2     3    1
     5     3     4   ar
     6     4     5   ar
     7     5     6   ar
     8     6     7   ar
     9     7     8   ar
    10     8     9   ar
    11     9    10   ar
    12    10    11   ar
    13    11    12   ar
    14    14    15    1
    15    15    16   ar
    16    16    17   ar
    17    17    18   ar
    18    18    19   ar
    19    19    20   ar
    20    12     3   ar
    21    20    15   ar
    22    11     6   ar
