@<TRIPOS>MOLECULE
*****
 37 40 0 0 0
SMALL
GASTEIGER

@<TRIPOS>ATOM
      1 C          -1.3566  -18.1291   19.4730 C.3     1  UNL1        0.0666
      2 S          -1.4527  -18.1608   20.9696 S.3     1  UNL1       -0.0756
      3 C          -3.7124  -18.8875   23.2090 C.3     1  UNL1        0.1340
      4 N          -3.3708  -17.5130   22.7149 N.ar    1  UNL1       -0.2884
      5 C          -2.3321  -17.1790   21.6855 C.ar    1  UNL1        0.1932
      6 N          -2.3273  -15.6908   21.4979 N.ar    1  UNL1       -0.1221
      7 N          -3.3630  -15.1051   22.4112 N.ar    1  UNL1       -0.1282
      8 C          -4.0079  -16.2313   23.1634 C.ar    1  UNL1        0.1668
      9 C          -5.0985  -16.0990   24.1848 C.ar    1  UNL1        0.0360
     10 C          -6.5356  -16.1739   23.7615 C.ar    1  UNL1        0.0032
     11 C          -7.6261  -16.0416   24.7828 C.ar    1  UNL1        0.0046
     12 C          -7.2797  -15.8343   26.2274 C.ar    1  UNL1        0.0531
     13 C          -5.8426  -15.7593   26.6507 C.ar    1  UNL1        0.0046
     14 C          -4.7520  -15.8916   25.6293 C.ar    1  UNL1        0.0032
     15 C          -8.3702  -15.7020   27.2487 C.2     1  UNL1        0.2427
     16 N          -8.6926  -14.3582   27.8319 N.am    1  UNL1       -0.3253
     17 O          -9.1384  -16.9135   27.6869 O.2     1  UNL1       -0.2704
     18 H          -8.1884  -13.5630   27.5443 H       1  UNL1        0.1453
     19 H          -9.4084  -14.2713   28.5022 H       1  UNL1        0.1453
     20 C          -2.5696  -18.4127   18.6374 C.3     1  UNL1        0.0294
     21 C          -3.9306  -18.0256   19.1353 C.3     1  UNL1        0.0732
     22 N          -4.8190  -19.0559   19.7673 N.3     1  UNL1       -0.2682
     23 C          -4.3537  -20.4770   19.8848 C.3     1  UNL1        0.1046
     24 C          -5.2421  -21.5072   20.5168 C.3     1  UNL1        0.1598
     25 O          -6.5957  -21.1163   21.0313 O.3     1  UNL1       -0.3489
     26 C          -7.0610  -19.6951   20.9139 C.3     1  UNL1        0.1534
     27 C          -6.1726  -18.6649   20.2819 C.3     1  UNL1        0.1067
     28 C          -8.4147  -19.3042   21.4285 C.ar    1  UNL1        0.0059
     29 C          -8.6282  -19.1019   22.8993 C.ar    1  UNL1       -0.0020
     30 C          -9.9819  -18.7109   23.4139 C.ar    1  UNL1        0.0036
     31 C         -11.1220  -18.5222   22.4576 C.ar    1  UNL1        0.0714
     32 C         -10.9084  -18.7245   20.9868 C.ar    1  UNL1        0.0036
     33 C          -9.5548  -19.1155   20.4722 C.ar    1  UNL1       -0.0020
     34 C         -12.4756  -18.1313   22.9722 C.3     1  UNL1        0.4186
     35 F         -13.8293  -17.7403   23.4867 F       1  UNL1       -0.1659
     36 F         -12.9246  -17.8413   21.5706 F       1  UNL1       -0.1659
     37 F         -12.0266  -18.4212   24.3737 F       1  UNL1       -0.1659
@<TRIPOS>BOND
     1     3     4    1
     2     4     5   ar
     3     5     2    1
     4     2     1    1
     5     1    20    1
     6    20    21    1
     7    21    22    1
     8    22    23    1
     9    23    24    1
    10    24    25    1
    11    25    26    1
    12    26    28    1
    13    28    29   ar
    14    29    30   ar
    15    30    31   ar
    16    31    34    1
    17    34    35    1
    18    34    36    1
    19    34    37    1
    20    31    32   ar
    21    32    33   ar
    22    26    27    1
    23     5     6   ar
    24     6     7   ar
    25     7     8   ar
    26     8     9    1
    27     9    10   ar
    28    10    11   ar
    29    11    12   ar
    30    12    15    1
    31    15    16   am
    32    15    17    2
    33    12    13   ar
    34    13    14   ar
    35     8     4   ar
    36    14     9   ar
    37    27    22    1
    38    33    28   ar
    39    16    18    1
    40    16    19    1
@<TRIPOS>MOLECULE
*****
 37 40 0 0 0
SMALL
GASTEIGER

@<TRIPOS>ATOM
      1 C           8.7685   -2.0350   20.5948 C.3     1  UNL1        0.0666
      2 S           8.6857   -1.1218   19.4078 S.3     1  UNL1       -0.0756
      3 C           6.3220    0.8890   20.4175 C.3     1  UNL1        0.1340
      4 N           6.2826    0.0281   19.1897 N.ar    1  UNL1       -0.2884
      5 C           7.3691   -0.8961   18.7256 C.ar    1  UNL1        0.1932
      6 N           6.9077   -1.5550   17.4596 N.ar    1  UNL1       -0.1221
      7 N           5.5361   -1.0381   17.1412 N.ar    1  UNL1       -0.1282
      8 C           5.1497   -0.0596   18.2105 C.ar    1  UNL1        0.1668
      9 C           3.8574    0.6981   18.2871 C.ar    1  UNL1        0.0360
     10 C           3.8706    2.1874   18.4657 C.ar    1  UNL1        0.0032
     11 C           2.5783    2.9451   18.5422 C.ar    1  UNL1        0.0046
     12 C           1.2729    2.2136   18.4403 C.ar    1  UNL1        0.0531
     13 C           1.2596    0.7243   18.2617 C.ar    1  UNL1        0.0046
     14 C           2.5519   -0.0334   18.1851 C.ar    1  UNL1        0.0032
     15 C          -0.0194    2.9712   18.5169 C.2     1  UNL1        0.2427
     16 N          -0.7381    3.3574   17.2582 N.am    1  UNL1       -0.3253
     17 O          -0.5930    3.3427   19.8521 O.2     1  UNL1       -0.2704
     18 H          -0.3617    3.1136   16.3818 H       1  UNL1        0.1453
     19 H          -1.5863    3.8547   17.3085 H       1  UNL1        0.1453
     20 C           8.5760   -3.5123   20.4195 C.3     1  UNL1        0.0294
     21 C           7.3635   -4.1839   20.9928 C.3     1  UNL1        0.0732
     22 N           5.9938   -3.6725   20.6572 N.3     1  UNL1       -0.2682
     23 C           5.3025   -4.1414   19.4114 C.3     1  UNL1        0.1046
     24 C           3.9329   -3.6301   19.0759 C.3     1  UNL1        0.1598
     25 O           3.2545   -2.6498   19.9863 O.3     1  UNL1       -0.3489
     26 C           3.9458   -2.1809   21.2322 C.3     1  UNL1        0.1534
     27 C           5.3154   -2.6922   21.5677 C.3     1  UNL1        0.1067
     28 C           3.2674   -1.2006   22.1426 C.ar    1  UNL1        0.0059
     29 C           2.2382   -0.2567   21.5951 C.ar    1  UNL1       -0.0020
     30 C           1.5598    0.7236   22.5055 C.ar    1  UNL1        0.0036
     31 C           1.9107    0.7600   23.9634 C.ar    1  UNL1        0.0714
     32 C           2.9399   -0.1839   24.5109 C.ar    1  UNL1        0.0036
     33 C           3.6182   -1.1642   23.6005 C.ar    1  UNL1       -0.0020
     34 C           1.2323    1.7403   24.8738 C.3     1  UNL1        0.4186
     35 F           0.5539    2.7206   25.7843 F       1  UNL1       -0.1659
     36 F           2.4550    2.6088   24.8497 F       1  UNL1       -0.1659
     37 F           0.0096    0.8718   24.8980 F       1  UNL1       -0.1659
@<TRIPOS>BOND
     1     3     4    1
     2     4     5   ar
     3     5     2    1
     4     2     1    1
     5     1    20    1
     6    20    21    1
     7    21    22    1
     8    22    23    1
     9    23    24    1
    10    24    25    1
    11    25    26    1
    12    26    28    1
    13    28    29   ar
    14    29    30   ar
    15    30    31   ar
    16    31    34    1
    17    34    35    1
    18    34    36    1
    19    34    37    1
    20    31    32   ar
    21    32    33   ar
    22    26    27    1
    23     5     6   ar
    24     6     7   ar
    25     7     8   ar
    26     8     9    1
    27     9    10   ar
    28    10    11   ar
    29    11    12   ar
    30    12    15    1
    31    15    16   am
    32    15    17    2
    33    12    13   ar
    34    13    14   ar
    35     8     4   ar
    36    14     9   ar
    37    27    22    1
    38    33    28   ar
    39    16    18    1
    40    16    19    1
@<TRIPOS>MOLECULE
*****
 37 40 0 0 0
SMALL
GASTEIGER

@<TRIPOS>ATOM
      1 C           7.0120   -6.7850   26.8479 C.3     1  UNL1        0.0666
      2 S           7.6349   -5.4272   26.7136 S.3     1  UNL1       -0.0756
      3 C           7.4377   -5.2769   23.4597 C.3     1  UNL1        0.1340
      4 N           6.8510   -4.2900   24.4251 N.ar    1  UNL1       -0.2884
      5 C           6.9417   -4.3591   25.9207 C.ar    1  UNL1        0.1932
      6 N           6.2175   -3.1727   26.4843 N.ar    1  UNL1       -0.1221
      7 N           5.6792   -2.3703   25.3370 N.ar    1  UNL1       -0.1282
      8 C           6.0707   -3.0608   24.0643 C.ar    1  UNL1        0.1668
      9 C           5.7401   -2.6027   22.6748 C.ar    1  UNL1        0.0360
     10 C           4.3585   -2.8058   22.1269 C.ar    1  UNL1        0.0032
     11 C           4.0278   -2.3476   20.7374 C.ar    1  UNL1        0.0046
     12 C           5.0786   -1.6863   19.8958 C.ar    1  UNL1        0.0531
     13 C           6.4602   -1.4832   20.4436 C.ar    1  UNL1        0.0046
     14 C           6.7908   -1.9414   21.8331 C.ar    1  UNL1        0.0032
     15 C           4.7479   -1.2281   18.5063 C.2     1  UNL1        0.2427
     16 N           3.5497   -0.3577   18.2689 N.am    1  UNL1       -0.3253
     17 O           5.6156   -1.6405   17.3543 O.2     1  UNL1       -0.2704
     18 H           2.9803   -0.0871   19.0250 H       1  UNL1        0.1453
     19 H           3.3327   -0.0570   17.3569 H       1  UNL1        0.1453
     20 C           7.8099   -8.0121   26.5197 C.3     1  UNL1        0.0294
     21 C           8.4886   -8.7805   27.6147 C.3     1  UNL1        0.0732
     22 N           8.2165  -10.2461   27.7824 N.3     1  UNL1       -0.2682
     23 C           9.3577  -11.2155   27.8706 C.3     1  UNL1        0.1046
     24 C           9.0855  -12.6810   28.0383 C.3     1  UNL1        0.1598
     25 O           7.6721  -13.1771   28.1178 O.3     1  UNL1       -0.3489
     26 C           6.5309  -12.2077   28.0296 C.3     1  UNL1        0.1534
     27 C           6.8031  -10.7422   27.8619 C.3     1  UNL1        0.1067
     28 C           5.1176  -12.7037   28.1091 C.ar    1  UNL1        0.0059
     29 C           4.1999  -12.1858   29.1766 C.ar    1  UNL1       -0.0020
     30 C           2.7865  -12.6818   29.2561 C.ar    1  UNL1        0.0036
     31 C           2.2909  -13.6959   28.2682 C.ar    1  UNL1        0.0714
     32 C           3.2086  -14.2139   27.2008 C.ar    1  UNL1        0.0036
     33 C           4.6219  -13.7178   27.1212 C.ar    1  UNL1       -0.0020
     34 C           0.8775  -14.1920   28.3477 C.3     1  UNL1        0.4186
     35 F          -0.5359  -14.6880   28.4272 F       1  UNL1       -0.1659
     36 F           0.4152  -12.8150   28.7221 F       1  UNL1       -0.1659
     37 F           1.3398  -15.5690   27.9733 F       1  UNL1       -0.1659
@<TRIPOS>BOND
     1     3     4    1
     2     4     5   ar
     3     5     2    1
     4     2     1    1
     5     1    20    1
     6    20    21    1
     7    21    22    1
     8    22    23    1
     9    23    24    1
    10    24    25    1
    11    25    26    1
    12    26    28    1
    13    28    29   ar
    14    29    30   ar
    15    30    31   ar
    16    31    34    1
    17    34    35    1
    18    34    36    1
    19    34    37    1
    20    31    32   ar
    21    32    33   ar
    22    26    27    1
    23     5     6   ar
    24     6     7   ar
    25     7     8   ar
    26     8     9    1
    27     9    10   ar
    28    10    11   ar
    29    11    12   ar
    30    12    15    1
    31    15    16   am
    32    15    17    2
    33    12    13   ar
    34    13    14   ar
    35     8     4   ar
    36    14     9   ar
    37    27    22    1
    38    33    28   ar
    39    16    18    1
    40    16    19    1
@<TRIPOS>MOLECULE
*****
 37 40 0 0 0
SMALL
GASTEIGER

@<TRIPOS>ATOM
      1 C           9.2759   -2.8917   19.3165 C.3     1  UNL1        0.0666
      2 S           8.6177   -1.5517   19.4615 S.3     1  UNL1       -0.0756
      3 C           6.3424    0.5656   20.4564 C.3     1  UNL1        0.1340
      4 N           6.2612   -0.3094   19.2407 N.ar    1  UNL1       -0.2884
      5 C           7.3071   -1.2826   18.7835 C.ar    1  UNL1        0.1932
      6 N           6.8122   -1.9395   17.5290 N.ar    1  UNL1       -0.1221
      7 N           5.4605   -1.3722   17.2110 N.ar    1  UNL1       -0.1282
      8 C           5.1199   -0.3647   18.2689 C.ar    1  UNL1        0.1668
      9 C           3.8595    0.4452   18.3421 C.ar    1  UNL1        0.0360
     10 C           3.9331    1.9408   18.4302 C.ar    1  UNL1        0.0032
     11 C           2.6726    2.7507   18.5034 C.ar    1  UNL1        0.0046
     12 C           1.3387    2.0650   18.4885 C.ar    1  UNL1        0.0531
     13 C           1.2651    0.5694   18.4005 C.ar    1  UNL1        0.0046
     14 C           2.5255   -0.2405   18.3273 C.ar    1  UNL1        0.0032
     15 C           0.0782    2.8749   18.5617 C.2     1  UNL1        0.2427
     16 N          -0.5824    3.3496   17.3016 N.am    1  UNL1       -0.3253
     17 O          -0.5215    3.2100   19.8951 O.2     1  UNL1       -0.2704
     18 H          -0.1888    3.1297   16.4264 H       1  UNL1        0.1453
     19 H          -1.4097    3.8812   17.3497 H       1  UNL1        0.1453
     20 C           9.3526   -3.8208   20.4917 C.3     1  UNL1        0.0294
     21 C           8.1554   -4.6353   20.8832 C.3     1  UNL1        0.0732
     22 N           7.3713   -4.2743   22.1100 N.3     1  UNL1       -0.2682
     23 C           7.6966   -4.9191   23.4247 C.3     1  UNL1        0.1046
     24 C           6.9125   -4.5581   24.6514 C.3     1  UNL1        0.1598
     25 O           5.8031   -3.5523   24.5634 O.3     1  UNL1       -0.3489
     26 C           5.4779   -2.9075   23.2488 C.3     1  UNL1        0.1534
     27 C           6.2620   -3.2685   22.0221 C.3     1  UNL1        0.1067
     28 C           4.3685   -1.9017   23.1608 C.ar    1  UNL1        0.0059
     29 C           3.9201   -1.1703   24.3912 C.ar    1  UNL1       -0.0020
     30 C           2.8107   -0.1645   24.3032 C.ar    1  UNL1        0.0036
     31 C           2.1499    0.1099   22.9849 C.ar    1  UNL1        0.0714
     32 C           2.5983   -0.6216   21.7546 C.ar    1  UNL1        0.0036
     33 C           3.7077   -1.6274   21.8425 C.ar    1  UNL1       -0.0020
     34 C           1.0405    1.1157   22.8970 C.3     1  UNL1        0.4186
     35 F          -0.0688    2.1215   22.8090 F       1  UNL1       -0.1659
     36 F           0.5977    0.5136   21.5964 F       1  UNL1       -0.1659
     37 F           1.4833    1.7178   24.1975 F       1  UNL1       -0.1659
@<TRIPOS>BOND
     1     3     4    1
     2     4     5   ar
     3     5     2    1
     4     2     1    1
     5     1    20    1
     6    20    21    1
     7    21    22    1
     8    22    23    1
     9    23    24    1
    10    24    25    1
    11    25    26    1
    12    26    28    1
    13    28    29   ar
    14    29    30   ar
    15    30    31   ar
    16    31    34    1
    17    34    35    1
    18    34    36    1
    19    34    37    1
    20    31    32   ar
    21    32    33   ar
    22    26    27    1
    23     5     6   ar
    24     6     7   ar
    25     7     8   ar
    26     8     9    1
    27     9    10   ar
    28    10    11   ar
    29    11    12   ar
    30    12    15    1
    31    15    16   am
    32    15    17    2
    33    12    13   ar
    34    13    14   ar
    35     8     4   ar
    36    14     9   ar
    37    27    22    1
    38    33    28   ar
    39    16    18    1
    40    16    19    1
@<TRIPOS>MOLECULE
*****
 37 40 0 0 0
SMALL
GASTEIGER

@<TRIPOS>ATOM
      1 C          -2.4590  -19.6474   20.5305 C.3     1  UNL1        0.0666
      2 S          -1.8082  -18.3794   20.9981 S.3     1  UNL1       -0.0756
      3 C          -3.9841  -18.9476   23.3629 C.3     1  UNL1        0.1340
      4 N          -3.6179  -17.6038   22.8061 N.ar    1  UNL1       -0.2884
      5 C          -2.6177  -17.3427   21.7191 C.ar    1  UNL1        0.1932
      6 N          -2.5691  -15.8627   21.4797 N.ar    1  UNL1       -0.1221
      7 N          -3.5393  -15.2092   22.4187 N.ar    1  UNL1       -0.1282
      8 C          -4.1874  -16.2853   23.2385 C.ar    1  UNL1        0.1668
      9 C          -5.2233  -16.0790   24.3036 C.ar    1  UNL1        0.0360
     10 C          -4.8096  -15.9722   25.7415 C.ar    1  UNL1        0.0032
     11 C          -5.8454  -15.7659   26.8066 C.ar    1  UNL1        0.0046
     12 C          -7.2949  -15.6665   26.4339 C.ar    1  UNL1        0.0531
     13 C          -7.7086  -15.7733   24.9960 C.ar    1  UNL1        0.0046
     14 C          -6.6728  -15.9796   23.9309 C.ar    1  UNL1        0.0032
     15 C          -8.3307  -15.4602   27.4990 C.2     1  UNL1        0.2427
     16 N          -8.6110  -14.0801   28.0153 N.am    1  UNL1       -0.3253
     17 O          -9.0862  -16.6341   28.0478 O.2     1  UNL1       -0.2704
     18 H          -8.1152  -13.3097   27.6551 H       1  UNL1        0.1453
     19 H          -9.2909  -13.9448   28.7144 H       1  UNL1        0.1453
     20 C          -3.8379  -19.6096   19.9412 C.3     1  UNL1        0.0294
     21 C          -5.0140  -20.0621   20.7549 C.3     1  UNL1        0.0732
     22 N          -6.4084  -19.7944   20.2711 N.3     1  UNL1       -0.2682
     23 C          -6.7001  -19.7699   18.7999 C.3     1  UNL1        0.1046
     24 C          -8.0944  -19.5022   18.3162 C.3     1  UNL1        0.1598
     25 O          -9.1971  -19.2588   19.3036 O.3     1  UNL1       -0.3489
     26 C          -8.9054  -19.2832   20.7747 C.3     1  UNL1        0.1534
     27 C          -7.5110  -19.5510   21.2584 C.3     1  UNL1        0.1067
     28 C         -10.0080  -19.0399   21.7621 C.ar    1  UNL1        0.0059
     29 C         -11.2817  -18.3841   21.3175 C.ar    1  UNL1       -0.0020
     30 C         -12.3843  -18.1408   22.3049 C.ar    1  UNL1        0.0036
     31 C         -12.2133  -18.5532   23.7369 C.ar    1  UNL1        0.0714
     32 C         -10.9396  -19.2089   24.1815 C.ar    1  UNL1        0.0036
     33 C          -9.8370  -19.4522   23.1941 C.ar    1  UNL1       -0.0020
     34 C         -13.3160  -18.3098   24.7243 C.3     1  UNL1        0.4186
     35 F         -14.4186  -18.0664   25.7117 F       1  UNL1       -0.1659
     36 F         -12.5763  -19.1174   25.7493 F       1  UNL1       -0.1659
     37 F         -14.0556  -17.5022   23.6993 F       1  UNL1       -0.1659
@<TRIPOS>BOND
     1     3     4    1
     2     4     5   ar
     3     5     2    1
     4     2     1    1
     5     1    20    1
     6    20    21    1
     7    21    22    1
     8    22    23    1
     9    23    24    1
    10    24    25    1
    11    25    26    1
    12    26    28    1
    13    28    29   ar
    14    29    30   ar
    15    30    31   ar
    16    31    34    1
    17    34    35    1
    18    34    36    1
    19    34    37    1
    20    31    32   ar
    21    32    33   ar
    22    26    27    1
    23     5     6   ar
    24     6     7   ar
    25     7     8   ar
    26     8     9    1
    27     9    10   ar
    28    10    11   ar
    29    11    12   ar
    30    12    15    1
    31    15    16   am
    32    15    17    2
    33    12    13   ar
    34    13    14   ar
    35     8     4   ar
    36    14     9   ar
    37    27    22    1
    38    33    28   ar
    39    16    18    1
    40    16    19    1
@<TRIPOS>MOLECULE
*****
 37 40 0 0 0
SMALL
GASTEIGER

@<TRIPOS>ATOM
      1 C          -0.9833    4.4687   23.1262 C.3     1  UNL1        0.0666
      2 S          -1.0715    4.2792   21.6409 S.3     1  UNL1       -0.0756
      3 C           1.9147    4.2894   20.3246 C.3     1  UNL1        0.1340
      4 N           0.9827    3.1158   20.3871 N.ar    1  UNL1       -0.2884
      5 C          -0.3899    3.1111   20.9921 C.ar    1  UNL1        0.1932
      6 N          -0.9613    1.7332   20.8344 N.ar    1  UNL1       -0.1221
      7 N           0.0582    0.8862   20.1320 N.ar    1  UNL1       -0.1282
      8 C           1.2596    1.7407   19.8555 C.ar    1  UNL1        0.1668
      9 C           2.5172    1.2980   19.1681 C.ar    1  UNL1        0.0360
     10 C           2.4600    0.2343   18.1119 C.ar    1  UNL1        0.0032
     11 C           3.7175   -0.2084   17.4245 C.ar    1  UNL1        0.0046
     12 C           5.0322    0.4123   17.7933 C.ar    1  UNL1        0.0531
     13 C           5.0894    1.4759   18.8494 C.ar    1  UNL1        0.0046
     14 C           3.8319    1.9187   19.5368 C.ar    1  UNL1        0.0032
     15 C           6.2898   -0.0305   17.1059 C.2     1  UNL1        0.2427
     16 N           7.1182    0.9622   16.3456 N.am    1  UNL1       -0.3253
     17 O           6.7187   -1.4660   17.1789 O.2     1  UNL1       -0.2704
     18 H           6.8367    1.9043   16.2977 H       1  UNL1        0.1453
     19 H           7.9436    0.6715   15.8944 H       1  UNL1        0.1453
     20 C          -0.0877    3.5852   23.9432 C.3     1  UNL1        0.0294
     21 C           1.3435    3.9725   24.1701 C.3     1  UNL1        0.0732
     22 N           2.3823    2.9121   24.3862 N.3     1  UNL1       -0.2682
     23 C           3.1675    2.8807   25.6639 C.3     1  UNL1        0.1046
     24 C           4.2062    1.8203   25.8799 C.3     1  UNL1        0.1598
     25 O           4.4597    0.7914   24.8182 O.3     1  UNL1       -0.3489
     26 C           3.6745    0.8229   23.5406 C.3     1  UNL1        0.1534
     27 C           2.6358    1.8832   23.3245 C.3     1  UNL1        0.1067
     28 C           3.9280   -0.2060   22.4789 C.ar    1  UNL1        0.0059
     29 C           5.3300   -0.4850   22.0244 C.ar    1  UNL1       -0.0020
     30 C           5.5835   -1.5139   20.9628 C.ar    1  UNL1        0.0036
     31 C           4.4351   -2.2638   20.3556 C.ar    1  UNL1        0.0714
     32 C           3.0331   -1.9848   20.8101 C.ar    1  UNL1        0.0036
     33 C           2.7796   -0.9559   21.8717 C.ar    1  UNL1       -0.0020
     34 C           4.6886   -3.2927   19.2940 C.3     1  UNL1        0.4186
     35 F           4.9422   -4.3216   18.2323 F       1  UNL1       -0.1659
     36 F           6.1524   -3.2692   19.6207 F       1  UNL1       -0.1659
     37 F           3.2249   -3.3162   18.9672 F       1  UNL1       -0.1659
@<TRIPOS>BOND
     1     3     4    1
     2     4     5   ar
     3     5     2    1
     4     2     1    1
     5     1    20    1
     6    20    21    1
     7    21    22    1
     8    22    23    1
     9    23    24    1
    10    24    25    1
    11    25    26    1
    12    26    28    1
    13    28    29   ar
    14    29    30   ar
    15    30    31   ar
    16    31    34    1
    17    34    35    1
    18    34    36    1
    19    34    37    1
    20    31    32   ar
    21    32    33   ar
    22    26    27    1
    23     5     6   ar
    24     6     7   ar
    25     7     8   ar
    26     8     9    1
    27     9    10   ar
    28    10    11   ar
    29    11    12   ar
    30    12    15    1
    31    15    16   am
    32    15    17    2
    33    12    13   ar
    34    13    14   ar
    35     8     4   ar
    36    14     9   ar
    37    27    22    1
    38    33    28   ar
    39    16    18    1
    40    16    19    1
@<TRIPOS>MOLECULE
*****
 37 40 0 0 0
SMALL
GASTEIGER

@<TRIPOS>ATOM
      1 C           6.9542   -3.1138   27.6691 C.3     1  UNL1        0.0666
      2 S           6.9349   -1.6626   27.2905 S.3     1  UNL1       -0.0756
      3 C           3.9760   -1.4017   25.9391 C.3     1  UNL1        0.1340
      4 N           5.2844   -1.1407   25.2537 N.ar    1  UNL1       -0.2884
      5 C           6.6445   -1.2606   25.8749 C.ar    1  UNL1        0.1932
      6 N           7.6632   -0.9080   24.8318 N.ar    1  UNL1       -0.1221
      7 N           6.9327   -0.5702   23.5660 N.ar    1  UNL1       -0.1282
      8 C           5.4625   -0.7140   23.8267 C.ar    1  UNL1        0.1668
      9 C           4.3635   -0.4734   22.8347 C.ar    1  UNL1        0.0360
     10 C           3.8088    0.9080   22.6503 C.ar    1  UNL1        0.0032
     11 C           2.7097    1.1486   21.6582 C.ar    1  UNL1        0.0046
     12 C           2.1653    0.0079   20.8506 C.ar    1  UNL1        0.0531
     13 C           2.7200   -1.3735   21.0351 C.ar    1  UNL1        0.0046
     14 C           3.8191   -1.6141   22.0271 C.ar    1  UNL1        0.0032
     15 C           1.0663    0.2486   19.8586 C.2     1  UNL1        0.2427
     16 N          -0.3558    0.3497   20.3246 N.am    1  UNL1       -0.3253
     17 O           1.3894    0.3881   18.4005 O.2     1  UNL1       -0.2704
     18 H          -0.5679    0.2581   21.2816 H       1  UNL1        0.1453
     19 H          -1.0771    0.5076   19.6735 H       1  UNL1        0.1453
     20 C           7.6375   -4.1115   26.7815 C.3     1  UNL1        0.0294
     21 C           6.8389   -4.9019   25.7878 C.3     1  UNL1        0.0732
     22 N           7.3400   -5.0659   24.3834 N.3     1  UNL1       -0.2682
     23 C           8.4286   -6.0540   24.0861 C.3     1  UNL1        0.1046
     24 C           8.9296   -6.2179   22.6818 C.3     1  UNL1        0.1598
     25 O           8.3420   -5.3936   21.5748 O.3     1  UNL1       -0.3489
     26 C           7.2534   -4.4055   21.8722 C.3     1  UNL1        0.1534
     27 C           6.7524   -4.2416   23.2764 C.3     1  UNL1        0.1067
     28 C           6.6657   -3.5813   20.7652 C.ar    1  UNL1        0.0059
     29 C           7.1549   -2.1828   20.5305 C.ar    1  UNL1       -0.0020
     30 C           6.5673   -1.3586   19.4236 C.ar    1  UNL1        0.0036
     31 C           5.4905   -1.9328   18.5513 C.ar    1  UNL1        0.0714
     32 C           5.0014   -3.3312   18.7860 C.ar    1  UNL1        0.0036
     33 C           5.5890   -4.1554   19.8929 C.ar    1  UNL1       -0.0020
     34 C           4.9029   -1.1085   17.4444 C.3     1  UNL1        0.4186
     35 F           4.3153   -0.2843   16.3374 F       1  UNL1       -0.1659
     36 F           6.2526   -0.5141   17.1705 F       1  UNL1       -0.1659
     37 F           3.5532   -1.7029   17.7182 F       1  UNL1       -0.1659
@<TRIPOS>BOND
     1     3     4    1
     2     4     5   ar
     3     5     2    1
     4     2     1    1
     5     1    20    1
     6    20    21    1
     7    21    22    1
     8    22    23    1
     9    23    24    1
    10    24    25    1
    11    25    26    1
    12    26    28    1
    13    28    29   ar
    14    29    30   ar
    15    30    31   ar
    16    31    34    1
    17    34    35    1
    18    34    36    1
    19    34    37    1
    20    31    32   ar
    21    32    33   ar
    22    26    27    1
    23     5     6   ar
    24     6     7   ar
    25     7     8   ar
    26     8     9    1
    27     9    10   ar
    28    10    11   ar
    29    11    12   ar
    30    12    15    1
    31    15    16   am
    32    15    17    2
    33    12    13   ar
    34    13    14   ar
    35     8     4   ar
    36    14     9   ar
    37    27    22    1
    38    33    28   ar
    39    16    18    1
    40    16    19    1
@<TRIPOS>MOLECULE
*****
 37 40 0 0 0
SMALL
GASTEIGER

@<TRIPOS>ATOM
      1 C         -11.1834  -18.6700   19.4309 C.3     1  UNL1        0.0666
      2 S         -11.9928  -18.6093   20.6923 S.3     1  UNL1       -0.0756
      3 C          -9.9145  -16.2534   21.5753 C.3     1  UNL1        0.1340
      4 N         -10.3495  -17.4098   22.4259 N.ar    1  UNL1       -0.2884
      5 C         -11.3048  -18.4927   22.0200 C.ar    1  UNL1        0.1932
      6 N         -11.4513  -19.4384   23.1750 N.ar    1  UNL1       -0.1221
      7 N         -10.5865  -18.9401   24.2948 N.ar    1  UNL1       -0.1282
      8 C          -9.9056  -17.6862   23.8318 C.ar    1  UNL1        0.1668
      9 C          -8.9487  -16.8549   24.6339 C.ar    1  UNL1        0.0360
     10 C          -9.0566  -16.8206   26.1296 C.ar    1  UNL1        0.0032
     11 C          -8.0997  -15.9893   26.9317 C.ar    1  UNL1        0.0046
     12 C          -7.0351  -15.1923   26.2381 C.ar    1  UNL1        0.0531
     13 C          -6.9272  -15.2266   24.7424 C.ar    1  UNL1        0.0046
     14 C          -7.8841  -16.0579   23.9403 C.ar    1  UNL1        0.0032
     15 C          -6.0782  -14.3610   27.0402 C.2     1  UNL1        0.2427
     16 N          -6.5114  -13.7733   28.3504 N.am    1  UNL1       -0.3253
     17 O          -4.6882  -14.1173   26.5319 O.2     1  UNL1       -0.2704
     18 H          -7.4238  -13.9332   28.6840 H       1  UNL1        0.1453
     19 H          -5.8834  -13.2277   28.8768 H       1  UNL1        0.1453
     20 C         -10.3306  -19.8703   19.1440 C.3     1  UNL1        0.0294
     21 C          -8.8618  -19.7032   18.8896 C.3     1  UNL1        0.0732
     22 N          -7.8987  -19.6853   20.0395 N.3     1  UNL1       -0.2682
     23 C          -8.3528  -20.1092   21.4048 C.3     1  UNL1        0.1046
     24 C          -7.3897  -20.0913   22.5546 C.3     1  UNL1        0.1598
     25 O          -5.9725  -19.6495   22.3391 O.3     1  UNL1       -0.3489
     26 C          -5.5184  -19.2255   20.9739 C.3     1  UNL1        0.1534
     27 C          -6.4815  -19.2435   19.8241 C.3     1  UNL1        0.1067
     28 C          -4.1013  -18.7837   20.7584 C.ar    1  UNL1        0.0059
     29 C          -3.2004  -18.5531   21.9353 C.ar    1  UNL1       -0.0020
     30 C          -1.7832  -18.1112   21.7198 C.ar    1  UNL1        0.0036
     31 C          -1.2670  -17.9000   20.3274 C.ar    1  UNL1        0.0714
     32 C          -2.1678  -18.1307   19.1505 C.ar    1  UNL1        0.0036
     33 C          -3.5850  -18.5725   19.3660 C.ar    1  UNL1       -0.0020
     34 C           0.1502  -17.4582   20.1119 C.3     1  UNL1        0.4186
     35 F           1.5674  -17.0163   19.8964 F       1  UNL1       -0.1659
     36 F          -0.2330  -16.0534   20.4720 F       1  UNL1       -0.1659
     37 F           0.5334  -18.8630   19.7518 F       1  UNL1       -0.1659
@<TRIPOS>BOND
     1     3     4    1
     2     4     5   ar
     3     5     2    1
     4     2     1    1
     5     1    20    1
     6    20    21    1
     7    21    22    1
     8    22    23    1
     9    23    24    1
    10    24    25    1
    11    25    26    1
    12    26    28    1
    13    28    29   ar
    14    29    30   ar
    15    30    31   ar
    16    31    34    1
    17    34    35    1
    18    34    36    1
    19    34    37    1
    20    31    32   ar
    21    32    33   ar
    22    26    27    1
    23     5     6   ar
    24     6     7   ar
    25     7     8   ar
    26     8     9    1
    27     9    10   ar
    28    10    11   ar
    29    11    12   ar
    30    12    15    1
    31    15    16   am
    32    15    17    2
    33    12    13   ar
    34    13    14   ar
    35     8     4   ar
    36    14     9   ar
    37    27    22    1
    38    33    28   ar
    39    16    18    1
    40    16    19    1
@<TRIPOS>MOLECULE
*****
 37 40 0 0 0
SMALL
GASTEIGER

@<TRIPOS>ATOM
      1 C           0.0881    3.8000   24.2842 C.3     1  UNL1        0.0666
      2 S           0.0225    3.9979   22.7988 S.3     1  UNL1       -0.0756
      3 C           2.8152    2.5052   22.0101 C.3     1  UNL1        0.1340
      4 N           1.4479    2.1358   21.5160 N.ar    1  UNL1       -0.2884
      5 C           0.1643    2.8219   21.8785 C.ar    1  UNL1        0.1932
      6 N          -0.9527    2.1256   21.1592 N.ar    1  UNL1       -0.1221
      7 N          -0.3594    1.0091   20.3521 N.ar    1  UNL1       -0.1282
      8 C           1.1243    1.0154   20.5726 C.ar    1  UNL1        0.1668
      9 C           2.1111    0.0677   19.9577 C.ar    1  UNL1        0.0360
     10 C           2.4045   -1.2449   20.6219 C.ar    1  UNL1        0.0032
     11 C           3.3913   -2.1926   20.0070 C.ar    1  UNL1        0.0046
     12 C           4.0847   -1.8278   18.7280 C.ar    1  UNL1        0.0531
     13 C           3.7913   -0.5152   18.0638 C.ar    1  UNL1        0.0046
     14 C           2.8045    0.4325   18.6787 C.ar    1  UNL1        0.0032
     15 C           5.0714   -2.7754   18.1131 C.2     1  UNL1        0.2427
     16 N           4.8282   -4.2543   18.1725 N.am    1  UNL1       -0.3253
     17 O           6.3015   -2.2442   17.4387 O.2     1  UNL1       -0.2704
     18 H           4.0209   -4.6030   18.6151 H       1  UNL1        0.1453
     19 H           5.4759   -4.8763   17.7689 H       1  UNL1        0.1453
     20 C           0.1751    2.4148   24.8532 C.3     1  UNL1        0.0294
     21 C           0.7360    2.2025   26.2280 C.3     1  UNL1        0.0732
     22 N           1.7145    1.0929   26.4757 N.3     1  UNL1       -0.2682
     23 C           1.8219    0.4782   27.8397 C.3     1  UNL1        0.1046
     24 C           2.8004   -0.6314   28.0874 C.3     1  UNL1        0.1598
     25 O           3.6715   -1.1263   26.9710 O.3     1  UNL1       -0.3489
     26 C           3.5641   -0.5117   25.6070 C.3     1  UNL1        0.1534
     27 C           2.5856    0.5979   25.3594 C.3     1  UNL1        0.1067
     28 C           4.4352   -1.0066   24.4907 C.ar    1  UNL1        0.0059
     29 C           4.8700   -2.4418   24.4585 C.ar    1  UNL1       -0.0020
     30 C           5.7411   -2.9367   23.3421 C.ar    1  UNL1        0.0036
     31 C           6.1773   -1.9964   22.2579 C.ar    1  UNL1        0.0714
     32 C           5.7425   -0.5612   22.2901 C.ar    1  UNL1        0.0036
     33 C           4.8714   -0.0663   23.4065 C.ar    1  UNL1       -0.0020
     34 C           7.0484   -2.4914   21.1416 C.3     1  UNL1        0.4186
     35 F           7.9195   -2.9863   20.0252 F       1  UNL1       -0.1659
     36 F           7.8335   -1.2140   21.1878 F       1  UNL1       -0.1659
     37 F           6.2633   -3.7687   21.0953 F       1  UNL1       -0.1659
@<TRIPOS>BOND
     1     3     4    1
     2     4     5   ar
     3     5     2    1
     4     2     1    1
     5     1    20    1
     6    20    21    1
     7    21    22    1
     8    22    23    1
     9    23    24    1
    10    24    25    1
    11    25    26    1
    12    26    28    1
    13    28    29   ar
    14    29    30   ar
    15    30    31   ar
    16    31    34    1
    17    34    35    1
    18    34    36    1
    19    34    37    1
    20    31    32   ar
    21    32    33   ar
    22    26    27    1
    23     5     6   ar
    24     6     7   ar
    25     7     8   ar
    26     8     9    1
    27     9    10   ar
    28    10    11   ar
    29    11    12   ar
    30    12    15    1
    31    15    16   am
    32    15    17    2
    33    12    13   ar
    34    13    14   ar
    35     8     4   ar
    36    14     9   ar
    37    27    22    1
    38    33    28   ar
    39    16    18    1
    40    16    19    1
