@<TRIPOS>MOLECULE
*****
 34 37 0 0 0
SMALL
GASTEIGER

@<TRIPOS>ATOM
      1 C           4.0897   -1.2084   18.7756 C.ar    1  UNL1        0.1432
      2 C           5.4647   -1.4991   18.2514 C.ar    1  UNL1        0.0384
      3 C           6.2590   -0.4140   17.5868 C.ar    1  UNL1        0.0215
      4 C           5.6783    0.9619   17.4464 C.ar    1  UNL1        0.1061
      5 C           4.3032    1.2526   17.9706 C.ar    1  UNL1        0.0259
      6 C           3.5089    0.1675   18.6352 C.ar    1  UNL1        0.0888
      7 C           2.1339    0.4583   19.1594 C.2     1  UNL1        0.2525
      8 O           0.9783    0.5736   18.2101 O.2     1  UNL1       -0.2698
      9 N           1.9145    0.6338   20.6328 N.am    1  UNL1       -0.2660
     10 C           2.9676    0.5473   21.6975 C.3     1  UNL1        0.1236
     11 C           2.3075    0.7867   23.0229 C.ar    1  UNL1        0.0338
     12 C           2.5503    0.8812   24.5001 C.ar    1  UNL1        0.0991
     13 N           1.2393    1.1741   25.1677 N.ar    1  UNL1       -0.2271
     14 N           0.1862    1.2606   24.1029 N.ar    1  UNL1       -0.1680
     15 C           0.8464    1.0212   22.7775 C.ar    1  UNL1        0.0981
     16 C           0.6035    0.9267   21.3003 C.3     1  UNL1        0.1414
     17 C           1.0199    1.3496   26.6410 C.ar    1  UNL1        0.1042
     18 C           2.0541    2.0450   27.4757 C.ar    1  UNL1        0.1181
     19 N           1.8348    2.2206   28.9492 N.ar    1  UNL1       -0.2384
     20 C           0.5811    1.7007   29.5880 C.ar    1  UNL1        0.1285
     21 C          -0.4532    1.0052   28.7532 C.ar    1  UNL1        0.1607
     22 F          -1.7069    0.4853   29.3921 F       1  UNL1       -0.2025
     23 C          -0.2338    0.8297   27.2799 C.ar    1  UNL1        0.0520
     24 S           6.4726    2.0470   16.7818 S.O2    1  UNL1        0.0105
     25 C           7.2669    3.1321   16.1173 C.3     1  UNL1        0.1816
     26 O           7.3273    1.0116   16.1129 O.2     1  UNL1       -0.1686
     27 O           5.6178    3.0823   17.4509 O.2     1  UNL1       -0.1686
     28 O           3.2954   -2.2935   19.4401 O.3     1  UNL1       -0.4702
     29 C           4.3364   -3.3735   21.5614 C.3     1  UNL1        0.0566
     30 C           3.9998   -3.4410   20.1013 C.3     1  UNL1        0.2599
     31 C           4.3676   -4.6559   19.3021 C.3     1  UNL1        0.4340
     32 F           4.7352   -5.8709   18.5030 F       1  UNL1       -0.1664
     33 F           2.9420   -4.7940   18.8560 F       1  UNL1       -0.1664
     34 F           5.7930   -4.5180   19.7482 F       1  UNL1       -0.1664
@<TRIPOS>BOND
     1    30    29    1
     2    30    28    1
     3    28     1    1
     4     1     2   ar
     5     2     3   ar
     6     3     4   ar
     7     4    24    1
     8    24    25    1
     9    24    26    2
    10    24    27    2
    11     4     5   ar
    12     5     6   ar
    13     6     7    1
    14     7     8    2
    15     7     9   am
    16     9    10    1
    17    10    11    1
    18    11    12   ar
    19    12    13   ar
    20    13    17    1
    21    17    18   ar
    22    18    19   ar
    23    19    20   ar
    24    20    21   ar
    25    21    22    1
    26    21    23   ar
    27    13    14   ar
    28    14    15   ar
    29    15    16    1
    30    30    31    1
    31    31    32    1
    32    31    33    1
    33    31    34    1
    34     6     1   ar
    35    16     9    1
    36    15    11   ar
    37    23    17   ar
@<TRIPOS>MOLECULE
*****
 34 37 0 0 0
SMALL
GASTEIGER

@<TRIPOS>ATOM
      1 C          -3.9113    3.4009   20.9122 C.ar    1  UNL1        0.1432
      2 C          -5.1051    3.1004   21.7691 C.ar    1  UNL1        0.0384
      3 C          -5.0281    3.2884   23.2552 C.ar    1  UNL1        0.0215
      4 C          -3.7572    3.7770   23.8845 C.ar    1  UNL1        0.1061
      5 C          -2.5633    4.0776   23.0276 C.ar    1  UNL1        0.0259
      6 C          -2.6403    3.8895   21.5414 C.ar    1  UNL1        0.0888
      7 C          -1.4463    4.1901   20.6846 C.2     1  UNL1        0.2525
      8 O          -1.2209    5.5825   20.1742 O.2     1  UNL1       -0.2698
      9 N          -0.4779    3.0983   20.3381 N.am    1  UNL1       -0.2660
     10 C          -0.5716    1.6658   20.7730 C.3     1  UNL1        0.1236
     11 C           0.6027    0.9295   20.1995 C.ar    1  UNL1        0.0338
     12 C           1.2705   -0.4109   20.1139 C.ar    1  UNL1        0.0991
     13 N           2.5028   -0.2619   19.2716 N.ar    1  UNL1       -0.2271
     14 N           2.5965    1.1707   18.8367 N.ar    1  UNL1       -0.1680
     15 C           1.4222    1.9070   19.4102 C.ar    1  UNL1        0.0981
     16 C           0.7543    3.2473   19.4958 C.3     1  UNL1        0.1414
     17 C           3.4712   -1.3536   18.9251 C.ar    1  UNL1        0.1042
     18 C           4.7021   -1.0391   18.1277 C.ar    1  UNL1        0.1181
     19 N           5.6707   -2.1309   17.7812 N.ar    1  UNL1       -0.2384
     20 C           5.4082   -3.5372   18.2321 C.ar    1  UNL1        0.1285
     21 C           4.1772   -3.8517   19.0296 C.ar    1  UNL1        0.1607
     22 F           3.9148   -5.2582   19.4805 F       1  UNL1       -0.2025
     23 C           3.2088   -2.7600   19.3761 C.ar    1  UNL1        0.0520
     24 S          -3.6802    3.9650   25.3707 S.O2    1  UNL1        0.0105
     25 C          -3.6031    4.1531   26.8569 C.3     1  UNL1        0.1816
     26 O          -2.2367    4.3535   25.2468 O.2     1  UNL1       -0.1686
     27 O          -5.1237    3.5766   25.4946 O.2     1  UNL1       -0.1686
     28 O          -3.9883    3.2129   19.4260 O.3     1  UNL1       -0.4702
     29 C          -3.9893    5.0735   17.6126 C.3     1  UNL1        0.0566
     30 C          -4.7336    4.2041   18.5822 C.3     1  UNL1        0.2599
     31 C          -6.2233    4.3259   18.7081 C.3     1  UNL1        0.4340
     32 F          -7.7130    4.4478   18.8340 F       1  UNL1       -0.1664
     33 F          -6.0929    5.8169   18.8088 F       1  UNL1       -0.1664
     34 F          -6.3538    2.8350   18.6074 F       1  UNL1       -0.1664
@<TRIPOS>BOND
     1    30    29    1
     2    30    28    1
     3    28     1    1
     4     1     2   ar
     5     2     3   ar
     6     3     4   ar
     7     4    24    1
     8    24    25    1
     9    24    26    2
    10    24    27    2
    11     4     5   ar
    12     5     6   ar
    13     6     7    1
    14     7     8    2
    15     7     9   am
    16     9    10    1
    17    10    11    1
    18    11    12   ar
    19    12    13   ar
    20    13    17    1
    21    17    18   ar
    22    18    19   ar
    23    19    20   ar
    24    20    21   ar
    25    21    22    1
    26    21    23   ar
    27    13    14   ar
    28    14    15   ar
    29    15    16    1
    30    30    31    1
    31    31    32    1
    32    31    33    1
    33    31    34    1
    34     6     1   ar
    35    16     9    1
    36    15    11   ar
    37    23    17   ar
@<TRIPOS>MOLECULE
*****
 34 37 0 0 0
SMALL
GASTEIGER

@<TRIPOS>ATOM
      1 C           2.6098   -0.9611   20.8610 C.ar    1  UNL1        0.1432
      2 C           1.2860   -0.9140   20.1574 C.ar    1  UNL1        0.0384
      3 C           0.3437    0.2259   20.4076 C.ar    1  UNL1        0.0215
      4 C           0.7252    1.3188   21.3616 C.ar    1  UNL1        0.1061
      5 C           2.0491    1.2717   22.0653 C.ar    1  UNL1        0.0259
      6 C           2.9914    0.1318   21.8151 C.ar    1  UNL1        0.0888
      7 C           4.3152    0.0848   22.5188 C.2     1  UNL1        0.2525
      8 O           5.5826    0.3084   21.7482 O.2     1  UNL1       -0.2698
      9 N           4.3717   -0.1858   23.9931 N.am    1  UNL1       -0.2660
     10 C           3.1946   -0.4274   24.8909 C.3     1  UNL1        0.1236
     11 C           3.7107   -0.6532   26.2811 C.ar    1  UNL1        0.0338
     12 C           3.3021   -0.9421   27.6952 C.ar    1  UNL1        0.0991
     13 N           4.5457   -1.0186   28.5306 N.ar    1  UNL1       -0.2271
     14 N           5.7228   -0.7771   27.6327 N.ar    1  UNL1       -0.1680
     15 C           5.2067   -0.5513   26.2425 C.ar    1  UNL1        0.0981
     16 C           5.6153   -0.2624   24.8284 C.3     1  UNL1        0.1414
     17 C           4.6022   -1.2892   30.0048 C.ar    1  UNL1        0.1042
     18 C           3.4796   -0.8414   30.8931 C.ar    1  UNL1        0.1181
     19 N           3.5360   -1.1119   32.3675 N.ar    1  UNL1       -0.2384
     20 C           4.7152   -1.8304   32.9535 C.ar    1  UNL1        0.1285
     21 C           5.8379   -2.2783   32.0651 C.ar    1  UNL1        0.1607
     22 F           7.0171   -2.9968   32.6512 F       1  UNL1       -0.2025
     23 C           5.7814   -2.0077   30.5909 C.ar    1  UNL1        0.0520
     24 S          -0.2172    2.4587   21.6119 S.O2    1  UNL1        0.0105
     25 C          -1.1595    3.5985   21.8622 C.3     1  UNL1        0.1816
     26 O           0.3772    2.6506   22.9757 O.2     1  UNL1       -0.1686
     27 O          -0.8115    2.2667   20.2481 O.2     1  UNL1       -0.1686
     28 O           3.5522   -2.1009   20.6107 O.3     1  UNL1       -0.4702
     29 C           4.4655   -1.1170   18.3864 C.3     1  UNL1        0.0566
     30 C           4.1393   -2.3027   19.2452 C.3     1  UNL1        0.2599
     31 C           4.4001   -3.6903   18.7386 C.3     1  UNL1        0.4340
     32 F           4.6610   -5.0778   18.2320 F       1  UNL1       -0.1664
     33 F           5.7536   -3.2597   18.2561 F       1  UNL1       -0.1664
     34 F           3.0467   -4.1209   19.2211 F       1  UNL1       -0.1664
@<TRIPOS>BOND
     1    30    29    1
     2    30    28    1
     3    28     1    1
     4     1     2   ar
     5     2     3   ar
     6     3     4   ar
     7     4    24    1
     8    24    25    1
     9    24    26    2
    10    24    27    2
    11     4     5   ar
    12     5     6   ar
    13     6     7    1
    14     7     8    2
    15     7     9   am
    16     9    10    1
    17    10    11    1
    18    11    12   ar
    19    12    13   ar
    20    13    17    1
    21    17    18   ar
    22    18    19   ar
    23    19    20   ar
    24    20    21   ar
    25    21    22    1
    26    21    23   ar
    27    13    14   ar
    28    14    15   ar
    29    15    16    1
    30    30    31    1
    31    31    32    1
    32    31    33    1
    33    31    34    1
    34     6     1   ar
    35    16     9    1
    36    15    11   ar
    37    23    17   ar
@<TRIPOS>MOLECULE
*****
 34 37 0 0 0
SMALL
GASTEIGER

@<TRIPOS>ATOM
      1 C           3.7094   -0.4794   18.3519 C.ar    1  UNL1        0.1432
      2 C           3.2565    0.8600   17.8511 C.ar    1  UNL1        0.0384
      3 C           2.1410    1.5827   18.5462 C.ar    1  UNL1        0.0215
      4 C           1.4783    0.9661   19.7422 C.ar    1  UNL1        0.1061
      5 C           1.9312   -0.3734   20.2431 C.ar    1  UNL1        0.0259
      6 C           3.0467   -1.0961   19.5480 C.ar    1  UNL1        0.0888
      7 C           3.4996   -2.4355   20.0490 C.2     1  UNL1        0.2525
      8 O           3.2501   -3.6664   19.2290 O.2     1  UNL1       -0.2698
      9 N           4.2019   -2.5439   21.3700 N.am    1  UNL1       -0.2660
     10 C           4.5197   -1.4070   22.2955 C.3     1  UNL1        0.1236
     11 C           5.2239   -1.9688   23.4949 C.ar    1  UNL1        0.0338
     12 C           5.8556   -1.6133   24.8081 C.ar    1  UNL1        0.0991
     13 N           6.3634   -2.8776   25.4356 N.ar    1  UNL1       -0.2271
     14 N           6.0455   -4.0145   24.5100 N.ar    1  UNL1       -0.1680
     15 C           5.3413   -3.4528   23.3107 C.ar    1  UNL1        0.0981
     16 C           4.7096   -3.8082   21.9974 C.3     1  UNL1        0.1414
     17 C           7.0656   -2.9861   26.7565 C.ar    1  UNL1        0.1042
     18 C           8.4087   -2.3457   26.9467 C.ar    1  UNL1        0.1181
     19 N           9.1110   -2.4541   28.2677 N.ar    1  UNL1       -0.2384
     20 C           8.4703   -3.2029   29.3985 C.ar    1  UNL1        0.1285
     21 C           7.1272   -3.8434   29.2083 C.ar    1  UNL1        0.1607
     22 F           6.4865   -4.5922   30.3392 F       1  UNL1       -0.2025
     23 C           6.4249   -3.7349   27.8874 C.ar    1  UNL1        0.0520
     24 S           0.3627    1.6888   20.4373 S.O2    1  UNL1        0.0105
     25 C          -0.7528    2.4116   21.1324 C.3     1  UNL1        0.1816
     26 O          -0.3377    0.3832   20.6708 O.2     1  UNL1       -0.1686
     27 O           1.0632    2.9946   20.2038 O.2     1  UNL1       -0.1686
     28 O           4.8250   -1.2021   17.6568 O.3     1  UNL1       -0.4702
     29 C           6.8980    0.3029   17.2238 C.3     1  UNL1        0.0566
     30 C           6.2507   -0.8393   17.9493 C.3     1  UNL1        0.2599
     31 C           7.0292   -1.6188   18.9674 C.3     1  UNL1        0.4340
     32 F           7.8076   -2.3983   19.9854 F       1  UNL1       -0.1664
     33 F           7.3707   -2.6408   17.9238 F       1  UNL1       -0.1664
     34 F           6.6877   -0.5969   20.0110 F       1  UNL1       -0.1664
@<TRIPOS>BOND
     1    30    29    1
     2    30    28    1
     3    28     1    1
     4     1     2   ar
     5     2     3   ar
     6     3     4   ar
     7     4    24    1
     8    24    25    1
     9    24    26    2
    10    24    27    2
    11     4     5   ar
    12     5     6   ar
    13     6     7    1
    14     7     8    2
    15     7     9   am
    16     9    10    1
    17    10    11    1
    18    11    12   ar
    19    12    13   ar
    20    13    17    1
    21    17    18   ar
    22    18    19   ar
    23    19    20   ar
    24    20    21   ar
    25    21    22    1
    26    21    23   ar
    27    13    14   ar
    28    14    15   ar
    29    15    16    1
    30    30    31    1
    31    31    32    1
    32    31    33    1
    33    31    34    1
    34     6     1   ar
    35    16     9    1
    36    15    11   ar
    37    23    17   ar
@<TRIPOS>MOLECULE
*****
 34 37 0 0 0
SMALL
GASTEIGER

@<TRIPOS>ATOM
      1 C           4.8459   -1.1847   18.4816 C.ar    1  UNL1        0.1432
      2 C           3.5590   -1.0417   17.7244 C.ar    1  UNL1        0.0384
      3 C           2.7455    0.2114   17.8578 C.ar    1  UNL1        0.0215
      4 C           3.2189    1.3217   18.7485 C.ar    1  UNL1        0.1061
      5 C           4.5059    1.1787   19.5057 C.ar    1  UNL1        0.0259
      6 C           5.3194   -0.0745   19.3723 C.ar    1  UNL1        0.0888
      7 C           6.6063   -0.2174   20.1296 C.2     1  UNL1        0.2525
      8 O           7.9000    0.1996   19.4952 O.2     1  UNL1       -0.2698
      9 N           6.5995   -0.7773   21.5211 N.am    1  UNL1       -0.2660
     10 C           5.3901   -1.2344   22.2817 C.3     1  UNL1        0.1236
     11 C           5.8441   -1.7180   23.6270 C.ar    1  UNL1        0.0338
     12 C           5.3772   -2.2993   24.9286 C.ar    1  UNL1        0.0991
     13 N           6.5786   -2.5004   25.8040 N.ar    1  UNL1       -0.2271
     14 N           7.7880   -2.0433   25.0434 N.ar    1  UNL1       -0.1680
     15 C           7.3340   -1.5597   23.6980 C.ar    1  UNL1        0.0981
     16 C           7.8009   -0.9783   22.3965 C.3     1  UNL1        0.1414
     17 C           6.5718   -3.0603   27.1955 C.ar    1  UNL1        0.1042
     18 C           6.1891   -2.1870   28.3534 C.ar    1  UNL1        0.1181
     19 N           6.1823   -2.7468   29.7451 N.ar    1  UNL1       -0.2384
     20 C           6.5581   -4.1800   29.9787 C.ar    1  UNL1        0.1285
     21 C           6.9408   -5.0534   28.8207 C.ar    1  UNL1        0.1607
     22 F           7.3166   -6.4867   29.0544 F       1  UNL1       -0.2025
     23 C           6.9476   -4.4936   27.4292 C.ar    1  UNL1        0.0520
     24 S           2.4054    2.5748   18.8819 S.O2    1  UNL1        0.0105
     25 C           1.5919    3.8280   19.0153 C.3     1  UNL1        0.1816
     26 O           1.1729    1.8168   18.4864 O.2     1  UNL1       -0.1686
     27 O           3.6380    3.3328   19.2773 O.2     1  UNL1       -0.1686
     28 O           5.6594   -2.4379   18.3482 O.3     1  UNL1       -0.4702
     29 C           6.4885   -4.0221   20.2331 C.3     1  UNL1        0.0566
     30 C           5.4171   -3.5916   19.2756 C.3     1  UNL1        0.2599
     31 C           4.1034   -4.3149   19.2455 C.3     1  UNL1        0.4340
     32 F           2.7897   -5.0382   19.2152 F       1  UNL1       -0.1664
     33 F           4.6520   -5.2689   18.2261 F       1  UNL1       -0.1664
     34 F           3.5547   -3.3610   20.2647 F       1  UNL1       -0.1664
@<TRIPOS>BOND
     1    30    29    1
     2    30    28    1
     3    28     1    1
     4     1     2   ar
     5     2     3   ar
     6     3     4   ar
     7     4    24    1
     8    24    25    1
     9    24    26    2
    10    24    27    2
    11     4     5   ar
    12     5     6   ar
    13     6     7    1
    14     7     8    2
    15     7     9   am
    16     9    10    1
    17    10    11    1
    18    11    12   ar
    19    12    13   ar
    20    13    17    1
    21    17    18   ar
    22    18    19   ar
    23    19    20   ar
    24    20    21   ar
    25    21    22    1
    26    21    23   ar
    27    13    14   ar
    28    14    15   ar
    29    15    16    1
    30    30    31    1
    31    31    32    1
    32    31    33    1
    33    31    34    1
    34     6     1   ar
    35    16     9    1
    36    15    11   ar
    37    23    17   ar
@<TRIPOS>MOLECULE
*****
 34 37 0 0 0
SMALL
GASTEIGER

@<TRIPOS>ATOM
      1 C         -13.6640   -6.0100   18.9787 C.ar    1  UNL1        0.1432
      2 C         -12.2734   -6.4516   19.3267 C.ar    1  UNL1        0.0384
      3 C         -11.0998   -5.8937   18.5775 C.ar    1  UNL1        0.0215
      4 C         -11.3167   -4.8941   17.4804 C.ar    1  UNL1        0.1061
      5 C         -12.7074   -4.4525   17.1324 C.ar    1  UNL1        0.0259
      6 C         -13.8811   -5.0104   17.8816 C.ar    1  UNL1        0.0888
      7 C         -15.2716   -4.5687   17.5335 C.2     1  UNL1        0.2525
      8 O         -16.0722   -5.3372   16.5243 O.2     1  UNL1       -0.2698
      9 N         -15.8617   -3.3585   18.1947 N.am    1  UNL1       -0.2660
     10 C         -15.1851   -2.4944   19.2173 C.3     1  UNL1        0.1236
     11 C         -16.1373   -1.4018   19.6039 C.ar    1  UNL1        0.0338
     12 C         -16.3075   -0.1925   20.4749 C.ar    1  UNL1        0.0991
     13 N         -17.6779    0.3663   20.2296 N.ar    1  UNL1       -0.2271
     14 N         -18.3545   -0.4978   19.2069 N.ar    1  UNL1       -0.1680
     15 C         -17.4023   -1.5905   18.8203 C.ar    1  UNL1        0.0981
     16 C         -17.2320   -2.7998   17.9494 C.3     1  UNL1        0.1414
     17 C         -18.2679    1.5764   20.8907 C.ar    1  UNL1        0.1042
     18 C         -19.4197    2.2938   20.2513 C.ar    1  UNL1        0.1181
     19 N         -20.0098    3.5040   20.9124 N.ar    1  UNL1       -0.2384
     20 C         -19.4482    3.9969   22.2130 C.ar    1  UNL1        0.1285
     21 C         -18.2963    3.2795   22.8525 C.ar    1  UNL1        0.1607
     22 F         -17.7347    3.7725   24.1531 F       1  UNL1       -0.2025
     23 C         -17.7063    2.0694   22.1914 C.ar    1  UNL1        0.0520
     24 S         -10.1430   -4.3363   16.7312 S.O2    1  UNL1        0.0105
     25 C          -8.9693   -3.7784   15.9821 C.3     1  UNL1        0.1816
     26 O          -9.2318   -5.2844   17.4528 O.2     1  UNL1       -0.1686
     27 O         -11.0544   -3.3881   16.0097 O.2     1  UNL1       -0.1686
     28 O         -14.8377   -6.5679   19.7279 O.3     1  UNL1       -0.4702
     29 C         -14.9009   -8.6400   18.1619 C.3     1  UNL1        0.0566
     30 C         -15.5454   -7.7864   19.2135 C.3     1  UNL1        0.2599
     31 C         -16.8974   -8.1511   19.7509 C.3     1  UNL1        0.4340
     32 F         -18.2496   -8.5158   20.2882 F       1  UNL1       -0.1664
     33 F         -17.5185   -7.0618   18.9275 F       1  UNL1       -0.1664
     34 F         -16.2765   -9.2404   20.5742 F       1  UNL1       -0.1664
@<TRIPOS>BOND
     1    30    29    1
     2    30    28    1
     3    28     1    1
     4     1     2   ar
     5     2     3   ar
     6     3     4   ar
     7     4    24    1
     8    24    25    1
     9    24    26    2
    10    24    27    2
    11     4     5   ar
    12     5     6   ar
    13     6     7    1
    14     7     8    2
    15     7     9   am
    16     9    10    1
    17    10    11    1
    18    11    12   ar
    19    12    13   ar
    20    13    17    1
    21    17    18   ar
    22    18    19   ar
    23    19    20   ar
    24    20    21   ar
    25    21    22    1
    26    21    23   ar
    27    13    14   ar
    28    14    15   ar
    29    15    16    1
    30    30    31    1
    31    31    32    1
    32    31    33    1
    33    31    34    1
    34     6     1   ar
    35    16     9    1
    36    15    11   ar
    37    23    17   ar
@<TRIPOS>MOLECULE
*****
 34 37 0 0 0
SMALL
GASTEIGER

@<TRIPOS>ATOM
      1 C           3.5623   -0.9859   20.5909 C.ar    1  UNL1        0.1432
      2 C           2.2059   -1.0810   19.9577 C.ar    1  UNL1        0.0384
      3 C           1.1243   -0.1200   20.3536 C.ar    1  UNL1        0.0215
      4 C           1.3992    0.9361   21.3827 C.ar    1  UNL1        0.1061
      5 C           2.7557    1.0311   22.0160 C.ar    1  UNL1        0.0259
      6 C           3.8373    0.0702   21.6201 C.ar    1  UNL1        0.0888
      7 C           5.1937    0.1653   22.2533 C.2     1  UNL1        0.2525
      8 O           6.3133    0.8515   21.5284 O.2     1  UNL1       -0.2698
      9 N           5.4305   -0.4258   23.6115 N.am    1  UNL1       -0.2660
     10 C           4.4131   -1.1382   24.4525 C.3     1  UNL1        0.1236
     11 C           5.0802   -1.5609   25.7278 C.ar    1  UNL1        0.0338
     12 C           4.8636   -2.2625   27.0359 C.ar    1  UNL1        0.0991
     13 N           6.1594   -2.2450   27.7914 N.ar    1  UNL1       -0.2271
     14 N           7.1768   -1.5325   26.9502 N.ar    1  UNL1       -0.1680
     15 C           6.5097   -1.1098   25.6749 C.ar    1  UNL1        0.0981
     16 C           6.7263   -0.4082   24.3669 C.3     1  UNL1        0.1414
     17 C           6.3962   -2.8360   29.1495 C.ar    1  UNL1        0.1042
     18 C           6.5808   -4.3168   29.3012 C.ar    1  UNL1        0.1181
     19 N           6.8177   -4.9080   30.6593 N.ar    1  UNL1       -0.2384
     20 C           6.8699   -4.0182   31.8658 C.ar    1  UNL1        0.1285
     21 C           6.6852   -2.5373   31.7141 C.ar    1  UNL1        0.1607
     22 F           6.7374   -1.6475   32.9206 F       1  UNL1       -0.2025
     23 C           6.4484   -1.9462   30.3560 C.ar    1  UNL1        0.0520
     24 S           0.3176    1.8970   21.7786 S.O2    1  UNL1        0.0105
     25 C          -0.7640    2.8580   22.1745 C.3     1  UNL1        0.1816
     26 O           0.1249    2.2731   20.3394 O.2     1  UNL1       -0.1686
     27 O           0.5103    1.5209   23.2179 O.2     1  UNL1       -0.1686
     28 O           4.6439   -1.9469   20.1950 O.3     1  UNL1       -0.4702
     29 C           4.2917   -3.8354   21.9441 C.3     1  UNL1        0.0566
     30 C           4.5097   -3.4042   20.5241 C.3     1  UNL1        0.2599
     31 C           4.5936   -4.4302   19.4331 C.3     1  UNL1        0.4340
     32 F           4.6773   -5.4561   18.3421 F       1  UNL1       -0.1664
     33 F           3.1422   -4.2160   19.1202 F       1  UNL1       -0.1664
     34 F           6.0448   -4.6444   19.7460 F       1  UNL1       -0.1664
@<TRIPOS>BOND
     1    30    29    1
     2    30    28    1
     3    28     1    1
     4     1     2   ar
     5     2     3   ar
     6     3     4   ar
     7     4    24    1
     8    24    25    1
     9    24    26    2
    10    24    27    2
    11     4     5   ar
    12     5     6   ar
    13     6     7    1
    14     7     8    2
    15     7     9   am
    16     9    10    1
    17    10    11    1
    18    11    12   ar
    19    12    13   ar
    20    13    17    1
    21    17    18   ar
    22    18    19   ar
    23    19    20   ar
    24    20    21   ar
    25    21    22    1
    26    21    23   ar
    27    13    14   ar
    28    14    15   ar
    29    15    16    1
    30    30    31    1
    31    31    32    1
    32    31    33    1
    33    31    34    1
    34     6     1   ar
    35    16     9    1
    36    15    11   ar
    37    23    17   ar
@<TRIPOS>MOLECULE
*****
 34 37 0 0 0
SMALL
GASTEIGER

@<TRIPOS>ATOM
      1 C           7.6538   -3.4996   30.2318 C.ar    1  UNL1        0.1432
      2 C           6.8931   -3.9983   31.4245 C.ar    1  UNL1        0.0384
      3 C           5.8621   -3.1246   32.0756 C.ar    1  UNL1        0.0215
      4 C           5.5918   -1.7522   31.5339 C.ar    1  UNL1        0.1061
      5 C           6.3526   -1.2535   30.3411 C.ar    1  UNL1        0.0259
      6 C           7.3835   -2.1271   29.6901 C.ar    1  UNL1        0.0888
      7 C           8.1442   -1.6283   28.4974 C.2     1  UNL1        0.2525
      8 O           9.5154   -1.0460   28.6722 O.2     1  UNL1       -0.2698
      9 N           7.5336   -1.7119   27.1298 N.am    1  UNL1       -0.2660
     10 C           6.1790   -2.2661   26.8014 C.3     1  UNL1        0.1236
     11 C           5.9787   -2.1527   25.3192 C.ar    1  UNL1        0.0338
     12 C           5.0177   -2.4250   24.2001 C.ar    1  UNL1        0.0991
     13 N           5.6546   -1.9692   22.9208 N.ar    1  UNL1       -0.2271
     14 N           7.0093   -1.4150   23.2493 N.ar    1  UNL1       -0.1680
     15 C           7.2096   -1.5284   24.7315 C.ar    1  UNL1        0.0981
     16 C           8.1706   -1.2560   25.8505 C.3     1  UNL1        0.1414
     17 C           5.0441   -2.0527   21.5533 C.ar    1  UNL1        0.1042
     18 C           5.0639   -0.8564   20.6487 C.ar    1  UNL1        0.1181
     19 N           4.4534   -0.9399   19.2811 N.ar    1  UNL1       -0.2384
     20 C           3.8231   -2.2199   18.8181 C.ar    1  UNL1        0.1285
     21 C           3.8033   -3.4163   19.7227 C.ar    1  UNL1        0.1607
     22 F           3.1730   -4.6963   19.2596 F       1  UNL1       -0.2025
     23 C           4.4138   -3.3327   21.0902 C.ar    1  UNL1        0.0520
     24 S           4.5609   -0.8786   32.1850 S.O2    1  UNL1        0.0105
     25 C           3.5300   -0.0049   32.8360 C.3     1  UNL1        0.1816
     26 O           5.2505    0.3386   31.6436 O.2     1  UNL1       -0.1686
     27 O           3.8714   -2.0958   32.7263 O.2     1  UNL1       -0.1686
     28 O           8.6847   -4.3732   29.5808 O.3     1  UNL1       -0.4702
     29 C           8.7753   -6.9635   29.4015 C.3     1  UNL1        0.0566
     30 C           8.2694   -5.6436   28.8997 C.3     1  UNL1        0.2599
     31 C           7.3481   -5.5938   27.7171 C.3     1  UNL1        0.4340
     32 F           6.4268   -5.5441   26.5344 F       1  UNL1       -0.1664
     33 F           6.1663   -5.7196   28.6323 F       1  UNL1       -0.1664
     34 F           8.5298   -5.4681   26.8018 F       1  UNL1       -0.1664
@<TRIPOS>BOND
     1    30    29    1
     2    30    28    1
     3    28     1    1
     4     1     2   ar
     5     2     3   ar
     6     3     4   ar
     7     4    24    1
     8    24    25    1
     9    24    26    2
    10    24    27    2
    11     4     5   ar
    12     5     6   ar
    13     6     7    1
    14     7     8    2
    15     7     9   am
    16     9    10    1
    17    10    11    1
    18    11    12   ar
    19    12    13   ar
    20    13    17    1
    21    17    18   ar
    22    18    19   ar
    23    19    20   ar
    24    20    21   ar
    25    21    22    1
    26    21    23   ar
    27    13    14   ar
    28    14    15   ar
    29    15    16    1
    30    30    31    1
    31    31    32    1
    32    31    33    1
    33    31    34    1
    34     6     1   ar
    35    16     9    1
    36    15    11   ar
    37    23    17   ar
@<TRIPOS>MOLECULE
*****
 34 37 0 0 0
SMALL
GASTEIGER

@<TRIPOS>ATOM
      1 C           4.6887    1.4578   35.6111 C.ar    1  UNL1        0.1432
      2 C           4.5355    0.4059   36.6694 C.ar    1  UNL1        0.0384
      3 C           3.5114    0.5750   37.7523 C.ar    1  UNL1        0.0215
      4 C           2.6405    1.7961   37.7769 C.ar    1  UNL1        0.1061
      5 C           2.7938    2.8480   36.7185 C.ar    1  UNL1        0.0259
      6 C           3.8178    2.6789   35.6356 C.ar    1  UNL1        0.0888
      7 C           3.9710    3.7308   34.5773 C.2     1  UNL1        0.2525
      8 O           4.8765    4.9035   34.8111 O.2     1  UNL1       -0.2698
      9 N           3.2185    3.6100   33.2853 N.am    1  UNL1       -0.2660
     10 C           2.2817    2.4999   32.9111 C.3     1  UNL1        0.1236
     11 C           1.7551    2.7820   31.5352 C.ar    1  UNL1        0.0338
     12 C           0.8506    2.2702   30.4536 C.ar    1  UNL1        0.0991
     13 N           0.9028    3.2383   29.3089 N.ar    1  UNL1       -0.2271
     14 N           1.8396    4.3485   29.6833 N.ar    1  UNL1       -0.1680
     15 C           2.3663    4.0664   31.0591 C.ar    1  UNL1        0.0981
     16 C           3.2708    4.5781   32.1408 C.3     1  UNL1        0.1414
     17 C           0.1504    3.1175   28.0170 C.ar    1  UNL1        0.1042
     18 C          -0.8008    4.1994   27.5991 C.ar    1  UNL1        0.1181
     19 N          -1.5533    4.0787   26.3071 N.ar    1  UNL1       -0.2384
     20 C          -1.3545    2.8760   25.4330 C.ar    1  UNL1        0.1285
     21 C          -0.4032    1.7941   25.8509 C.ar    1  UNL1        0.1607
     22 F          -0.2044    0.5914   24.9767 F       1  UNL1       -0.2025
     23 C           0.3492    1.9148   27.1428 C.ar    1  UNL1        0.0520
     24 S           1.6165    1.9652   38.8598 S.O2    1  UNL1        0.0105
     25 C           0.5924    2.1343   39.9427 C.3     1  UNL1        0.1816
     26 O           2.2161    0.8111   39.6071 O.2     1  UNL1       -0.1686
     27 O           1.0168    3.1193   38.1124 O.2     1  UNL1       -0.1686
     28 O           5.7128    1.2887   34.5282 O.3     1  UNL1       -0.4702
     29 C           5.5575    0.9855   31.9525 C.3     1  UNL1        0.0566
     30 C           5.4100    0.4283   33.3374 C.3     1  UNL1        0.2599
     31 C           4.9598   -0.9893   33.5315 C.3     1  UNL1        0.4340
     32 F           4.5095   -2.4069   33.7256 F       1  UNL1       -0.1664
     33 F           3.5410   -0.5734   33.2784 F       1  UNL1       -0.1664
     34 F           6.3786   -1.4053   33.7845 F       1  UNL1       -0.1664
@<TRIPOS>BOND
     1    30    29    1
     2    30    28    1
     3    28     1    1
     4     1     2   ar
     5     2     3   ar
     6     3     4   ar
     7     4    24    1
     8    24    25    1
     9    24    26    2
    10    24    27    2
    11     4     5   ar
    12     5     6   ar
    13     6     7    1
    14     7     8    2
    15     7     9   am
    16     9    10    1
    17    10    11    1
    18    11    12   ar
    19    12    13   ar
    20    13    17    1
    21    17    18   ar
    22    18    19   ar
    23    19    20   ar
    24    20    21   ar
    25    21    22    1
    26    21    23   ar
    27    13    14   ar
    28    14    15   ar
    29    15    16    1
    30    30    31    1
    31    31    32    1
    32    31    33    1
    33    31    34    1
    34     6     1   ar
    35    16     9    1
    36    15    11   ar
    37    23    17   ar
