@<TRIPOS>MOLECULE
*****
 40 44 0 0 0
SMALL
GASTEIGER

@<TRIPOS>ATOM
      1 C          -1.8520    3.3365   21.1182 C.ar    1  UNL1        0.1348
      2 C          -1.7226    4.1222   22.3894 C.ar    1  UNL1        0.0346
      3 C          -0.6531    3.7728   23.3815 C.ar    1  UNL1        0.0065
      4 C           0.2868    2.6378   23.1025 C.ar    1  UNL1        0.0432
      5 C           0.1574    1.8520   21.8313 C.ar    1  UNL1        0.1256
      6 N          -0.9120    2.2014   20.8392 N.ar    1  UNL1       -0.2222
      7 C           1.3563    2.2884   24.0946 C.ar    1  UNL1        0.0850
      8 C           2.8324    2.4709   23.9007 C.ar    1  UNL1        0.0991
      9 N           3.5258    1.9905   25.1410 N.ar    1  UNL1       -0.2265
     10 C           2.4781    1.5109   26.1014 C.ar    1  UNL1        0.1474
     11 C           2.5719    0.9304   27.4814 C.ar    1  UNL1        0.0332
     12 C           1.3248    0.5340   28.2146 C.ar    1  UNL1       -0.0174
     13 C           1.4185   -0.0465   29.5946 C.3     1  UNL1        0.0312
     14 C          -0.0161    0.7181   27.5679 C.ar    1  UNL1        0.0149
     15 C          -0.1098    1.2986   26.1880 C.ar    1  UNL1        0.0811
     16 N           1.1373    1.6950   25.4548 N.ar    1  UNL1       -0.2888
     17 C           3.4983    3.0350   22.6806 C.ar    1  UNL1        0.0219
     18 C           3.2020    4.4398   22.2463 C.ar    1  UNL1        0.0222
     19 C           3.8679    5.0037   21.0263 C.ar    1  UNL1        0.0985
     20 N           4.8300    4.1629   20.2406 N.ar    1  UNL1       -0.2481
     21 C           5.1263    2.7582   20.6750 C.ar    1  UNL1        0.0594
     22 C           6.0885    1.9173   19.8894 C.3     1  UNL1        0.0521
     23 C           4.4605    2.1942   21.8950 C.ar    1  UNL1        0.0163
     24 C          -4.3440    3.2868   20.3850 C.2     1  UNL1        0.2414
     25 O          -4.6971    2.5383   21.6360 O.2     1  UNL1       -0.2733
     26 N          -2.9214    3.6859   20.1261 N.am    1  UNL1       -0.2682
     27 H          -2.6897    4.1772   19.3051 H       1  UNL1        0.1563
     28 C          -5.4134    3.6362   19.3929 C.3     1  UNL1        0.1319
     29 C          -5.1125    3.6047   17.9237 C.3     1  UNL1        0.0270
     30 C          -6.9510    5.1407   20.8497 C.3     1  UNL1        0.0862
     31 N          -6.7835    4.0172   19.8699 N.3     1  UNL1       -0.2902
     32 H          -7.3251    4.2654   19.0420 H       1  UNL1        0.1237
     33 C           1.0974    0.7169   21.5522 C.1     1  UNL1       -0.0404
     34 C           2.0375   -0.4183   21.2732 C.1     1  UNL1       -0.0583
     35 C           2.9775   -1.5534   20.9941 C.ar    1  UNL1        0.0420
     36 C           3.8481   -2.0929   22.0900 C.ar    1  UNL1        0.0082
     37 C           4.7881   -3.2280   21.8109 C.ar    1  UNL1        0.0006
     38 C           4.8574   -3.8236   20.4359 C.ar    1  UNL1        0.0000
     39 C           3.9868   -3.2841   19.3401 C.ar    1  UNL1        0.0006
     40 C           3.0468   -2.1490   19.6191 C.ar    1  UNL1        0.0082
@<TRIPOS>BOND
     1    30    31    1
     2    31    28    1
     3    28    29    1
     4    28    24    1
     5    24    25    2
     6    24    26   am
     7    26     1    1
     8     1     2   ar
     9     2     3   ar
    10     3     4   ar
    11     4     7    1
    12     7     8   ar
    13     8    17    1
    14    17    18   ar
    15    18    19   ar
    16    19    20   ar
    17    20    21   ar
    18    21    22    1
    19    21    23   ar
    20     8     9   ar
    21     9    10   ar
    22    10    11   ar
    23    11    12   ar
    24    12    13    1
    25    12    14   ar
    26    14    15   ar
    27    15    16   ar
    28     4     5   ar
    29     5    33    1
    30    33    34    3
    31    34    35    1
    32    35    36   ar
    33    36    37   ar
    34    37    38   ar
    35    38    39   ar
    36    39    40   ar
    37     5     6   ar
    38     6     1   ar
    39    16     7   ar
    40    40    35   ar
    41    23    17   ar
    42    16    10   ar
    43    31    32    1
    44    26    27    1
@<TRIPOS>MOLECULE
*****
 40 44 0 0 0
SMALL
GASTEIGER

@<TRIPOS>ATOM
      1 C          -0.5127    1.8928   25.8198 C.ar    1  UNL1        0.1348
      2 C          -1.2953    3.1400   25.5332 C.ar    1  UNL1        0.0346
      3 C          -1.3244    3.7044   24.1438 C.ar    1  UNL1        0.0065
      4 C          -0.5710    3.0218   23.0409 C.ar    1  UNL1        0.0432
      5 C           0.2116    1.7746   23.3275 C.ar    1  UNL1        0.1256
      6 N           0.2408    1.2101   24.7170 N.ar    1  UNL1       -0.2222
      7 C          -0.6002    3.5863   21.6515 C.ar    1  UNL1        0.0850
      8 C           0.5625    4.1894   20.9203 C.ar    1  UNL1        0.0991
      9 N           0.0842    4.6226   19.5662 N.ar    1  UNL1       -0.2265
     10 C          -1.3741    4.2873   19.4606 C.ar    1  UNL1        0.1474
     11 C          -2.3714    4.4824   18.3574 C.ar    1  UNL1        0.0332
     12 C          -3.7917    4.0370   18.5429 C.ar    1  UNL1       -0.0174
     13 C          -4.7891    4.2322   17.4395 C.3     1  UNL1        0.0312
     14 C          -4.2147    3.3965   19.8316 C.ar    1  UNL1        0.0149
     15 C          -3.2173    3.2014   20.9349 C.ar    1  UNL1        0.0811
     16 N          -1.7970    3.6468   20.7494 N.ar    1  UNL1       -0.2888
     17 C           1.9583    4.3338   21.4502 C.ar    1  UNL1        0.0219
     18 C           2.2023    5.0839   22.7261 C.ar    1  UNL1        0.0222
     19 C           3.5981    5.2283   23.2559 C.ar    1  UNL1        0.0985
     20 N           4.7499    4.6227   22.5099 N.ar    1  UNL1       -0.2481
     21 C           4.5059    3.8727   21.2341 C.ar    1  UNL1        0.0594
     22 C           5.6577    3.2671   20.4880 C.3     1  UNL1        0.0521
     23 C           3.1101    3.7283   20.7042 C.ar    1  UNL1        0.0163
     24 C           0.7277    1.5226   28.0725 C.2     1  UNL1        0.2414
     25 O           1.9098    2.2814   27.5462 O.2     1  UNL1       -0.2733
     26 N          -0.4835    1.3283   27.2093 N.am    1  UNL1       -0.2682
     27 H          -1.2594    0.8303   27.5546 H       1  UNL1        0.1563
     28 C           0.7568    0.9581   29.4619 C.3     1  UNL1        0.1319
     29 C           0.3159    1.7997   30.6227 C.3     1  UNL1        0.0270
     30 C           2.5846   -0.6989   30.2762 C.3     1  UNL1        0.0862
     31 N           1.2267   -0.4479   29.6905 N.3     1  UNL1       -0.2902
     32 H           0.5506   -0.8863   30.3160 H       1  UNL1        0.1237
     33 C           0.9651    1.0919   22.2247 C.1     1  UNL1       -0.0404
     34 C           1.7185    0.4092   21.1218 C.1     1  UNL1       -0.0583
     35 C           2.4719   -0.2735   20.0190 C.ar    1  UNL1        0.0420
     36 C           2.9772   -1.6728   20.2103 C.ar    1  UNL1        0.0082
     37 C           3.7307   -2.3554   19.1074 C.ar    1  UNL1        0.0006
     38 C           3.9788   -1.6387   17.8133 C.ar    1  UNL1        0.0000
     39 C           3.4735   -0.2394   17.6220 C.ar    1  UNL1        0.0006
     40 C           2.7201    0.4433   18.7248 C.ar    1  UNL1        0.0082
@<TRIPOS>BOND
     1    30    31    1
     2    31    28    1
     3    28    29    1
     4    28    24    1
     5    24    25    2
     6    24    26   am
     7    26     1    1
     8     1     2   ar
     9     2     3   ar
    10     3     4   ar
    11     4     7    1
    12     7     8   ar
    13     8    17    1
    14    17    18   ar
    15    18    19   ar
    16    19    20   ar
    17    20    21   ar
    18    21    22    1
    19    21    23   ar
    20     8     9   ar
    21     9    10   ar
    22    10    11   ar
    23    11    12   ar
    24    12    13    1
    25    12    14   ar
    26    14    15   ar
    27    15    16   ar
    28     4     5   ar
    29     5    33    1
    30    33    34    3
    31    34    35    1
    32    35    36   ar
    33    36    37   ar
    34    37    38   ar
    35    38    39   ar
    36    39    40   ar
    37     5     6   ar
    38     6     1   ar
    39    16     7   ar
    40    40    35   ar
    41    23    17   ar
    42    16    10   ar
    43    31    32    1
    44    26    27    1
@<TRIPOS>MOLECULE
*****
 40 44 0 0 0
SMALL
GASTEIGER

@<TRIPOS>ATOM
      1 C          -2.2381    4.4632   24.7849 C.ar    1  UNL1        0.1348
      2 C          -1.5761    5.1808   25.9237 C.ar    1  UNL1        0.0346
      3 C          -0.1673    4.8384   26.3085 C.ar    1  UNL1        0.0065
      4 C           0.5796    3.7785   25.5545 C.ar    1  UNL1        0.0432
      5 C          -0.0824    3.0609   24.4156 C.ar    1  UNL1        0.1256
      6 N          -1.4912    3.4033   24.0308 N.ar    1  UNL1       -0.2222
      7 C           1.9884    3.4361   25.9392 C.ar    1  UNL1        0.0850
      8 C           2.4100    2.6963   27.1741 C.ar    1  UNL1        0.0991
      9 N           3.9051    2.5763   27.1547 N.ar    1  UNL1       -0.2265
     10 C           4.4074    3.2419   25.9079 C.ar    1  UNL1        0.1474
     11 C           5.7904    3.4328   25.3595 C.ar    1  UNL1        0.0332
     12 C           5.9889    4.1551   24.0599 C.ar    1  UNL1       -0.0174
     13 C           7.3720    4.3459   23.5115 C.3     1  UNL1        0.0312
     14 C           4.8043    4.6864   23.3086 C.ar    1  UNL1        0.0149
     15 C           3.4213    4.4955   23.8570 C.ar    1  UNL1        0.0811
     16 N           3.2228    3.7733   25.1566 N.ar    1  UNL1       -0.2888
     17 C           1.4969    2.1691   28.2410 C.ar    1  UNL1        0.0219
     18 C           1.5343    2.7598   29.6194 C.ar    1  UNL1        0.0222
     19 C           0.6213    2.2326   30.6862 C.ar    1  UNL1        0.0985
     20 N          -0.3292    1.1147   30.3748 N.ar    1  UNL1       -0.2481
     21 C          -0.3667    0.5241   28.9965 C.ar    1  UNL1        0.0594
     22 C          -1.3172   -0.5937   28.6850 C.3     1  UNL1        0.0521
     23 C           0.5464    1.0513   27.9296 C.ar    1  UNL1        0.0163
     24 C          -4.7855    4.4092   25.2925 C.2     1  UNL1        0.2414
     25 O          -4.5153    3.6704   26.5697 O.2     1  UNL1       -0.2733
     26 N          -3.6469    4.8057   24.4001 N.am    1  UNL1       -0.2682
     27 H          -3.8242    5.2906   23.5619 H       1  UNL1        0.1563
     28 C          -6.1943    4.7517   24.9077 C.3     1  UNL1        0.1319
     29 C          -6.8852    5.9174   25.5510 C.3     1  UNL1        0.0270
     30 C          -6.8526    4.3177   22.4322 C.3     1  UNL1        0.0862
     31 N          -6.9122    3.9285   23.8796 N.3     1  UNL1       -0.2902
     32 H          -6.5371    2.9822   23.9458 H       1  UNL1        0.1237
     33 C           0.6645    2.0009   23.6615 C.1     1  UNL1       -0.0404
     34 C           1.4114    0.9409   22.9074 C.1     1  UNL1       -0.0583
     35 C           2.1583   -0.1191   22.1533 C.ar    1  UNL1        0.0420
     36 C           3.2213   -0.9219   22.8429 C.ar    1  UNL1        0.0082
     37 C           3.9681   -1.9819   22.0888 C.ar    1  UNL1        0.0006
     38 C           3.6519   -2.2390   20.6452 C.ar    1  UNL1        0.0000
     39 C           2.5890   -1.4361   19.9556 C.ar    1  UNL1        0.0006
     40 C           1.8421   -0.3761   20.7097 C.ar    1  UNL1        0.0082
@<TRIPOS>BOND
     1    30    31    1
     2    31    28    1
     3    28    29    1
     4    28    24    1
     5    24    25    2
     6    24    26   am
     7    26     1    1
     8     1     2   ar
     9     2     3   ar
    10     3     4   ar
    11     4     7    1
    12     7     8   ar
    13     8    17    1
    14    17    18   ar
    15    18    19   ar
    16    19    20   ar
    17    20    21   ar
    18    21    22    1
    19    21    23   ar
    20     8     9   ar
    21     9    10   ar
    22    10    11   ar
    23    11    12   ar
    24    12    13    1
    25    12    14   ar
    26    14    15   ar
    27    15    16   ar
    28     4     5   ar
    29     5    33    1
    30    33    34    3
    31    34    35    1
    32    35    36   ar
    33    36    37   ar
    34    37    38   ar
    35    38    39   ar
    36    39    40   ar
    37     5     6   ar
    38     6     1   ar
    39    16     7   ar
    40    40    35   ar
    41    23    17   ar
    42    16    10   ar
    43    31    32    1
    44    26    27    1
@<TRIPOS>MOLECULE
*****
 40 44 0 0 0
SMALL
GASTEIGER

@<TRIPOS>ATOM
      1 C           6.0375   -0.7547   28.9898 C.ar    1  UNL1        0.1348
      2 C           5.6234    0.5676   29.5643 C.ar    1  UNL1        0.0346
      3 C           4.8039    1.5185   28.7433 C.ar    1  UNL1        0.0065
      4 C           4.3983    1.1473   27.3478 C.ar    1  UNL1        0.0432
      5 C           4.8123   -0.1751   26.7732 C.ar    1  UNL1        0.1256
      6 N           5.6319   -1.1260   27.5942 N.ar    1  UNL1       -0.2222
      7 C           3.5787    2.0982   26.5268 C.ar    1  UNL1        0.0850
      8 C           2.1623    2.5070   26.8035 C.ar    1  UNL1        0.0991
      9 N           1.7398    3.4688   25.7327 N.ar    1  UNL1       -0.2265
     10 C           2.8952    3.6543   24.7942 C.ar    1  UNL1        0.1474
     11 C           3.0592    4.4851   23.5562 C.ar    1  UNL1        0.0332
     12 C           4.3597    4.4688   22.8089 C.ar    1  UNL1       -0.0174
     13 C           4.5237    5.2997   21.5707 C.3     1  UNL1        0.0312
     14 C           5.4962    3.6218   23.2996 C.ar    1  UNL1        0.0149
     15 C           5.3322    2.7910   24.5377 C.ar    1  UNL1        0.0811
     16 N           4.0317    2.8072   25.2850 N.ar    1  UNL1       -0.2888
     17 C           1.3168    2.0367   27.9498 C.ar    1  UNL1        0.0219
     18 C           1.4022    2.7284   29.2781 C.ar    1  UNL1        0.0222
     19 C           0.5567    2.2581   30.4242 C.ar    1  UNL1        0.0985
     20 N          -0.3742    1.0961   30.2422 N.ar    1  UNL1       -0.2481
     21 C          -0.4596    0.4044   28.9141 C.ar    1  UNL1        0.0594
     22 C          -1.3904   -0.7577   28.7320 C.3     1  UNL1        0.0521
     23 C           0.3859    0.8747   27.7678 C.ar    1  UNL1        0.0163
     24 C           6.2825   -2.3056   31.0597 C.2     1  UNL1        0.2414
     25 O           4.8883   -1.9546   31.4877 O.2     1  UNL1       -0.2733
     26 N           6.8570   -1.7056   29.8108 N.am    1  UNL1       -0.2682
     27 H           7.7721   -1.9360   29.5299 H       1  UNL1        0.1563
     28 C           7.1021   -3.2565   31.8807 C.3     1  UNL1        0.1319
     29 C           8.4367   -2.8280   32.4148 C.3     1  UNL1        0.0270
     30 C           7.0137   -5.7892   31.3086 C.3     1  UNL1        0.0862
     31 N           6.5872   -4.6358   32.1675 N.3     1  UNL1       -0.2902
     32 H           6.8653   -4.8612   33.1226 H       1  UNL1        0.1237
     33 C           4.4068   -0.5464   25.3776 C.1     1  UNL1       -0.0404
     34 C           4.0013   -0.9178   23.9820 C.1     1  UNL1       -0.0583
     35 C           3.5957   -1.2891   22.5864 C.ar    1  UNL1        0.0420
     36 C           2.4884   -0.5425   21.9034 C.ar    1  UNL1        0.0082
     37 C           2.0829   -0.9139   20.5079 C.ar    1  UNL1        0.0006
     38 C           2.7847   -2.0319   19.7954 C.ar    1  UNL1        0.0000
     39 C           3.8919   -2.7785   20.4783 C.ar    1  UNL1        0.0006
     40 C           4.2975   -2.4071   21.8739 C.ar    1  UNL1        0.0082
@<TRIPOS>BOND
     1    30    31    1
     2    31    28    1
     3    28    29    1
     4    28    24    1
     5    24    25    2
     6    24    26   am
     7    26     1    1
     8     1     2   ar
     9     2     3   ar
    10     3     4   ar
    11     4     7    1
    12     7     8   ar
    13     8    17    1
    14    17    18   ar
    15    18    19   ar
    16    19    20   ar
    17    20    21   ar
    18    21    22    1
    19    21    23   ar
    20     8     9   ar
    21     9    10   ar
    22    10    11   ar
    23    11    12   ar
    24    12    13    1
    25    12    14   ar
    26    14    15   ar
    27    15    16   ar
    28     4     5   ar
    29     5    33    1
    30    33    34    3
    31    34    35    1
    32    35    36   ar
    33    36    37   ar
    34    37    38   ar
    35    38    39   ar
    36    39    40   ar
    37     5     6   ar
    38     6     1   ar
    39    16     7   ar
    40    40    35   ar
    41    23    17   ar
    42    16    10   ar
    43    31    32    1
    44    26    27    1
@<TRIPOS>MOLECULE
*****
 40 44 0 0 0
SMALL
GASTEIGER

@<TRIPOS>ATOM
      1 C          -3.0012    4.5609   21.9542 C.ar    1  UNL1        0.1348
      2 C          -2.1382    4.6216   20.7289 C.ar    1  UNL1        0.0346
      3 C          -0.7760    3.9937   20.7391 C.ar    1  UNL1        0.0065
      4 C          -0.2767    3.3051   21.9745 C.ar    1  UNL1        0.0432
      5 C          -1.1398    3.2444   23.2000 C.ar    1  UNL1        0.1256
      6 N          -2.5020    3.8723   23.1898 N.ar    1  UNL1       -0.2222
      7 C           1.0855    2.6772   21.9847 C.ar    1  UNL1        0.0850
      8 C           2.3163    3.2516   22.6212 C.ar    1  UNL1        0.0991
      9 N           3.4475    2.2940   22.3901 N.ar    1  UNL1       -0.2265
     10 C           2.9158    1.1278   21.6108 C.ar    1  UNL1        0.1474
     11 C           3.5723   -0.1191   21.0970 C.ar    1  UNL1        0.0332
     12 C           2.7690   -1.1293   20.3326 C.ar    1  UNL1       -0.0174
     13 C           3.4256   -2.3763   19.8188 C.3     1  UNL1        0.0312
     14 C           1.3091   -0.8925   20.0821 C.ar    1  UNL1        0.0149
     15 C           0.6526    0.3544   20.5959 C.ar    1  UNL1        0.0811
     16 N           1.4560    1.3646   21.3603 N.ar    1  UNL1       -0.2888
     17 C           2.4010    4.5547   23.3591 C.ar    1  UNL1        0.0219
     18 C           2.4167    5.8476   22.5987 C.ar    1  UNL1        0.0222
     19 C           2.5014    7.1507   23.3367 C.ar    1  UNL1        0.0985
     20 N           2.5705    7.1610   24.8351 N.ar    1  UNL1       -0.2481
     21 C           2.5548    5.8682   25.5954 C.ar    1  UNL1        0.0594
     22 C           2.6238    5.8783   27.0938 C.3     1  UNL1        0.0521
     23 C           2.4701    4.5650   24.8575 C.ar    1  UNL1        0.0163
     24 C          -5.5294    4.4417   21.3676 C.2     1  UNL1        0.2414
     25 O          -5.3331    3.0666   20.8014 O.2     1  UNL1       -0.2733
     26 N          -4.3634    5.1889   21.9440 N.am    1  UNL1       -0.2682
     27 H          -4.4922    6.0914   22.3157 H       1  UNL1        0.1563
     28 C          -6.8916    5.0698   21.3575 C.3     1  UNL1        0.1319
     29 C          -7.2774    6.0063   20.2511 C.3     1  UNL1        0.0270
     30 C          -7.4487    4.8862   23.8884 C.3     1  UNL1        0.0862
     31 N          -7.8679    4.7612   22.4536 N.3     1  UNL1       -0.2902
     32 H          -8.6636    5.3861   22.3238 H       1  UNL1        0.1237
     33 C          -0.6406    2.5557   24.4355 C.1     1  UNL1       -0.0404
     34 C          -0.1414    1.8671   25.6711 C.1     1  UNL1       -0.0583
     35 C           0.3577    1.1784   26.9067 C.ar    1  UNL1        0.0420
     36 C           1.8295    1.1203   27.1901 C.ar    1  UNL1        0.0082
     37 C           2.3287    0.4317   28.4257 C.ar    1  UNL1        0.0006
     38 C           1.3560   -0.1989   29.3777 C.ar    1  UNL1        0.0000
     39 C          -0.1158   -0.1408   29.0942 C.ar    1  UNL1        0.0006
     40 C          -0.6150    0.5479   27.8587 C.ar    1  UNL1        0.0082
@<TRIPOS>BOND
     1    30    31    1
     2    31    28    1
     3    28    29    1
     4    28    24    1
     5    24    25    2
     6    24    26   am
     7    26     1    1
     8     1     2   ar
     9     2     3   ar
    10     3     4   ar
    11     4     7    1
    12     7     8   ar
    13     8    17    1
    14    17    18   ar
    15    18    19   ar
    16    19    20   ar
    17    20    21   ar
    18    21    22    1
    19    21    23   ar
    20     8     9   ar
    21     9    10   ar
    22    10    11   ar
    23    11    12   ar
    24    12    13    1
    25    12    14   ar
    26    14    15   ar
    27    15    16   ar
    28     4     5   ar
    29     5    33    1
    30    33    34    3
    31    34    35    1
    32    35    36   ar
    33    36    37   ar
    34    37    38   ar
    35    38    39   ar
    36    39    40   ar
    37     5     6   ar
    38     6     1   ar
    39    16     7   ar
    40    40    35   ar
    41    23    17   ar
    42    16    10   ar
    43    31    32    1
    44    26    27    1
@<TRIPOS>MOLECULE
*****
 40 44 0 0 0
SMALL
GASTEIGER

@<TRIPOS>ATOM
      1 C           0.7704    0.9956   20.1620 C.ar    1  UNL1        0.1348
      2 C           0.0016    2.0940   19.4895 C.ar    1  UNL1        0.0346
      3 C          -0.7308    3.1105   20.3144 C.ar    1  UNL1        0.0065
      4 C          -0.6943    3.0287   21.8116 C.ar    1  UNL1        0.0432
      5 C           0.0746    1.9302   22.4842 C.ar    1  UNL1        0.1256
      6 N           0.8069    0.9136   21.6593 N.ar    1  UNL1       -0.2222
      7 C          -1.4267    4.0452   22.6364 C.ar    1  UNL1        0.0850
      8 C          -0.8021    5.1676   23.4111 C.ar    1  UNL1        0.0991
      9 N          -1.9015    5.9339   24.0848 N.ar    1  UNL1       -0.2265
     10 C          -3.2056    5.2851   23.7266 C.ar    1  UNL1        0.1474
     11 C          -4.6225    5.6064   24.0998 C.ar    1  UNL1        0.0332
     12 C          -5.7458    4.7604   23.5779 C.ar    1  UNL1       -0.0174
     13 C          -7.1627    5.0817   23.9512 C.3     1  UNL1        0.0312
     14 C          -5.4524    3.5931   22.6828 C.ar    1  UNL1        0.0149
     15 C          -4.0356    3.2718   22.3095 C.ar    1  UNL1        0.0811
     16 N          -2.9122    4.1178   22.8314 N.ar    1  UNL1       -0.2888
     17 C           0.6645    5.4705   23.4969 C.ar    1  UNL1        0.0219
     18 C           1.3860    6.0287   22.3061 C.ar    1  UNL1        0.0222
     19 C           2.8525    6.3315   22.3920 C.ar    1  UNL1        0.0985
     20 N           3.5976    6.0763   23.6686 N.ar    1  UNL1       -0.2481
     21 C           2.8762    5.5182   24.8593 C.ar    1  UNL1        0.0594
     22 C           3.6212    5.2629   26.1359 C.3     1  UNL1        0.0521
     23 C           1.4096    5.2153   24.7735 C.ar    1  UNL1        0.0163
     24 C           2.9885    0.0860   19.1605 C.2     1  UNL1        0.2414
     25 O           3.7418    1.2095   19.8087 O.2     1  UNL1       -0.2733
     26 N           1.5028   -0.0210   19.3372 N.am    1  UNL1       -0.2682
     27 H           1.0083   -0.7584   18.9118 H       1  UNL1        0.1563
     28 C           3.7208   -0.9306   18.3357 C.3     1  UNL1        0.1319
     29 C           3.8078   -0.7667   16.8472 C.3     1  UNL1        0.0270
     30 C           3.5365   -3.2988   19.3880 C.3     1  UNL1        0.0862
     31 N           4.3659   -2.1110   18.9993 N.3     1  UNL1       -0.2902
     32 H           5.0857   -2.4505   18.3612 H       1  UNL1        0.1237
     33 C           0.1111    1.8482   23.9815 C.1     1  UNL1       -0.0404
     34 C           0.1475    1.7664   25.4788 C.1     1  UNL1       -0.0583
     35 C           0.1840    1.6845   26.9762 C.ar    1  UNL1        0.0420
     36 C          -0.6894    0.6993   27.6949 C.ar    1  UNL1        0.0082
     37 C          -0.6529    0.6174   29.1922 C.ar    1  UNL1        0.0006
     38 C           0.2571    1.5207   29.9707 C.ar    1  UNL1        0.0000
     39 C           1.1305    2.5058   29.2520 C.ar    1  UNL1        0.0006
     40 C           1.0940    2.5877   27.7547 C.ar    1  UNL1        0.0082
@<TRIPOS>BOND
     1    30    31    1
     2    31    28    1
     3    28    29    1
     4    28    24    1
     5    24    25    2
     6    24    26   am
     7    26     1    1
     8     1     2   ar
     9     2     3   ar
    10     3     4   ar
    11     4     7    1
    12     7     8   ar
    13     8    17    1
    14    17    18   ar
    15    18    19   ar
    16    19    20   ar
    17    20    21   ar
    18    21    22    1
    19    21    23   ar
    20     8     9   ar
    21     9    10   ar
    22    10    11   ar
    23    11    12   ar
    24    12    13    1
    25    12    14   ar
    26    14    15   ar
    27    15    16   ar
    28     4     5   ar
    29     5    33    1
    30    33    34    3
    31    34    35    1
    32    35    36   ar
    33    36    37   ar
    34    37    38   ar
    35    38    39   ar
    36    39    40   ar
    37     5     6   ar
    38     6     1   ar
    39    16     7   ar
    40    40    35   ar
    41    23    17   ar
    42    16    10   ar
    43    31    32    1
    44    26    27    1
@<TRIPOS>MOLECULE
*****
 40 44 0 0 0
SMALL
GASTEIGER

@<TRIPOS>ATOM
      1 C          -1.3554    3.1073   20.7013 C.ar    1  UNL1        0.1348
      2 C          -0.6324    4.4211   20.7336 C.ar    1  UNL1        0.0346
      3 C           0.8670    4.4531   20.7021 C.ar    1  UNL1        0.0065
      4 C           1.6433    3.1713   20.6384 C.ar    1  UNL1        0.0432
      5 C           0.9203    1.8573   20.6061 C.ar    1  UNL1        0.1256
      6 N          -0.5791    1.8254   20.6376 N.ar    1  UNL1       -0.2222
      7 C           3.1427    3.2032   20.6069 C.ar    1  UNL1        0.0850
      8 C           4.0566    2.8143   21.7309 C.ar    1  UNL1        0.0991
      9 N           5.4700    3.0004   21.2646 N.ar    1  UNL1       -0.2265
     10 C           5.4297    3.5042   19.8523 C.ar    1  UNL1        0.1474
     11 C           6.5168    3.8651   18.8840 C.ar    1  UNL1        0.0332
     12 C           6.1656    4.3514   17.5091 C.ar    1  UNL1       -0.0174
     13 C           7.2529    4.7122   16.5407 C.3     1  UNL1        0.0312
     14 C           4.7272    4.4767   17.1026 C.ar    1  UNL1        0.0149
     15 C           3.6400    4.1158   18.0710 C.ar    1  UNL1        0.0811
     16 N           3.9913    3.6296   19.4458 N.ar    1  UNL1       -0.2888
     17 C           3.6316    2.3252   23.0838 C.ar    1  UNL1        0.0219
     18 C           2.9548    3.2609   24.0411 C.ar    1  UNL1        0.0222
     19 C           2.5299    2.7718   25.3938 C.ar    1  UNL1        0.0985
     20 N           2.7817    1.3470   25.7894 N.ar    1  UNL1       -0.2481
     21 C           3.4585    0.4113   24.8322 C.ar    1  UNL1        0.0594
     22 C           3.7104   -1.0135   25.2277 C.3     1  UNL1        0.0521
     23 C           3.8835    0.9004   23.4793 C.ar    1  UNL1        0.0163
     24 C          -3.5894    3.5426   21.9543 C.2     1  UNL1        0.2414
     25 O          -2.8247    4.0417   23.1443 O.2     1  UNL1       -0.2733
     26 N          -2.8547    3.0754   20.7328 N.am    1  UNL1       -0.2682
     27 H          -3.3566    2.7478   19.9518 H       1  UNL1        0.1563
     28 C          -5.0887    3.5106   21.9857 C.3     1  UNL1        0.1319
     29 C          -5.8689    3.6658   20.7140 C.3     1  UNL1        0.0270
     30 C          -6.7344    4.3894   23.7938 C.3     1  UNL1        0.0862
     31 N          -5.8078    3.3234   23.2887 N.3     1  UNL1       -0.2902
     32 H          -6.3603    2.4706   23.2003 H       1  UNL1        0.1237
     33 C           1.6966    0.5754   20.5424 C.1     1  UNL1       -0.0404
     34 C           2.4730   -0.7065   20.4787 C.1     1  UNL1       -0.0583
     35 C           3.2493   -1.9884   20.4149 C.ar    1  UNL1        0.0420
     36 C           3.9947   -2.4745   21.6224 C.ar    1  UNL1        0.0082
     37 C           4.7710   -3.7564   21.5586 C.ar    1  UNL1        0.0006
     38 C           4.8018   -4.5521   20.2874 C.ar    1  UNL1        0.0000
     39 C           4.0563   -4.0660   19.0800 C.ar    1  UNL1        0.0006
     40 C           3.2800   -2.7841   19.1437 C.ar    1  UNL1        0.0082
@<TRIPOS>BOND
     1    30    31    1
     2    31    28    1
     3    28    29    1
     4    28    24    1
     5    24    25    2
     6    24    26   am
     7    26     1    1
     8     1     2   ar
     9     2     3   ar
    10     3     4   ar
    11     4     7    1
    12     7     8   ar
    13     8    17    1
    14    17    18   ar
    15    18    19   ar
    16    19    20   ar
    17    20    21   ar
    18    21    22    1
    19    21    23   ar
    20     8     9   ar
    21     9    10   ar
    22    10    11   ar
    23    11    12   ar
    24    12    13    1
    25    12    14   ar
    26    14    15   ar
    27    15    16   ar
    28     4     5   ar
    29     5    33    1
    30    33    34    3
    31    34    35    1
    32    35    36   ar
    33    36    37   ar
    34    37    38   ar
    35    38    39   ar
    36    39    40   ar
    37     5     6   ar
    38     6     1   ar
    39    16     7   ar
    40    40    35   ar
    41    23    17   ar
    42    16    10   ar
    43    31    32    1
    44    26    27    1
@<TRIPOS>MOLECULE
*****
 40 44 0 0 0
SMALL
GASTEIGER

@<TRIPOS>ATOM
      1 C          -1.2254    2.6626   21.1634 C.ar    1  UNL1        0.1348
      2 C          -0.6831    3.5262   22.2635 C.ar    1  UNL1        0.0346
      3 C           0.6853    3.2627   22.8184 C.ar    1  UNL1        0.0065
      4 C           1.5115    2.1357   22.2733 C.ar    1  UNL1        0.0432
      5 C           0.9692    1.2721   21.1731 C.ar    1  UNL1        0.1256
      6 N          -0.3992    1.5356   20.6182 N.ar    1  UNL1       -0.2222
      7 C           2.8799    1.8722   22.8282 C.ar    1  UNL1        0.0850
      8 C           4.1792    2.0915   22.1115 C.ar    1  UNL1        0.0991
      9 N           5.2916    1.6980   23.0376 N.ar    1  UNL1       -0.2265
     10 C           4.6798    1.2355   24.3267 C.ar    1  UNL1        0.1474
     11 C           5.2874    0.7302   25.6016 C.ar    1  UNL1        0.0332
     12 C           4.4044    0.3325   26.7472 C.ar    1  UNL1       -0.0174
     13 C           5.0121   -0.1728   28.0222 C.3     1  UNL1        0.0312
     14 C           2.9139    0.4401   26.6178 C.ar    1  UNL1        0.0149
     15 C           2.3063    0.9455   25.3429 C.ar    1  UNL1        0.0811
     16 N           3.1893    1.3431   24.1973 N.ar    1  UNL1       -0.2888
     17 C           4.3382    2.6129   20.7140 C.ar    1  UNL1        0.0219
     18 C           3.7738    3.9527   20.3446 C.ar    1  UNL1        0.0222
     19 C           3.9328    4.4739   18.9472 C.ar    1  UNL1        0.0985
     20 N           4.6561    3.6554   17.9191 N.ar    1  UNL1       -0.2481
     21 C           5.2204    2.3157   18.2885 C.ar    1  UNL1        0.0594
     22 C           5.9437    1.4972   17.2605 C.3     1  UNL1        0.0521
     23 C           5.0615    1.7944   19.6860 C.ar    1  UNL1        0.0163
     24 C          -2.7493    3.6914   19.3277 C.2     1  UNL1        0.2414
     25 O          -1.5362    4.1932   18.6020 O.2     1  UNL1       -0.2733
     26 N          -2.5939    2.9261   20.6084 N.am    1  UNL1       -0.2682
     27 H          -3.3900    2.5968   21.0848 H       1  UNL1        0.1563
     28 C          -4.1178    3.9549   18.7729 C.3     1  UNL1        0.1319
     29 C          -4.2714    4.6780   17.4677 C.3     1  UNL1        0.0270
     30 C          -6.6032    3.1985   18.7833 C.3     1  UNL1        0.0862
     31 N          -5.3325    3.4952   19.5231 N.3     1  UNL1       -0.2902
     32 H          -5.0701    2.6396   20.0125 H       1  UNL1        0.1237
     33 C           1.7954    0.1451   20.6280 C.1     1  UNL1       -0.0404
     34 C           2.6216   -0.9820   20.0827 C.1     1  UNL1       -0.0583
     35 C           3.4477   -2.1091   19.5376 C.ar    1  UNL1        0.0420
     36 C           4.6687   -1.8154   18.7173 C.ar    1  UNL1        0.0082
     37 C           5.4949   -2.9424   18.1722 C.ar    1  UNL1        0.0006
     38 C           5.1000   -4.3631   18.4473 C.ar    1  UNL1        0.0000
     39 C           3.8790   -4.6568   19.2676 C.ar    1  UNL1        0.0006
     40 C           3.0528   -3.5298   19.8127 C.ar    1  UNL1        0.0082
@<TRIPOS>BOND
     1    30    31    1
     2    31    28    1
     3    28    29    1
     4    28    24    1
     5    24    25    2
     6    24    26   am
     7    26     1    1
     8     1     2   ar
     9     2     3   ar
    10     3     4   ar
    11     4     7    1
    12     7     8   ar
    13     8    17    1
    14    17    18   ar
    15    18    19   ar
    16    19    20   ar
    17    20    21   ar
    18    21    22    1
    19    21    23   ar
    20     8     9   ar
    21     9    10   ar
    22    10    11   ar
    23    11    12   ar
    24    12    13    1
    25    12    14   ar
    26    14    15   ar
    27    15    16   ar
    28     4     5   ar
    29     5    33    1
    30    33    34    3
    31    34    35    1
    32    35    36   ar
    33    36    37   ar
    34    37    38   ar
    35    38    39   ar
    36    39    40   ar
    37     5     6   ar
    38     6     1   ar
    39    16     7   ar
    40    40    35   ar
    41    23    17   ar
    42    16    10   ar
    43    31    32    1
    44    26    27    1
@<TRIPOS>MOLECULE
*****
 40 44 0 0 0
SMALL
GASTEIGER

@<TRIPOS>ATOM
      1 C          -2.0027    3.2310   20.7614 C.ar    1  UNL1        0.1348
      2 C          -1.9413    4.1200   21.9681 C.ar    1  UNL1        0.0346
      3 C          -0.8919    3.8916   23.0153 C.ar    1  UNL1        0.0065
      4 C           0.0960    2.7743   22.8559 C.ar    1  UNL1        0.0432
      5 C           0.0346    1.8853   21.6492 C.ar    1  UNL1        0.1256
      6 N          -1.0148    2.1137   20.6020 N.ar    1  UNL1       -0.2222
      7 C           1.1455    2.5459   23.9031 C.ar    1  UNL1        0.0850
      8 C           2.6040    2.8718   23.7753 C.ar    1  UNL1        0.0991
      9 N           3.2806    2.4788   25.0551 N.ar    1  UNL1       -0.2265
     10 C           2.2401    1.9101   25.9738 C.ar    1  UNL1        0.1474
     11 C           2.3237    1.3598   27.3667 C.ar    1  UNL1        0.0332
     12 C           1.0878    0.8509   28.0476 C.ar    1  UNL1       -0.0174
     13 C           1.1715    0.3006   29.4405 C.3     1  UNL1        0.0312
     14 C          -0.2318    0.8924   27.3356 C.ar    1  UNL1        0.0149
     15 C          -0.3154    1.4427   25.9427 C.ar    1  UNL1        0.0811
     16 N           0.9205    1.9515   25.2618 N.ar    1  UNL1       -0.2888
     17 C           3.2693    3.4833   22.5780 C.ar    1  UNL1        0.0219
     18 C           4.2992    2.7056   21.8135 C.ar    1  UNL1        0.0222
     19 C           4.9644    3.3171   20.6162 C.ar    1  UNL1        0.0985
     20 N           4.5997    4.7063   20.1835 N.ar    1  UNL1       -0.2481
     21 C           3.5698    5.4839   20.9480 C.ar    1  UNL1        0.0594
     22 C           3.2051    6.8730   20.5153 C.3     1  UNL1        0.0521
     23 C           2.9046    4.8724   22.1453 C.ar    1  UNL1        0.0163
     24 C          -2.6740    4.0566   18.3912 C.2     1  UNL1        0.2414
     25 O          -1.2465    4.4254   18.1154 O.2     1  UNL1       -0.2733
     26 N          -3.0522    3.4595   19.7143 N.am    1  UNL1       -0.2682
     27 H          -3.9891    3.2174   19.8953 H       1  UNL1        0.1563
     28 C          -3.7235    4.2850   17.3441 C.3     1  UNL1        0.1319
     29 C          -3.7547    3.4271   16.1140 C.3     1  UNL1        0.0270
     30 C          -6.1894    5.0202   17.7026 C.3     1  UNL1        0.0862
     31 N          -4.7416    5.3712   17.5270 N.3     1  UNL1       -0.2902
     32 H          -4.4640    5.8986   18.3548 H       1  UNL1        0.1237
     33 C           1.0226    0.7679   21.4897 C.1     1  UNL1       -0.0404
     34 C           2.0105   -0.3495   21.3303 C.1     1  UNL1       -0.0583
     35 C           2.9985   -1.4669   21.1709 C.ar    1  UNL1        0.0420
     36 C           3.1791   -2.1233   19.8343 C.ar    1  UNL1        0.0082
     37 C           4.1670   -3.2406   19.6748 C.ar    1  UNL1        0.0006
     38 C           4.9744   -3.7015   20.8521 C.ar    1  UNL1        0.0000
     39 C           4.7938   -3.0451   22.1887 C.ar    1  UNL1        0.0006
     40 C           3.8059   -1.9278   22.3481 C.ar    1  UNL1        0.0082
@<TRIPOS>BOND
     1    30    31    1
     2    31    28    1
     3    28    29    1
     4    28    24    1
     5    24    25    2
     6    24    26   am
     7    26     1    1
     8     1     2   ar
     9     2     3   ar
    10     3     4   ar
    11     4     7    1
    12     7     8   ar
    13     8    17    1
    14    17    18   ar
    15    18    19   ar
    16    19    20   ar
    17    20    21   ar
    18    21    22    1
    19    21    23   ar
    20     8     9   ar
    21     9    10   ar
    22    10    11   ar
    23    11    12   ar
    24    12    13    1
    25    12    14   ar
    26    14    15   ar
    27    15    16   ar
    28     4     5   ar
    29     5    33    1
    30    33    34    3
    31    34    35    1
    32    35    36   ar
    33    36    37   ar
    34    37    38   ar
    35    38    39   ar
    36    39    40   ar
    37     5     6   ar
    38     6     1   ar
    39    16     7   ar
    40    40    35   ar
    41    23    17   ar
    42    16    10   ar
    43    31    32    1
    44    26    27    1
