@<TRIPOS>MOLECULE
*****
 28 30 0 0 0
SMALL
GASTEIGER

@<TRIPOS>ATOM
      1 C         -10.7163  -18.5601   20.3504 C.ar    1  UNL1        0.1385
      2 C         -10.3129  -19.5011   19.2542 C.ar    1  UNL1        0.0366
      3 C          -8.8827  -19.9351   19.1267 C.ar    1  UNL1       -0.0014
      4 C          -7.8559  -19.4280   20.0955 C.ar    1  UNL1       -0.0227
      5 C          -8.2593  -18.4870   21.1917 C.ar    1  UNL1       -0.0052
      6 C          -9.6895  -18.0530   21.3191 C.ar    1  UNL1        0.0339
      7 C          -7.2325  -17.9799   22.1605 C.3     1  UNL1        0.0976
      8 N          -5.8023  -18.4139   22.0330 N.am    1  UNL1       -0.2760
      9 C          -4.7755  -17.9069   23.0018 C.2     1  UNL1        0.2420
     10 O          -5.1788  -16.9658   24.0981 O.2     1  UNL1       -0.2734
     11 C          -5.3989  -19.3550   20.9367 C.3     1  UNL1        0.0983
     12 C          -6.4257  -19.8620   19.9680 C.3     1  UNL1        0.0476
     13 C          -7.6358  -17.0389   23.2567 C.3     1  UNL1        0.0224
     14 C          -7.3574  -15.5709   23.1252 C.3     1  UNL1        0.0020
     15 C          -7.7608  -14.6299   24.2215 C.3     1  UNL1        0.0001
     16 C          -8.4426  -15.1569   25.4493 C.3     1  UNL1        0.0000
     17 C          -8.7210  -16.6250   25.5807 C.3     1  UNL1        0.0001
     18 C          -8.3177  -17.5660   24.4845 C.3     1  UNL1        0.0020
     19 C         -12.6076  -17.4176   21.7169 C.3     1  UNL1        0.2525
     20 O         -12.1465  -18.1261   20.4778 O.3     1  UNL1       -0.4714
     21 C          -3.3453  -18.3409   22.8743 C.3     1  UNL1        0.1552
     22 N          -2.2681  -17.3197   22.6578 N.3     1  UNL1       -0.2878
     23 H          -1.3978  -17.7345   22.9907 H       1  UNL1        0.1238
     24 C          -1.9980  -16.7954   21.2786 C.3     1  UNL1        0.0985
     25 C          -1.2461  -17.6367   20.2903 C.3     1  UNL1        0.1263
     26 C          -1.9147  -18.0844   19.0244 C.3     1  UNL1        0.0332
     27 O           0.1744  -18.0303   20.5680 O.3     1  UNL1       -0.3830
     28 H           0.4513  -17.6614   21.4213 H       1  UNL1        0.2104
@<TRIPOS>BOND
     1    19    20    1
     2    20     1    1
     3     1     2   ar
     4     2     3   ar
     5     3     4   ar
     6     4     5   ar
     7     5     6   ar
     8     5     7    1
     9     7    13    1
    10    13    14    1
    11    14    15    1
    12    15    16    1
    13    16    17    1
    14    17    18    1
    15     7     8    1
    16     8     9   am
    17     9    10    2
    18     9    21    1
    19    21    22    1
    20    22    24    1
    21    24    25    1
    22    25    26    1
    23    25    27    1
    24     8    11    1
    25    11    12    1
    26     6     1   ar
    27    18    13    1
    28    12     4    1
    29    22    23    1
    30    27    28    1
@<TRIPOS>MOLECULE
*****
 28 30 0 0 0
SMALL
GASTEIGER

@<TRIPOS>ATOM
      1 C          -4.7285  -19.5226   21.7516 C.ar    1  UNL1        0.1385
      2 C          -4.8963  -20.4263   20.5663 C.ar    1  UNL1        0.0366
      3 C          -6.2158  -20.4946   19.8562 C.ar    1  UNL1       -0.0014
      4 C          -7.3674  -19.6592   20.3313 C.ar    1  UNL1       -0.0227
      5 C          -7.1995  -18.7554   21.5166 C.ar    1  UNL1       -0.0052
      6 C          -5.8800  -18.6871   22.2267 C.ar    1  UNL1        0.0339
      7 C          -8.3511  -17.9198   21.9917 C.3     1  UNL1        0.0976
      8 N          -9.6706  -17.9881   21.2815 N.am    1  UNL1       -0.2760
      9 C         -10.8222  -17.1527   21.7567 C.2     1  UNL1        0.2420
     10 O         -10.6543  -16.2488   22.9420 O.2     1  UNL1       -0.2734
     11 C          -9.8384  -18.8920   20.0962 C.3     1  UNL1        0.0983
     12 C          -8.6868  -19.7275   19.6211 C.3     1  UNL1        0.0476
     13 C          -8.1833  -17.0161   23.1770 C.3     1  UNL1        0.0224
     14 C          -8.6709  -17.4513   24.5271 C.3     1  UNL1        0.0020
     15 C          -8.5030  -16.5475   25.7124 C.3     1  UNL1        0.0001
     16 C          -7.8475  -15.2084   25.5476 C.3     1  UNL1        0.0000
     17 C          -7.3598  -14.7732   24.1975 C.3     1  UNL1        0.0001
     18 C          -7.5277  -15.6769   23.0123 C.3     1  UNL1        0.0020
     19 C          -2.2954  -18.6231   21.8970 C.3     1  UNL1        0.2525
     20 O          -3.4090  -19.4543   22.4618 O.3     1  UNL1       -0.4714
     21 C         -12.1416  -17.2210   21.0465 C.3     1  UNL1        0.1552
     22 N         -13.3323  -17.8227   21.7324 N.3     1  UNL1       -0.2878
     23 H         -13.1541  -18.8242   21.8071 H       1  UNL1        0.1238
     24 C         -13.7282  -17.3501   23.0998 C.3     1  UNL1        0.0985
     25 C         -13.5649  -18.2572   24.2832 C.3     1  UNL1        0.1263
     26 C         -12.2205  -18.8421   24.6001 C.3     1  UNL1        0.0332
     27 O         -14.7461  -18.5794   25.1498 O.3     1  UNL1       -0.3830
     28 H         -15.5314  -18.1236   24.8085 H       1  UNL1        0.2104
@<TRIPOS>BOND
     1    19    20    1
     2    20     1    1
     3     1     2   ar
     4     2     3   ar
     5     3     4   ar
     6     4     5   ar
     7     5     6   ar
     8     5     7    1
     9     7    13    1
    10    13    14    1
    11    14    15    1
    12    15    16    1
    13    16    17    1
    14    17    18    1
    15     7     8    1
    16     8     9   am
    17     9    10    2
    18     9    21    1
    19    21    22    1
    20    22    24    1
    21    24    25    1
    22    25    26    1
    23    25    27    1
    24     8    11    1
    25    11    12    1
    26     6     1   ar
    27    18    13    1
    28    12     4    1
    29    22    23    1
    30    27    28    1
@<TRIPOS>MOLECULE
*****
 28 30 0 0 0
SMALL
GASTEIGER

@<TRIPOS>ATOM
      1 C          -7.6100  -15.5011   25.6289 C.ar    1  UNL1        0.1385
      2 C          -6.2248  -15.0556   25.9933 C.ar    1  UNL1        0.0366
      3 C          -5.0409  -15.6093   25.2571 C.ar    1  UNL1       -0.0014
      4 C          -5.2422  -16.6084   24.1566 C.ar    1  UNL1       -0.0227
      5 C          -6.6274  -17.0538   23.7922 C.ar    1  UNL1       -0.0052
      6 C          -7.8113  -16.5002   24.5284 C.ar    1  UNL1        0.0339
      7 C          -6.8288  -18.0530   22.6917 C.3     1  UNL1        0.0976
      8 N          -5.6449  -18.6066   21.9555 N.am    1  UNL1       -0.2760
      9 C          -5.8462  -19.6057   20.8550 C.2     1  UNL1        0.2420
     10 O          -7.2314  -20.0513   20.4905 O.2     1  UNL1       -0.2734
     11 C          -4.2596  -18.1611   22.3199 C.3     1  UNL1        0.0983
     12 C          -4.0583  -17.1620   23.4205 C.3     1  UNL1        0.0476
     13 C          -8.2139  -18.4984   22.3273 C.3     1  UNL1        0.0224
     14 C          -8.9818  -17.7679   21.2658 C.3     1  UNL1        0.0020
     15 C         -10.3670  -18.2135   20.9014 C.3     1  UNL1        0.0001
     16 C         -10.9843  -19.3894   21.5985 C.3     1  UNL1        0.0000
     17 C         -10.2165  -20.1199   22.6600 C.3     1  UNL1        0.0001
     18 C          -8.8313  -19.6745   23.0244 C.3     1  UNL1        0.0020
     19 C          -8.7229  -14.7361   27.8484 C.3     1  UNL1        0.2525
     20 O          -8.7938  -14.9474   26.3651 O.3     1  UNL1       -0.4714
     21 C          -4.6623  -20.1594   20.1188 C.3     1  UNL1        0.1552
     22 N          -3.7944  -19.2489   19.3015 N.3     1  UNL1       -0.2878
     23 H          -4.1293  -18.2992   19.4635 H       1  UNL1        0.1238
     24 C          -2.3110  -19.2286   19.5228 C.3     1  UNL1        0.0985
     25 C          -1.5279  -17.9804   19.2427 C.3     1  UNL1        0.1263
     26 C          -1.3093  -16.9719   20.3313 C.3     1  UNL1        0.0332
     27 O          -0.9633  -17.7406   17.8738 O.3     1  UNL1       -0.3830
     28 H          -1.1942  -18.4833   17.2942 H       1  UNL1        0.2104
@<TRIPOS>BOND
     1    19    20    1
     2    20     1    1
     3     1     2   ar
     4     2     3   ar
     5     3     4   ar
     6     4     5   ar
     7     5     6   ar
     8     5     7    1
     9     7    13    1
    10    13    14    1
    11    14    15    1
    12    15    16    1
    13    16    17    1
    14    17    18    1
    15     7     8    1
    16     8     9   am
    17     9    10    2
    18     9    21    1
    19    21    22    1
    20    22    24    1
    21    24    25    1
    22    25    26    1
    23    25    27    1
    24     8    11    1
    25    11    12    1
    26     6     1   ar
    27    18    13    1
    28    12     4    1
    29    22    23    1
    30    27    28    1
@<TRIPOS>MOLECULE
*****
 28 30 0 0 0
SMALL
GASTEIGER

@<TRIPOS>ATOM
      1 C         -12.2068  -17.7426   22.4854 C.ar    1  UNL1        0.1385
      2 C         -12.2936  -18.5089   21.1989 C.ar    1  UNL1        0.0366
      3 C         -11.0421  -18.9923   20.5280 C.ar    1  UNL1       -0.0014
      4 C          -9.7038  -18.7093   21.1436 C.ar    1  UNL1       -0.0227
      5 C          -9.6171  -17.9430   22.4300 C.ar    1  UNL1       -0.0052
      6 C         -10.8685  -17.4596   23.1010 C.ar    1  UNL1        0.0339
      7 C          -8.2788  -17.6600   23.0457 C.3     1  UNL1        0.0976
      8 N          -7.0273  -18.1434   22.3747 N.am    1  UNL1       -0.2760
      9 C          -5.6890  -17.8604   22.9903 C.2     1  UNL1        0.2420
     10 O          -5.6022  -17.0940   24.2769 O.2     1  UNL1       -0.2734
     11 C          -7.1141  -18.9098   21.0882 C.3     1  UNL1        0.0983
     12 C          -8.4524  -19.1927   20.4726 C.3     1  UNL1        0.0476
     13 C          -8.1920  -16.8936   24.3322 C.3     1  UNL1        0.0224
     14 C          -8.5713  -17.5529   25.6250 C.3     1  UNL1        0.0020
     15 C          -8.4845  -16.7865   26.9115 C.3     1  UNL1        0.0001
     16 C          -8.0184  -15.3608   26.9052 C.3     1  UNL1        0.0000
     17 C          -7.6391  -14.7015   25.6124 C.3     1  UNL1        0.0001
     18 C          -7.7259  -15.4678   24.3259 C.3     1  UNL1        0.0020
     19 C         -14.1154  -18.0982   24.2119 C.3     1  UNL1        0.2525
     20 O         -13.4583  -17.2592   23.1564 O.3     1  UNL1       -0.4714
     21 C          -4.4376  -18.3438   22.3194 C.3     1  UNL1        0.1552
     22 N          -3.3498  -17.3714   21.9709 N.3     1  UNL1       -0.2878
     23 H          -2.8392  -17.1795   22.8328 H       1  UNL1        0.1238
     24 C          -2.3280  -17.7294   20.9328 C.3     1  UNL1        0.0985
     25 C          -2.7300  -17.8411   19.4920 C.3     1  UNL1        0.1263
     26 C          -1.6839  -17.8152   18.4173 C.3     1  UNL1        0.0332
     27 O          -4.1781  -17.9785   19.1259 O.3     1  UNL1       -0.3830
     28 H          -4.7170  -17.9779   19.9324 H       1  UNL1        0.2104
@<TRIPOS>BOND
     1    19    20    1
     2    20     1    1
     3     1     2   ar
     4     2     3   ar
     5     3     4   ar
     6     4     5   ar
     7     5     6   ar
     8     5     7    1
     9     7    13    1
    10    13    14    1
    11    14    15    1
    12    15    16    1
    13    16    17    1
    14    17    18    1
    15     7     8    1
    16     8     9   am
    17     9    10    2
    18     9    21    1
    19    21    22    1
    20    22    24    1
    21    24    25    1
    22    25    26    1
    23    25    27    1
    24     8    11    1
    25    11    12    1
    26     6     1   ar
    27    18    13    1
    28    12     4    1
    29    22    23    1
    30    27    28    1
@<TRIPOS>MOLECULE
*****
 28 30 0 0 0
SMALL
GASTEIGER

@<TRIPOS>ATOM
      1 C           1.2680    0.2978   21.2924 C.ar    1  UNL1        0.1385
      2 C           1.0244    1.0606   22.5607 C.ar    1  UNL1        0.0366
      3 C           1.8247    0.7469   23.7900 C.ar    1  UNL1       -0.0014
      4 C           2.8685   -0.3296   23.7510 C.ar    1  UNL1       -0.0227
      5 C           3.1120   -1.0924   22.4827 C.ar    1  UNL1       -0.0052
      6 C           2.3118   -0.7787   21.2533 C.ar    1  UNL1        0.0339
      7 C           4.1558   -2.1690   22.4436 C.3     1  UNL1        0.0976
      8 N           4.9561   -2.4827   23.6729 N.am    1  UNL1       -0.2760
      9 C           5.9998   -3.5593   23.6339 C.2     1  UNL1        0.2420
     10 O           6.2435   -4.3221   22.3655 O.2     1  UNL1       -0.2734
     11 C           4.7125   -1.7199   24.9413 C.3     1  UNL1        0.0983
     12 C           3.6687   -0.6433   24.9803 C.3     1  UNL1        0.0476
     13 C           4.3994   -2.9318   21.1752 C.3     1  UNL1        0.0224
     14 C           3.6751   -4.2212   20.9246 C.3     1  UNL1        0.0020
     15 C           3.9187   -4.9840   19.6561 C.3     1  UNL1        0.0001
     16 C           4.8866   -4.4574   18.6384 C.3     1  UNL1        0.0000
     17 C           5.6109   -3.1680   18.8891 C.3     1  UNL1        0.0001
     18 C           5.3674   -2.4052   20.1574 C.3     1  UNL1        0.0020
     19 C           0.3928    2.0214   19.5565 C.3     1  UNL1        0.2525
     20 O           0.4678    0.6115   20.0630 O.3     1  UNL1       -0.4714
     21 C           6.8001   -3.8730   24.8632 C.3     1  UNL1        0.1552
     22 N           6.3687   -4.9824   25.7760 N.3     1  UNL1       -0.2878
     23 H           5.6994   -5.5490   25.2550 H       1  UNL1        0.1238
     24 C           7.3873   -5.9268   26.3421 C.3     1  UNL1        0.0985
     25 C           7.5018   -7.3202   25.7989 C.3     1  UNL1        0.1263
     26 C           8.3907   -7.5959   24.6225 C.3     1  UNL1        0.0332
     27 O           6.7274   -8.4379   26.4320 O.3     1  UNL1       -0.3830
     28 H           6.2073   -8.0913   27.1738 H       1  UNL1        0.2104
@<TRIPOS>BOND
     1    19    20    1
     2    20     1    1
     3     1     2   ar
     4     2     3   ar
     5     3     4   ar
     6     4     5   ar
     7     5     6   ar
     8     5     7    1
     9     7    13    1
    10    13    14    1
    11    14    15    1
    12    15    16    1
    13    16    17    1
    14    17    18    1
    15     7     8    1
    16     8     9   am
    17     9    10    2
    18     9    21    1
    19    21    22    1
    20    22    24    1
    21    24    25    1
    22    25    26    1
    23    25    27    1
    24     8    11    1
    25    11    12    1
    26     6     1   ar
    27    18    13    1
    28    12     4    1
    29    22    23    1
    30    27    28    1
@<TRIPOS>MOLECULE
*****
 28 30 0 0 0
SMALL
GASTEIGER

@<TRIPOS>ATOM
      1 C           1.9598    0.8077   29.5299 C.ar    1  UNL1        0.1385
      2 C           0.9399    1.8582   29.8557 C.ar    1  UNL1        0.0366
      3 C           0.8676    2.4292   31.2409 C.ar    1  UNL1       -0.0014
      4 C           1.8151    1.9496   32.3003 C.ar    1  UNL1       -0.0227
      5 C           2.8350    0.8991   31.9744 C.ar    1  UNL1       -0.0052
      6 C           2.9073    0.3282   30.5892 C.ar    1  UNL1        0.0339
      7 C           3.7825    0.4195   33.0337 C.3     1  UNL1        0.0976
      8 N           3.7102    0.9904   34.4189 N.am    1  UNL1       -0.2760
      9 C           4.6577    0.5109   35.4782 C.2     1  UNL1        0.2420
     10 O           5.6776   -0.5397   35.1524 O.2     1  UNL1       -0.2734
     11 C           2.6902    2.0410   34.7448 C.3     1  UNL1        0.0983
     12 C           1.7427    2.5205   33.6855 C.3     1  UNL1        0.0476
     13 C           4.8024   -0.6310   32.7078 C.3     1  UNL1        0.0224
     14 C           4.4779   -2.0809   32.9137 C.3     1  UNL1        0.0020
     15 C           5.4979   -3.1314   32.5878 C.3     1  UNL1        0.0001
     16 C           6.8423   -2.7320   32.0560 C.3     1  UNL1        0.0000
     17 C           7.1669   -1.2820   31.8501 C.3     1  UNL1        0.0001
     18 C           6.1470   -0.2316   32.1760 C.3     1  UNL1        0.0020
     19 C           1.4742    1.0080   26.9855 C.3     1  UNL1        0.2525
     20 O           2.0322    0.2368   28.1446 O.3     1  UNL1       -0.4714
     21 C           4.5853    1.0818   36.8635 C.3     1  UNL1        0.1552
     22 N           3.7468    0.4085   37.9093 N.3     1  UNL1       -0.2878
     23 H           4.3824   -0.1420   38.4867 H       1  UNL1        0.1238
     24 C           2.9133    1.2313   38.8464 C.3     1  UNL1        0.0985
     25 C           1.5572    0.7468   39.2661 C.3     1  UNL1        0.1263
     26 C           0.4142    1.7128   39.3689 C.3     1  UNL1        0.0332
     27 O           1.3440   -0.7038   39.5829 O.3     1  UNL1       -0.3830
     28 H           2.1777   -1.1859   39.4673 H       1  UNL1        0.2104
@<TRIPOS>BOND
     1    19    20    1
     2    20     1    1
     3     1     2   ar
     4     2     3   ar
     5     3     4   ar
     6     4     5   ar
     7     5     6   ar
     8     5     7    1
     9     7    13    1
    10    13    14    1
    11    14    15    1
    12    15    16    1
    13    16    17    1
    14    17    18    1
    15     7     8    1
    16     8     9   am
    17     9    10    2
    18     9    21    1
    19    21    22    1
    20    22    24    1
    21    24    25    1
    22    25    26    1
    23    25    27    1
    24     8    11    1
    25    11    12    1
    26     6     1   ar
    27    18    13    1
    28    12     4    1
    29    22    23    1
    30    27    28    1
@<TRIPOS>MOLECULE
*****
 28 30 0 0 0
SMALL
GASTEIGER

@<TRIPOS>ATOM
      1 C         -11.6512   -6.4947   18.5947 C.ar    1  UNL1        0.1385
      2 C         -10.9934   -5.1905   18.9354 C.ar    1  UNL1        0.0366
      3 C         -11.8276   -4.0174   19.3574 C.ar    1  UNL1       -0.0014
      4 C         -13.3196   -4.1487   19.4386 C.ar    1  UNL1       -0.0227
      5 C         -13.9774   -5.4529   19.0978 C.ar    1  UNL1       -0.0052
      6 C         -13.1432   -6.6260   18.6759 C.ar    1  UNL1        0.0339
      7 C         -15.4695   -5.5842   19.1790 C.3     1  UNL1        0.0976
      8 N         -16.3037   -4.4112   19.6010 N.am    1  UNL1       -0.2760
      9 C         -17.7957   -4.5424   19.6822 C.2     1  UNL1        0.2420
     10 O         -18.4536   -5.8467   19.3414 O.2     1  UNL1       -0.2734
     11 C         -15.6458   -3.1069   19.9418 C.3     1  UNL1        0.0983
     12 C         -14.1538   -2.9756   19.8606 C.3     1  UNL1        0.0476
     13 C         -16.1273   -6.8885   18.8383 C.3     1  UNL1        0.0224
     14 C         -16.5651   -7.1623   17.4300 C.3     1  UNL1        0.0020
     15 C         -17.2229   -8.4666   17.0892 C.3     1  UNL1        0.0001
     16 C         -17.4429   -9.4971   18.1568 C.3     1  UNL1        0.0000
     17 C         -17.0050   -9.2233   19.5651 C.3     1  UNL1        0.0001
     18 C         -16.3473   -7.9190   19.9058 C.3     1  UNL1        0.0020
     19 C          -9.3993   -7.7894   18.6474 C.3     1  UNL1        0.2525
     20 O         -10.8169   -7.6678   18.1727 O.3     1  UNL1       -0.4714
     21 C         -18.6299   -3.3694   20.1042 C.3     1  UNL1        0.1552
     22 N         -19.1067   -2.3814   19.0811 N.3     1  UNL1       -0.2878
     23 H         -20.1032   -2.2420   19.2484 H       1  UNL1        0.1238
     24 C         -18.4851   -1.0182   19.0082 C.3     1  UNL1        0.0985
     25 C         -18.2477   -0.2339   20.2646 C.3     1  UNL1        0.1263
     26 C         -16.8917    0.3435   20.5434 C.3     1  UNL1        0.0332
     27 O         -19.3664   -0.0272   21.2422 O.3     1  UNL1       -0.3830
     28 H         -20.1684   -0.4619   20.9125 H       1  UNL1        0.2104
@<TRIPOS>BOND
     1    19    20    1
     2    20     1    1
     3     1     2   ar
     4     2     3   ar
     5     3     4   ar
     6     4     5   ar
     7     5     6   ar
     8     5     7    1
     9     7    13    1
    10    13    14    1
    11    14    15    1
    12    15    16    1
    13    16    17    1
    14    17    18    1
    15     7     8    1
    16     8     9   am
    17     9    10    2
    18     9    21    1
    19    21    22    1
    20    22    24    1
    21    24    25    1
    22    25    26    1
    23    25    27    1
    24     8    11    1
    25    11    12    1
    26     6     1   ar
    27    18    13    1
    28    12     4    1
    29    22    23    1
    30    27    28    1
@<TRIPOS>MOLECULE
*****
 28 30 0 0 0
SMALL
GASTEIGER

@<TRIPOS>ATOM
      1 C         -10.4398   -6.1167   18.9233 C.ar    1  UNL1        0.1385
      2 C          -9.6729   -4.8287   18.9770 C.ar    1  UNL1        0.0366
      3 C         -10.3887   -3.5218   18.8049 C.ar    1  UNL1       -0.0014
      4 C         -11.8715   -3.5029   18.5790 C.ar    1  UNL1       -0.0227
      5 C         -12.6384   -4.7908   18.5253 C.ar    1  UNL1       -0.0052
      6 C         -11.9226   -6.0977   18.6974 C.ar    1  UNL1        0.0339
      7 C         -14.1212   -4.7720   18.2994 C.3     1  UNL1        0.0976
      8 N         -14.8371   -3.4651   18.1273 N.am    1  UNL1       -0.2760
      9 C         -16.3198   -3.4462   17.9014 C.2     1  UNL1        0.2420
     10 O         -17.0868   -4.7342   17.8477 O.2     1  UNL1       -0.2734
     11 C         -14.0701   -2.1771   18.1810 C.3     1  UNL1        0.0983
     12 C         -12.5873   -2.1960   18.4069 C.3     1  UNL1        0.0476
     13 C         -14.8882   -6.0599   18.2457 C.3     1  UNL1        0.0224
     14 C         -15.0719   -6.7694   16.9370 C.3     1  UNL1        0.0020
     15 C         -15.8389   -8.0575   16.8833 C.3     1  UNL1        0.0001
     16 C         -16.4220   -8.6359   18.1384 C.3     1  UNL1        0.0000
     17 C         -16.2383   -7.9265   19.4471 C.3     1  UNL1        0.0001
     18 C         -15.4714   -6.6385   19.5008 C.3     1  UNL1        0.0020
     19 C          -9.7959   -8.4656   18.0189 C.3     1  UNL1        0.2525
     20 O          -9.7240   -7.4236   19.0954 O.3     1  UNL1       -0.4714
     21 C         -17.0356   -2.1393   17.7293 C.3     1  UNL1        0.1552
     22 N         -17.6005   -1.4304   18.9245 N.3     1  UNL1       -0.2878
     23 H         -17.4521   -0.4328   18.7726 H       1  UNL1        0.1238
     24 C         -19.0463   -1.6032   19.2849 C.3     1  UNL1        0.0985
     25 C         -19.4753   -2.7674   20.1278 C.3     1  UNL1        0.1263
     26 C         -20.0940   -3.9723   19.4833 C.3     1  UNL1        0.0332
     27 O         -19.2856   -2.7267   21.6151 O.3     1  UNL1       -0.3830
     28 H         -18.8759   -1.8839   21.8659 H       1  UNL1        0.2104
@<TRIPOS>BOND
     1    19    20    1
     2    20     1    1
     3     1     2   ar
     4     2     3   ar
     5     3     4   ar
     6     4     5   ar
     7     5     6   ar
     8     5     7    1
     9     7    13    1
    10    13    14    1
    11    14    15    1
    12    15    16    1
    13    16    17    1
    14    17    18    1
    15     7     8    1
    16     8     9   am
    17     9    10    2
    18     9    21    1
    19    21    22    1
    20    22    24    1
    21    24    25    1
    22    25    26    1
    23    25    27    1
    24     8    11    1
    25    11    12    1
    26     6     1   ar
    27    18    13    1
    28    12     4    1
    29    22    23    1
    30    27    28    1
@<TRIPOS>MOLECULE
*****
 28 30 0 0 0
SMALL
GASTEIGER

@<TRIPOS>ATOM
      1 C           2.7176    0.4761   25.4662 C.ar    1  UNL1        0.1385
      2 C           3.5079   -0.5194   26.2626 C.ar    1  UNL1        0.0366
      3 C           4.1980   -1.6565   25.5691 C.ar    1  UNL1       -0.0014
      4 C           4.0977   -1.7981   24.0792 C.ar    1  UNL1       -0.0227
      5 C           3.3073   -0.8026   23.2828 C.ar    1  UNL1       -0.0052
      6 C           2.6173    0.3344   23.9763 C.ar    1  UNL1        0.0339
      7 C           3.2069   -0.9442   21.7928 C.3     1  UNL1        0.0976
      8 N           3.8970   -2.0813   21.0994 N.am    1  UNL1       -0.2760
      9 C           3.7967   -2.2229   19.6095 C.2     1  UNL1        0.2420
     10 O           3.0063   -1.2274   18.8130 O.2     1  UNL1       -0.2734
     11 C           4.6874   -3.0768   21.8959 C.3     1  UNL1        0.0983
     12 C           4.7877   -2.9352   23.3858 C.3     1  UNL1        0.0476
     13 C           2.4166    0.0513   20.9964 C.3     1  UNL1        0.0224
     14 C           0.9598   -0.1879   20.7306 C.3     1  UNL1        0.0020
     15 C           0.1694    0.8077   19.9341 C.3     1  UNL1        0.0001
     16 C           0.8358    2.0423   19.4035 C.3     1  UNL1        0.0000
     17 C           2.2926    2.2814   19.6693 C.3     1  UNL1        0.0001
     18 C           3.0830    1.2859   20.4657 C.3     1  UNL1        0.0020
     19 C           1.3974    1.4002   27.5041 C.3     1  UNL1        0.2525
     20 O           2.0275    1.6131   26.1597 O.3     1  UNL1       -0.4714
     21 C           4.4867   -3.3600   18.9160 C.3     1  UNL1        0.1552
     22 N           5.4581   -3.0834   17.8069 N.3     1  UNL1       -0.2878
     23 H           4.9049   -2.8498   16.9824 H       1  UNL1        0.1238
     24 C           6.4840   -2.0001   17.9613 C.3     1  UNL1        0.0985
     25 C           6.2182   -0.6312   17.4086 C.3     1  UNL1        0.1263
     26 C           7.2377    0.4563   17.5762 C.3     1  UNL1        0.0332
     27 O           4.9329   -0.3498   16.6884 O.3     1  UNL1       -0.3830
     28 H           4.3906   -1.1538   16.6687 H       1  UNL1        0.2104
@<TRIPOS>BOND
     1    19    20    1
     2    20     1    1
     3     1     2   ar
     4     2     3   ar
     5     3     4   ar
     6     4     5   ar
     7     5     6   ar
     8     5     7    1
     9     7    13    1
    10    13    14    1
    11    14    15    1
    12    15    16    1
    13    16    17    1
    14    17    18    1
    15     7     8    1
    16     8     9   am
    17     9    10    2
    18     9    21    1
    19    21    22    1
    20    22    24    1
    21    24    25    1
    22    25    26    1
    23    25    27    1
    24     8    11    1
    25    11    12    1
    26     6     1   ar
    27    18    13    1
    28    12     4    1
    29    22    23    1
    30    27    28    1
