@<TRIPOS>MOLECULE
*****
 34 37 0 0 0
SMALL
GASTEIGER

@<TRIPOS>ATOM
      1 C          -5.0367  -14.8123   25.8080 C.3     1  UNL1        0.0203
      2 C          -5.3852  -16.0159   24.9834 C.3     1  UNL1        0.0888
      3 N          -6.7212  -16.1000   24.3065 N.3     1  UNL1       -0.2713
      4 C          -6.9206  -15.4702   22.9598 C.3     1  UNL1        0.0749
      5 C          -8.2565  -15.5543   22.2829 C.3     1  UNL1        0.0485
      6 C          -9.3931  -16.2682   22.9527 C.3     1  UNL1        0.1096
      7 O         -10.0687  -15.8340   21.6858 O.3     1  UNL1       -0.3826
      8 C          -9.1937  -16.8980   24.2995 C.3     1  UNL1        0.0485
      9 C          -7.8577  -16.8139   24.9764 C.3     1  UNL1        0.0749
     10 H          -9.4381  -15.3451   21.1342 H       1  UNL1        0.2107
     11 C         -10.7643  -16.8313   23.1826 C.ar    1  UNL1        0.0019
     12 C         -11.9571  -16.1862   22.5415 C.ar    1  UNL1        0.0003
     13 C         -13.3283  -16.7492   22.7713 C.ar    1  UNL1        0.0294
     14 C         -13.5066  -17.9574   23.6423 C.ar    1  UNL1        0.1401
     15 F         -14.8778  -18.5204   23.8721 F       1  UNL1       -0.2042
     16 C         -12.3138  -18.6024   24.2834 C.ar    1  UNL1        0.0294
     17 C         -10.9426  -18.0394   24.0536 C.ar    1  UNL1        0.0003
     18 C          -4.3978  -17.1353   24.8356 C.3     1  UNL1        0.1472
     19 O          -3.7159  -17.6987   26.0471 O.3     1  UNL1       -0.3787
     20 H          -3.1138  -18.4099   25.7778 H       1  UNL1        0.2108
     21 C          -4.0922  -17.6914   23.4764 C.ar    1  UNL1        0.0057
     22 C          -2.7123  -17.5570   22.9040 C.ar    1  UNL1        0.0012
     23 C          -2.4067  -18.1131   21.5448 C.ar    1  UNL1        0.0364
     24 C          -3.4811  -18.8035   20.7580 C.ar    1  UNL1        0.1336
     25 O          -3.1755  -19.3595   19.3988 O.3     1  UNL1       -0.5055
     26 C          -4.8611  -18.9378   21.3304 C.ar    1  UNL1        0.0335
     27 C          -5.1666  -18.3817   22.6896 C.ar    1  UNL1        0.0011
     28 H          -2.3135  -19.2756   19.0412 H       1  UNL1        0.2922
     29 C          -5.9355  -19.6282   20.5436 C.ar    1  UNL1        0.0029
     30 C          -5.7951  -21.0807   20.1967 C.ar    1  UNL1        0.0001
     31 C          -6.8695  -21.7711   19.4099 C.ar    1  UNL1        0.0000
     32 C          -8.0843  -21.0089   18.9701 C.ar    1  UNL1        0.0000
     33 C          -8.2246  -19.5564   19.3170 C.ar    1  UNL1        0.0000
     34 C          -7.1502  -18.8660   20.1038 C.ar    1  UNL1        0.0001
@<TRIPOS>BOND
     1     1     2    1
     2     2    18    1
     3    18    19    1
     4    18    21    1
     5    21    22   ar
     6    22    23   ar
     7    23    24   ar
     8    24    25    1
     9    24    26   ar
    10    26    29    1
    11    29    30   ar
    12    30    31   ar
    13    31    32   ar
    14    32    33   ar
    15    33    34   ar
    16    26    27   ar
    17     2     3    1
    18     3     4    1
    19     4     5    1
    20     5     6    1
    21     6     7    1
    22     6    11    1
    23    11    12   ar
    24    12    13   ar
    25    13    14   ar
    26    14    15    1
    27    14    16   ar
    28    16    17   ar
    29     6     8    1
    30     8     9    1
    31    27    21   ar
    32     9     3    1
    33    34    29   ar
    34    17    11   ar
    35    19    20    1
    36    25    28    1
    37     7    10    1
@<TRIPOS>MOLECULE
*****
 34 37 0 0 0
SMALL
GASTEIGER

@<TRIPOS>ATOM
      1 C          -6.5851  -15.1370   27.2463 C.3     1  UNL1        0.0203
      2 C          -6.8020  -15.6976   25.8719 C.3     1  UNL1        0.0888
      3 N          -5.6453  -16.2606   25.1004 N.3     1  UNL1       -0.2713
      4 C          -4.5189  -16.9366   25.8244 C.3     1  UNL1        0.0749
      5 C          -3.3622  -17.4996   25.0529 C.3     1  UNL1        0.0485
      6 C          -3.3320  -17.3866   23.5575 C.3     1  UNL1        0.1096
      7 O          -2.0391  -18.1107   23.7901 O.3     1  UNL1       -0.3826
      8 C          -4.4585  -16.7107   22.8335 C.3     1  UNL1        0.0485
      9 C          -5.6152  -16.1476   23.6049 C.3     1  UNL1        0.0749
     10 H          -1.9181  -18.2589   24.7411 H       1  UNL1        0.2107
     11 C          -2.8528  -17.5252   22.1428 C.ar    1  UNL1        0.0019
     12 C          -3.3902  -18.6226   21.2730 C.ar    1  UNL1        0.0003
     13 C          -2.9111  -18.7612   19.8584 C.ar    1  UNL1        0.0294
     14 C          -1.8944  -17.8022   19.3136 C.ar    1  UNL1        0.1401
     15 F          -1.4152  -17.9407   17.8989 F       1  UNL1       -0.2042
     16 C          -1.3569  -16.7047   20.1834 C.ar    1  UNL1        0.0294
     17 C          -1.8361  -16.5662   21.5981 C.ar    1  UNL1        0.0003
     18 C          -8.1755  -15.6951   25.2691 C.3     1  UNL1        0.1472
     19 O          -8.9253  -14.4050   25.1167 O.3     1  UNL1       -0.3787
     20 H          -9.7900  -14.5793   24.7131 H       1  UNL1        0.2108
     21 C          -8.7992  -16.9829   24.8186 C.ar    1  UNL1        0.0057
     22 C          -9.5443  -17.8388   25.7995 C.ar    1  UNL1        0.0012
     23 C         -10.1679  -19.1264   25.3490 C.ar    1  UNL1        0.0364
     24 C         -10.0465  -19.5581   23.9177 C.ar    1  UNL1        0.1336
     25 O         -10.6702  -20.8459   23.4672 O.3     1  UNL1       -0.5055
     26 C          -9.3014  -18.7022   22.9368 C.ar    1  UNL1        0.0335
     27 C          -8.6777  -17.4146   23.3872 C.ar    1  UNL1        0.0011
     28 H         -11.1356  -21.3805   24.0800 H       1  UNL1        0.2922
     29 C          -9.1800  -19.1340   21.5054 C.ar    1  UNL1        0.0029
     30 C         -10.4105  -19.2883   20.6616 C.ar    1  UNL1        0.0001
     31 C         -10.2890  -19.7200   19.2302 C.ar    1  UNL1        0.0000
     32 C          -8.9371  -19.9974   18.6426 C.ar    1  UNL1        0.0000
     33 C          -7.7066  -19.8431   19.4864 C.ar    1  UNL1        0.0000
     34 C          -7.8281  -19.4114   20.9178 C.ar    1  UNL1        0.0001
@<TRIPOS>BOND
     1     1     2    1
     2     2    18    1
     3    18    19    1
     4    18    21    1
     5    21    22   ar
     6    22    23   ar
     7    23    24   ar
     8    24    25    1
     9    24    26   ar
    10    26    29    1
    11    29    30   ar
    12    30    31   ar
    13    31    32   ar
    14    32    33   ar
    15    33    34   ar
    16    26    27   ar
    17     2     3    1
    18     3     4    1
    19     4     5    1
    20     5     6    1
    21     6     7    1
    22     6    11    1
    23    11    12   ar
    24    12    13   ar
    25    13    14   ar
    26    14    15    1
    27    14    16   ar
    28    16    17   ar
    29     6     8    1
    30     8     9    1
    31    27    21   ar
    32     9     3    1
    33    34    29   ar
    34    17    11   ar
    35    19    20    1
    36    25    28    1
    37     7    10    1
@<TRIPOS>MOLECULE
*****
 34 37 0 0 0
SMALL
GASTEIGER

@<TRIPOS>ATOM
      1 C         -13.3489  -17.8373   21.6534 C.3     1  UNL1        0.0203
      2 C         -11.8655  -17.7362   21.4548 C.3     1  UNL1        0.0888
      3 N         -10.9603  -17.5640   22.6385 N.3     1  UNL1       -0.2713
      4 C         -11.1775  -18.3856   23.8745 C.3     1  UNL1        0.0749
      5 C         -10.2724  -18.2134   25.0582 C.3     1  UNL1        0.0485
      6 C          -9.1501  -17.2197   25.0059 C.3     1  UNL1        0.1096
      7 O          -8.9538  -17.7615   26.3908 O.3     1  UNL1       -0.3826
      8 C          -8.9328  -16.3980   23.7698 C.3     1  UNL1        0.0485
      9 C          -9.8380  -16.5702   22.5861 C.3     1  UNL1        0.0749
     10 H          -9.6274  -18.4353   26.5729 H       1  UNL1        0.2107
     11 C          -7.9595  -16.4140   25.4345 C.ar    1  UNL1        0.0019
     12 C          -7.8328  -15.9630   26.8594 C.ar    1  UNL1        0.0003
     13 C          -6.6423  -15.1574   27.2881 C.ar    1  UNL1        0.0294
     14 C          -5.5785  -14.8029   26.2917 C.ar    1  UNL1        0.1401
     15 F          -4.3881  -13.9973   26.7204 F       1  UNL1       -0.2042
     16 C          -5.7053  -15.2539   24.8668 C.ar    1  UNL1        0.0294
     17 C          -6.8958  -16.0595   24.4381 C.ar    1  UNL1        0.0003
     18 C         -11.2873  -17.8073   20.0726 C.3     1  UNL1        0.1472
     19 O         -11.8402  -16.9376   18.9827 O.3     1  UNL1       -0.3787
     20 H         -11.3577  -17.1063   18.1583 H       1  UNL1        0.2108
     21 C         -10.1561  -18.7481   19.7803 C.ar    1  UNL1        0.0057
     22 C         -10.3808  -19.9397   18.8974 C.ar    1  UNL1        0.0012
     23 C          -9.2497  -20.8805   18.6051 C.ar    1  UNL1        0.0364
     24 C          -7.8938  -20.6296   19.1956 C.ar    1  UNL1        0.1336
     25 O          -6.7626  -21.5704   18.9033 O.3     1  UNL1       -0.5055
     26 C          -7.6691  -19.4379   20.0785 C.ar    1  UNL1        0.0335
     27 C          -8.8003  -18.4972   20.3708 C.ar    1  UNL1        0.0011
     28 H          -6.9030  -22.3148   18.3518 H       1  UNL1        0.2922
     29 C          -6.3133  -19.1870   20.6690 C.ar    1  UNL1        0.0029
     30 C          -5.0986  -19.1956   19.7890 C.ar    1  UNL1        0.0001
     31 C          -3.7428  -18.9447   20.3795 C.ar    1  UNL1        0.0000
     32 C          -3.6016  -18.6852   21.8501 C.ar    1  UNL1        0.0000
     33 C          -4.8162  -18.6767   22.7302 C.ar    1  UNL1        0.0000
     34 C          -6.1721  -18.9276   22.1396 C.ar    1  UNL1        0.0001
@<TRIPOS>BOND
     1     1     2    1
     2     2    18    1
     3    18    19    1
     4    18    21    1
     5    21    22   ar
     6    22    23   ar
     7    23    24   ar
     8    24    25    1
     9    24    26   ar
    10    26    29    1
    11    29    30   ar
    12    30    31   ar
    13    31    32   ar
    14    32    33   ar
    15    33    34   ar
    16    26    27   ar
    17     2     3    1
    18     3     4    1
    19     4     5    1
    20     5     6    1
    21     6     7    1
    22     6    11    1
    23    11    12   ar
    24    12    13   ar
    25    13    14   ar
    26    14    15    1
    27    14    16   ar
    28    16    17   ar
    29     6     8    1
    30     8     9    1
    31    27    21   ar
    32     9     3    1
    33    34    29   ar
    34    17    11   ar
    35    19    20    1
    36    25    28    1
    37     7    10    1
@<TRIPOS>MOLECULE
*****
 34 37 0 0 0
SMALL
GASTEIGER

@<TRIPOS>ATOM
      1 C           7.0291   -6.2272   26.3440 C.3     1  UNL1        0.0203
      2 C           7.1419   -4.8389   26.9007 C.3     1  UNL1        0.0888
      3 N           6.9564   -4.6027   28.3703 N.3     1  UNL1       -0.2713
      4 C           7.0166   -5.7552   29.3285 C.3     1  UNL1        0.0749
      5 C           6.8311   -5.5190   30.7982 C.3     1  UNL1        0.0485
      6 C           6.5854   -4.1305   31.3096 C.3     1  UNL1        0.1096
      7 O           6.5568   -4.8927   32.6012 O.3     1  UNL1       -0.3826
      8 C           6.5252   -2.9780   30.3513 C.3     1  UNL1        0.0485
      9 C           6.7107   -3.2141   28.8817 C.3     1  UNL1        0.0749
     10 H           6.7058   -5.8347   32.4242 H       1  UNL1        0.2107
     11 C           6.3297   -3.0066   32.2696 C.ar    1  UNL1        0.0019
     12 C           7.4273   -2.0397   32.6017 C.ar    1  UNL1        0.0003
     13 C           7.1717   -0.9158   33.5617 C.ar    1  UNL1        0.0294
     14 C           5.8184   -0.7589   34.1895 C.ar    1  UNL1        0.1401
     15 F           5.5628    0.3650   35.1495 F       1  UNL1       -0.2042
     16 C           4.7209   -1.7258   33.8574 C.ar    1  UNL1        0.0294
     17 C           4.9765   -2.8497   32.8974 C.ar    1  UNL1        0.0003
     18 C           7.4402   -3.6867   25.9877 C.3     1  UNL1        0.1472
     19 O           8.8259   -3.1155   25.9291 O.3     1  UNL1       -0.3787
     20 H           8.8469   -2.3823   25.2944 H       1  UNL1        0.2108
     21 C           6.3528   -3.1057   25.1333 C.ar    1  UNL1        0.0057
     22 C           5.4351   -2.0607   25.6951 C.ar    1  UNL1        0.0012
     23 C           4.3477   -1.4798   24.8407 C.ar    1  UNL1        0.0364
     24 C           4.1780   -1.9439   23.4244 C.ar    1  UNL1        0.1336
     25 O           3.0905   -1.3629   22.5700 O.3     1  UNL1       -0.5055
     26 C           5.0957   -2.9889   22.8626 C.ar    1  UNL1        0.0335
     27 C           6.1831   -3.5699   23.7170 C.ar    1  UNL1        0.0011
     28 H           2.5173   -0.7101   22.9209 H       1  UNL1        0.2922
     29 C           4.9260   -3.4531   21.4463 C.ar    1  UNL1        0.0029
     30 C           5.7640   -2.8549   20.3555 C.ar    1  UNL1        0.0001
     31 C           5.5943   -3.3190   18.9393 C.ar    1  UNL1        0.0000
     32 C           4.5866   -4.3813   18.6138 C.ar    1  UNL1        0.0000
     33 C           3.7486   -4.9795   19.7046 C.ar    1  UNL1        0.0000
     34 C           3.9182   -4.5153   21.1208 C.ar    1  UNL1        0.0001
@<TRIPOS>BOND
     1     1     2    1
     2     2    18    1
     3    18    19    1
     4    18    21    1
     5    21    22   ar
     6    22    23   ar
     7    23    24   ar
     8    24    25    1
     9    24    26   ar
    10    26    29    1
    11    29    30   ar
    12    30    31   ar
    13    31    32   ar
    14    32    33   ar
    15    33    34   ar
    16    26    27   ar
    17     2     3    1
    18     3     4    1
    19     4     5    1
    20     5     6    1
    21     6     7    1
    22     6    11    1
    23    11    12   ar
    24    12    13   ar
    25    13    14   ar
    26    14    15    1
    27    14    16   ar
    28    16    17   ar
    29     6     8    1
    30     8     9    1
    31    27    21   ar
    32     9     3    1
    33    34    29   ar
    34    17    11   ar
    35    19    20    1
    36    25    28    1
    37     7    10    1
@<TRIPOS>MOLECULE
*****
 34 37 0 0 0
SMALL
GASTEIGER

@<TRIPOS>ATOM
      1 C         -15.1155   -1.8781   20.5317 C.3     1  UNL1        0.0203
      2 C         -14.8470   -2.3211   19.1240 C.3     1  UNL1        0.0888
      3 N         -15.4331   -3.6055   18.6173 N.3     1  UNL1       -0.2713
      4 C         -16.2254   -3.6175   17.3437 C.3     1  UNL1        0.0749
      5 C         -16.8115   -4.9020   16.8371 C.3     1  UNL1        0.0485
      6 C         -16.6052   -6.1744   17.6040 C.3     1  UNL1        0.1096
      7 O         -17.4248   -6.6906   16.4585 O.3     1  UNL1       -0.3826
      8 C         -15.8129   -6.1625   18.8776 C.3     1  UNL1        0.0485
      9 C         -15.2268   -4.8781   19.3843 C.3     1  UNL1        0.0749
     10 H         -17.6410   -5.9586   15.8600 H       1  UNL1        0.2107
     11 C         -16.6836   -7.6262   17.9731 C.ar    1  UNL1        0.0019
     12 C         -15.5044   -8.5238   17.7412 C.ar    1  UNL1        0.0003
     13 C         -15.5827   -9.9755   18.1103 C.ar    1  UNL1        0.0294
     14 C         -16.8404  -10.5297   18.7114 C.ar    1  UNL1        0.1401
     15 F         -16.9187  -11.9815   19.0805 F       1  UNL1       -0.2042
     16 C         -18.0196   -9.6322   18.9433 C.ar    1  UNL1        0.0294
     17 C         -17.9412   -8.1804   18.5742 C.ar    1  UNL1        0.0003
     18 C         -13.9925   -1.4797   18.2230 C.3     1  UNL1        0.1472
     19 O         -14.4642   -0.1216   17.7953 O.3     1  UNL1       -0.3787
     20 H         -13.7983    0.2854   17.2193 H       1  UNL1        0.2108
     21 C         -12.6662   -1.9965   17.7497 C.ar    1  UNL1        0.0057
     22 C         -11.7349   -1.0935   16.9965 C.ar    1  UNL1        0.0012
     23 C         -10.4087   -1.6103   16.5232 C.ar    1  UNL1        0.0364
     24 C         -10.0137   -3.0300   16.8032 C.ar    1  UNL1        0.1336
     25 O          -8.6874   -3.5467   16.3298 O.3     1  UNL1       -0.5055
     26 C         -10.9450   -3.9330   17.5564 C.ar    1  UNL1        0.0335
     27 C         -12.2712   -3.4162   18.0296 C.ar    1  UNL1        0.0011
     28 H          -8.1057   -2.9827   15.8593 H       1  UNL1        0.2922
     29 C         -10.5500   -5.3527   17.8363 C.ar    1  UNL1        0.0029
     30 C         -11.1030   -6.4648   16.9953 C.ar    1  UNL1        0.0001
     31 C         -10.7080   -7.8845   17.2752 C.ar    1  UNL1        0.0000
     32 C          -9.7600   -8.1921   18.3962 C.ar    1  UNL1        0.0000
     33 C          -9.2071   -7.0800   19.2372 C.ar    1  UNL1        0.0000
     34 C          -9.6020   -5.6603   18.9573 C.ar    1  UNL1        0.0001
@<TRIPOS>BOND
     1     1     2    1
     2     2    18    1
     3    18    19    1
     4    18    21    1
     5    21    22   ar
     6    22    23   ar
     7    23    24   ar
     8    24    25    1
     9    24    26   ar
    10    26    29    1
    11    29    30   ar
    12    30    31   ar
    13    31    32   ar
    14    32    33   ar
    15    33    34   ar
    16    26    27   ar
    17     2     3    1
    18     3     4    1
    19     4     5    1
    20     5     6    1
    21     6     7    1
    22     6    11    1
    23    11    12   ar
    24    12    13   ar
    25    13    14   ar
    26    14    15    1
    27    14    16   ar
    28    16    17   ar
    29     6     8    1
    30     8     9    1
    31    27    21   ar
    32     9     3    1
    33    34    29   ar
    34    17    11   ar
    35    19    20    1
    36    25    28    1
    37     7    10    1
@<TRIPOS>MOLECULE
*****
 34 37 0 0 0
SMALL
GASTEIGER

@<TRIPOS>ATOM
      1 C         -16.3607    0.3904   20.4814 C.3     1  UNL1        0.0203
      2 C         -16.5140   -0.9880   19.9098 C.3     1  UNL1        0.0888
      3 N         -15.3310   -1.6854   19.3063 N.3     1  UNL1       -0.2713
      4 C         -14.8120   -1.2579   17.9655 C.3     1  UNL1        0.0749
      5 C         -13.6290   -1.9553   17.3620 C.3     1  UNL1        0.0485
      6 C         -12.9650   -3.0802   18.0993 C.3     1  UNL1        0.1096
      7 O         -12.1126   -3.0384   16.8658 O.3     1  UNL1       -0.3826
      8 C         -13.4840   -3.5078   19.4402 C.3     1  UNL1        0.0485
      9 C         -14.6670   -2.8103   20.0437 C.3     1  UNL1        0.0749
     10 H         -12.4315   -2.3374   16.2760 H       1  UNL1        0.2107
     11 C         -12.0050   -4.1906   18.4083 C.ar    1  UNL1        0.0019
     12 C         -12.5004   -5.6024   18.5149 C.ar    1  UNL1        0.0003
     13 C         -11.5404   -6.7128   18.8239 C.ar    1  UNL1        0.0294
     14 C         -10.0849   -6.4113   19.0262 C.ar    1  UNL1        0.1401
     15 F          -9.1250   -7.5217   19.3352 F       1  UNL1       -0.2042
     16 C          -9.5896   -4.9995   18.9196 C.ar    1  UNL1        0.0294
     17 C         -10.5496   -3.8891   18.6106 C.ar    1  UNL1        0.0003
     18 C         -17.8501   -1.6689   19.9416 C.3     1  UNL1        0.1472
     19 O         -18.9268   -1.1653   20.8566 O.3     1  UNL1       -0.3787
     20 H         -19.7206   -1.7134   20.7542 H       1  UNL1        0.2108
     21 C         -18.1096   -2.8533   19.0585 C.ar    1  UNL1        0.0057
     22 C         -18.7823   -2.6660   17.7310 C.ar    1  UNL1        0.0012
     23 C         -19.0417   -3.8505   16.8480 C.ar    1  UNL1        0.0364
     24 C         -18.6284   -5.2222   17.2925 C.ar    1  UNL1        0.1336
     25 O         -18.8879   -6.4067   16.4094 O.3     1  UNL1       -0.5055
     26 C         -17.9558   -5.4095   18.6200 C.ar    1  UNL1        0.0335
     27 C         -17.6963   -4.2251   19.5030 C.ar    1  UNL1        0.0011
     28 H         -19.3081   -6.2897   15.5801 H       1  UNL1        0.2922
     29 C         -17.5425   -6.7812   19.0646 C.ar    1  UNL1        0.0029
     30 C         -18.5549   -7.7126   19.6624 C.ar    1  UNL1        0.0001
     31 C         -18.1417   -9.0844   20.1069 C.ar    1  UNL1        0.0000
     32 C         -16.7160   -9.5247   19.9536 C.ar    1  UNL1        0.0000
     33 C         -15.7036   -8.5933   19.3558 C.ar    1  UNL1        0.0000
     34 C         -16.1168   -7.2215   18.9113 C.ar    1  UNL1        0.0001
@<TRIPOS>BOND
     1     1     2    1
     2     2    18    1
     3    18    19    1
     4    18    21    1
     5    21    22   ar
     6    22    23   ar
     7    23    24   ar
     8    24    25    1
     9    24    26   ar
    10    26    29    1
    11    29    30   ar
    12    30    31   ar
    13    31    32   ar
    14    32    33   ar
    15    33    34   ar
    16    26    27   ar
    17     2     3    1
    18     3     4    1
    19     4     5    1
    20     5     6    1
    21     6     7    1
    22     6    11    1
    23    11    12   ar
    24    12    13   ar
    25    13    14   ar
    26    14    15    1
    27    14    16   ar
    28    16    17   ar
    29     6     8    1
    30     8     9    1
    31    27    21   ar
    32     9     3    1
    33    34    29   ar
    34    17    11   ar
    35    19    20    1
    36    25    28    1
    37     7    10    1
@<TRIPOS>MOLECULE
*****
 34 37 0 0 0
SMALL
GASTEIGER

@<TRIPOS>ATOM
      1 C           0.0452    1.8647   24.8509 C.3     1  UNL1        0.0203
      2 C          -0.2246    2.5336   23.5357 C.3     1  UNL1        0.0888
      3 N           0.2606    1.9070   22.2621 N.3     1  UNL1       -0.2713
      4 C          -0.4264    2.2160   20.9650 C.3     1  UNL1        0.0749
      5 C           0.0587    1.5894   19.6914 C.3     1  UNL1        0.0485
      6 C           1.2309    0.6537   19.7150 C.3     1  UNL1        0.1096
      7 O           0.9126    0.6356   18.2492 O.3     1  UNL1       -0.3826
      8 C           1.9180    0.3447   21.0121 C.3     1  UNL1        0.0485
      9 C           1.4328    0.9713   22.2857 C.3     1  UNL1        0.0749
     10 H           0.1525    1.2129   18.0763 H       1  UNL1        0.2107
     11 C           2.2926   -0.2882   19.2295 C.ar    1  UNL1        0.0019
     12 C           2.5719   -1.5554   19.9818 C.ar    1  UNL1        0.0003
     13 C           3.6335   -2.4974   19.4964 C.ar    1  UNL1        0.0294
     14 C           4.4158   -2.1720   18.2585 C.ar    1  UNL1        0.1401
     15 F           5.4774   -3.1140   17.7730 F       1  UNL1       -0.2042
     16 C           4.1364   -0.9048   17.5061 C.ar    1  UNL1        0.0294
     17 C           3.0748    0.0371   17.9916 C.ar    1  UNL1        0.0003
     18 C          -0.9796    3.8290   23.4940 C.3     1  UNL1        0.1472
     19 O          -0.2372    5.1260   23.3650 O.3     1  UNL1       -0.3787
     20 H          -0.8700    5.8611   23.3533 H       1  UNL1        0.2108
     21 C          -2.4771    3.8275   23.5814 C.ar    1  UNL1        0.0057
     22 C          -3.1508    3.6441   24.9089 C.ar    1  UNL1        0.0012
     23 C          -4.6482    3.6426   24.9962 C.ar    1  UNL1        0.0364
     24 C          -5.4720    3.8246   23.7559 C.ar    1  UNL1        0.1336
     25 O          -6.9695    3.8231   23.8433 O.3     1  UNL1       -0.5055
     26 C          -4.7983    4.0080   22.4284 C.ar    1  UNL1        0.0335
     27 C          -3.3009    4.0095   22.3411 C.ar    1  UNL1        0.0011
     28 H          -7.3903    3.7085   24.6726 H       1  UNL1        0.2922
     29 C          -5.6221    4.1899   21.1881 C.ar    1  UNL1        0.0029
     30 C          -5.5093    3.2057   20.0618 C.ar    1  UNL1        0.0001
     31 C          -6.3331    3.3877   18.8215 C.ar    1  UNL1        0.0000
     32 C          -7.2696    4.5538   18.7075 C.ar    1  UNL1        0.0000
     33 C          -7.3824    5.5380   19.8338 C.ar    1  UNL1        0.0000
     34 C          -6.5586    5.3560   21.0741 C.ar    1  UNL1        0.0001
@<TRIPOS>BOND
     1     1     2    1
     2     2    18    1
     3    18    19    1
     4    18    21    1
     5    21    22   ar
     6    22    23   ar
     7    23    24   ar
     8    24    25    1
     9    24    26   ar
    10    26    29    1
    11    29    30   ar
    12    30    31   ar
    13    31    32   ar
    14    32    33   ar
    15    33    34   ar
    16    26    27   ar
    17     2     3    1
    18     3     4    1
    19     4     5    1
    20     5     6    1
    21     6     7    1
    22     6    11    1
    23    11    12   ar
    24    12    13   ar
    25    13    14   ar
    26    14    15    1
    27    14    16   ar
    28    16    17   ar
    29     6     8    1
    30     8     9    1
    31    27    21   ar
    32     9     3    1
    33    34    29   ar
    34    17    11   ar
    35    19    20    1
    36    25    28    1
    37     7    10    1
@<TRIPOS>MOLECULE
*****
 34 37 0 0 0
SMALL
GASTEIGER

@<TRIPOS>ATOM
      1 C         -13.7524   -3.4687   20.9631 C.3     1  UNL1        0.0203
      2 C         -13.0854   -4.0567   19.7550 C.3     1  UNL1        0.0888
      3 N         -13.6648   -5.2732   19.0960 N.3     1  UNL1       -0.2713
      4 C         -12.8724   -6.0142   18.0602 C.3     1  UNL1        0.0749
      5 C         -13.4519   -7.2308   17.4011 C.3     1  UNL1        0.0485
      6 C         -14.8236   -7.7063   17.7780 C.3     1  UNL1        0.1096
      7 O         -14.4643   -8.7368   16.7488 O.3     1  UNL1       -0.3826
      8 C         -15.6161   -6.9653   18.8138 C.3     1  UNL1        0.0485
      9 C         -15.0367   -5.7487   19.4729 C.3     1  UNL1        0.0749
     10 H         -13.5762   -8.5537   16.4043 H       1  UNL1        0.2107
     11 C         -16.0707   -8.5397   17.7974 C.ar    1  UNL1        0.0019
     12 C         -16.0942   -9.8369   18.5501 C.ar    1  UNL1        0.0003
     13 C         -17.3412  -10.6703   18.5696 C.ar    1  UNL1        0.0294
     14 C         -18.5648  -10.2064   17.8362 C.ar    1  UNL1        0.1401
     15 F         -19.8118  -11.0398   17.8557 F       1  UNL1       -0.2042
     16 C         -18.5413   -8.9092   17.0835 C.ar    1  UNL1        0.0294
     17 C         -17.2942   -8.0758   17.0640 C.ar    1  UNL1        0.0003
     18 C         -11.8390   -3.4282   19.2060 C.3     1  UNL1        0.1472
     19 O         -10.5189   -4.1243   19.3569 O.3     1  UNL1       -0.3787
     20 H          -9.8215   -3.5868   18.9498 H       1  UNL1        0.2108
     21 C         -11.9127   -2.1035   18.5061 C.ar    1  UNL1        0.0057
     22 C         -10.7096   -1.5659   17.7895 C.ar    1  UNL1        0.0012
     23 C         -10.7833   -0.2413   17.0896 C.ar    1  UNL1        0.0364
     24 C         -12.0602    0.5458   17.1063 C.ar    1  UNL1        0.1336
     25 O         -12.1338    1.8704   16.4063 O.3     1  UNL1       -0.5055
     26 C         -13.2633    0.0082   17.8228 C.ar    1  UNL1        0.0335
     27 C         -13.1895   -1.3165   18.5227 C.ar    1  UNL1        0.0011
     28 H         -11.3823    2.2063   15.9587 H       1  UNL1        0.2922
     29 C         -14.5401    0.7952   17.8395 C.ar    1  UNL1        0.0029
     30 C         -14.8392    1.7151   18.9858 C.ar    1  UNL1        0.0001
     31 C         -16.1161    2.5021   19.0025 C.ar    1  UNL1        0.0000
     32 C         -17.0938    2.3692   17.8728 C.ar    1  UNL1        0.0000
     33 C         -16.7947    1.4493   16.7264 C.ar    1  UNL1        0.0000
     34 C         -15.5178    0.6623   16.7097 C.ar    1  UNL1        0.0001
@<TRIPOS>BOND
     1     1     2    1
     2     2    18    1
     3    18    19    1
     4    18    21    1
     5    21    22   ar
     6    22    23   ar
     7    23    24   ar
     8    24    25    1
     9    24    26   ar
    10    26    29    1
    11    29    30   ar
    12    30    31   ar
    13    31    32   ar
    14    32    33   ar
    15    33    34   ar
    16    26    27   ar
    17     2     3    1
    18     3     4    1
    19     4     5    1
    20     5     6    1
    21     6     7    1
    22     6    11    1
    23    11    12   ar
    24    12    13   ar
    25    13    14   ar
    26    14    15    1
    27    14    16   ar
    28    16    17   ar
    29     6     8    1
    30     8     9    1
    31    27    21   ar
    32     9     3    1
    33    34    29   ar
    34    17    11   ar
    35    19    20    1
    36    25    28    1
    37     7    10    1
@<TRIPOS>MOLECULE
*****
 34 37 0 0 0
SMALL
GASTEIGER

@<TRIPOS>ATOM
      1 C          -0.9369    5.6227   18.9273 C.3     1  UNL1        0.0203
      2 C          -1.4562    4.2243   18.7690 C.3     1  UNL1        0.0888
      3 N          -0.6020    3.0575   19.1677 N.3     1  UNL1       -0.2713
      4 C          -0.6988    2.4967   20.5555 C.3     1  UNL1        0.0749
      5 C           0.1553    1.3299   20.9542 C.3     1  UNL1        0.0485
      6 C           1.1063    0.7239   19.9651 C.3     1  UNL1        0.1096
      7 O           1.3718   -0.1532   21.1527 O.3     1  UNL1       -0.3826
      8 C           1.2031    1.2847   18.5772 C.3     1  UNL1        0.0485
      9 C           0.3489    2.4515   18.1785 C.3     1  UNL1        0.0749
     10 H           0.8117    0.1273   21.8934 H       1  UNL1        0.2107
     11 C           2.1495   -0.1867   19.3884 C.ar    1  UNL1        0.0019
     12 C           2.4735   -1.4828   20.0703 C.ar    1  UNL1        0.0003
     13 C           3.5167   -2.3934   19.4937 C.ar    1  UNL1        0.0294
     14 C           4.2358   -2.0079   18.2349 C.ar    1  UNL1        0.1401
     15 F           5.2789   -2.9186   17.6583 F       1  UNL1       -0.2042
     16 C           3.9117   -0.7118   17.5530 C.ar    1  UNL1        0.0294
     17 C           2.8686    0.1988   18.1297 C.ar    1  UNL1        0.0003
     18 C          -2.8296    3.9928   18.2120 C.3     1  UNL1        0.1472
     19 O          -3.0029    3.6505   16.7620 O.3     1  UNL1       -0.3787
     20 H          -3.9461    3.5342   16.5677 H       1  UNL1        0.2108
     21 C          -4.0296    4.1037   19.1052 C.ar    1  UNL1        0.0057
     22 C          -5.4090    4.0176   18.5221 C.ar    1  UNL1        0.0012
     23 C          -6.6089    4.1284   19.4153 C.ar    1  UNL1        0.0364
     24 C          -6.4296    4.3254   20.8914 C.ar    1  UNL1        0.1336
     25 O          -7.6297    4.4362   21.7846 O.3     1  UNL1       -0.5055
     26 C          -5.0503    4.4114   21.4745 C.ar    1  UNL1        0.0335
     27 C          -3.8503    4.3006   20.5813 C.ar    1  UNL1        0.0011
     28 H          -8.4913    4.3824   21.4203 H       1  UNL1        0.2922
     29 C          -4.8709    4.6083   22.9506 C.ar    1  UNL1        0.0029
     30 C          -4.7820    5.9944   23.5171 C.ar    1  UNL1        0.0001
     31 C          -4.6027    6.1913   24.9932 C.ar    1  UNL1        0.0000
     32 C          -4.5122    5.0021   25.9030 C.ar    1  UNL1        0.0000
     33 C          -4.6011    3.6161   25.3365 C.ar    1  UNL1        0.0000
     34 C          -4.7804    3.4192   23.8604 C.ar    1  UNL1        0.0001
@<TRIPOS>BOND
     1     1     2    1
     2     2    18    1
     3    18    19    1
     4    18    21    1
     5    21    22   ar
     6    22    23   ar
     7    23    24   ar
     8    24    25    1
     9    24    26   ar
    10    26    29    1
    11    29    30   ar
    12    30    31   ar
    13    31    32   ar
    14    32    33   ar
    15    33    34   ar
    16    26    27   ar
    17     2     3    1
    18     3     4    1
    19     4     5    1
    20     5     6    1
    21     6     7    1
    22     6    11    1
    23    11    12   ar
    24    12    13   ar
    25    13    14   ar
    26    14    15    1
    27    14    16   ar
    28    16    17   ar
    29     6     8    1
    30     8     9    1
    31    27    21   ar
    32     9     3    1
    33    34    29   ar
    34    17    11   ar
    35    19    20    1
    36    25    28    1
    37     7    10    1
