@<TRIPOS>MOLECULE
*****
 41 44 0 0 0
SMALL
GASTEIGER

@<TRIPOS>ATOM
      1 C           3.1138   -0.6338   20.3979 C.ar    1  UNL1       -0.0041
      2 C           2.9490   -1.9725   19.7414 C.ar    1  UNL1        0.0028
      3 C           4.0293   -3.0059   19.8643 C.ar    1  UNL1        0.0382
      4 C           4.1473   -4.4028   19.3305 C.ar    1  UNL1        0.1216
      5 N           5.4651   -4.9608   19.7798 N.ar    1  UNL1       -0.1675
      6 N           6.1615   -3.9089   20.5912 N.ar    1  UNL1       -0.2487
      7 C           5.2741   -2.7007   20.6435 C.ar    1  UNL1        0.0794
      8 C           5.4388   -1.3620   21.2998 C.ar    1  UNL1        0.0145
      9 C           4.3586   -0.3286   21.1770 C.ar    1  UNL1       -0.0204
     10 C           4.5233    1.0101   21.8334 C.3     1  UNL1        0.0311
     11 C           3.1905    1.3571   18.1550 C.3     1  UNL1        0.0310
     12 C           2.0719    1.3952   19.1536 C.ar    1  UNL1       -0.0219
     13 C           0.9917    2.4286   19.0308 C.ar    1  UNL1       -0.0004
     14 C          -0.1269    2.4667   20.0295 C.ar    1  UNL1        0.0711
     15 C          -0.1653    1.4712   21.1509 C.ar    1  UNL1        0.0038
     16 C           0.9149    0.4378   21.2737 C.ar    1  UNL1       -0.0004
     17 C           2.0335    0.3998   20.2750 C.ar    1  UNL1       -0.0043
     18 C          -1.2071    3.5001   19.9066 C.3     1  UNL1        0.4186
     19 F          -2.2872    4.5336   19.7836 F       1  UNL1       -0.1659
     20 F          -0.9585    3.5844   18.4298 F       1  UNL1       -0.1659
     21 F          -1.4558    3.4159   21.3834 F       1  UNL1       -0.1659
     22 C           7.5088   -4.0419   21.2371 C.3     1  UNL1        0.1273
     23 C           7.6512   -4.7942   22.5269 C.ar    1  UNL1       -0.0001
     24 C           6.9673   -4.2956   23.7654 C.ar    1  UNL1       -0.0023
     25 C           7.1097   -5.0479   25.0553 C.ar    1  UNL1        0.0042
     26 C           7.9361   -6.2988   25.1067 C.ar    1  UNL1        0.0533
     27 C           8.6200   -6.7973   23.8684 C.ar    1  UNL1        0.0042
     28 C           8.4776   -6.0450   22.5784 C.ar    1  UNL1       -0.0023
     29 C           8.0785   -7.0511   26.3966 C.2     1  UNL1        0.2459
     30 O           7.6840   -8.4964   26.4694 O.2     1  UNL1       -0.2701
     31 N           8.6153   -6.3580   27.6138 N.am    1  UNL1       -0.3005
     32 H           8.8742   -5.4093   27.5660 H       1  UNL1        0.1498
     33 C           8.7577   -7.1102   28.9036 C.3     1  UNL1        0.0956
     34 C           8.6323   -6.3867   30.2116 C.3     1  UNL1        0.0629
     35 C           7.3072   -5.8248   30.6339 C.2     1  UNL1        0.0520
     36 O           6.5859   -4.8557   29.7447 O.co2   1  UNL1       -0.5491
     37 O           6.7034   -6.2320   31.9452 O.co2   1  UNL1       -0.5491
     38 C           8.7137   -3.4226   20.5930 C.3     1  UNL1        0.0289
     39 C           8.9165   -1.9377   20.6537 C.3     1  UNL1        0.0023
     40 C           8.7182   -1.1028   19.4234 C.3     1  UNL1        0.0001
     41 C           9.3177   -1.2875   21.9446 C.3     1  UNL1        0.0001
@<TRIPOS>UNITY_ATOM_ATTR
36 1
charge -1
@<TRIPOS>BOND
     1    11    12    1
     2    12    13   ar
     3    13    14   ar
     4    14    18    1
     5    18    19    1
     6    18    20    1
     7    18    21    1
     8    14    15   ar
     9    15    16   ar
    10    16    17   ar
    11    17     1    1
    12     1     2   ar
    13     2     3   ar
    14     3     4   ar
    15     4     5   ar
    16     5     6   ar
    17     6    22    1
    18    22    38    1
    19    38    39    1
    20    39    40    1
    21    39    41    1
    22    22    23    1
    23    23    24   ar
    24    24    25   ar
    25    25    26   ar
    26    26    29    1
    27    29    30    2
    28    29    31   am
    29    31    33    1
    30    33    34    1
    31    34    35    1
    32    35    36   ar
    33    35    37   ar
    34    26    27   ar
    35    27    28   ar
    36     6     7   ar
    37     7     8   ar
    38     8     9   ar
    39     9    10    1
    40    17    12   ar
    41     9     1   ar
    42     7     3   ar
    43    28    23   ar
    44    31    32    1
@<TRIPOS>MOLECULE
*****
 41 44 0 0 0
SMALL
GASTEIGER

@<TRIPOS>ATOM
      1 C           5.0171   -1.9362   24.7366 C.ar    1  UNL1       -0.0041
      2 C           3.9168   -1.2944   25.5289 C.ar    1  UNL1        0.0028
      3 C           3.9966   -1.2533   27.0262 C.ar    1  UNL1        0.0382
      4 C           3.0716   -0.6928   28.0655 C.ar    1  UNL1        0.1216
      5 N           3.6799   -0.9471   29.4129 N.ar    1  UNL1       -0.1675
      6 N           4.9807   -1.6647   29.2063 N.ar    1  UNL1       -0.2487
      7 C           5.1765   -1.8540   27.7312 C.ar    1  UNL1        0.0794
      8 C           6.2766   -2.4958   26.9389 C.ar    1  UNL1        0.0145
      9 C           6.1969   -2.5368   25.4416 C.ar    1  UNL1       -0.0204
     10 C           7.2972   -3.1786   24.6493 C.3     1  UNL1        0.0311
     11 C           6.0629    0.3611   23.1152 C.3     1  UNL1        0.0310
     12 C           5.4603   -0.8286   22.4285 C.ar    1  UNL1       -0.0219
     13 C           5.3806   -0.8697   20.9312 C.ar    1  UNL1       -0.0004
     14 C           4.7779   -2.0594   20.2446 C.ar    1  UNL1        0.0711
     15 C           4.2550   -3.2080   21.0552 C.ar    1  UNL1        0.0038
     16 C           4.3347   -3.1669   22.5526 C.ar    1  UNL1       -0.0004
     17 C           4.9374   -1.9772   23.2392 C.ar    1  UNL1       -0.0043
     18 C           4.6982   -2.1003   18.7473 C.3     1  UNL1        0.4186
     19 F           4.6186   -2.1412   17.2500 F       1  UNL1       -0.1659
     20 F           5.5119   -0.8427   18.6696 F       1  UNL1       -0.1659
     21 F           3.8845   -3.3580   18.8249 F       1  UNL1       -0.1659
     22 C           5.9208   -2.1142   30.2853 C.3     1  UNL1        0.1273
     23 C           5.7285   -1.6368   31.6942 C.ar    1  UNL1       -0.0001
     24 C           4.7283   -2.3122   32.5850 C.ar    1  UNL1       -0.0023
     25 C           4.5360   -1.8349   33.9939 C.ar    1  UNL1        0.0042
     26 C           5.3439   -0.6820   34.5121 C.ar    1  UNL1        0.0533
     27 C           6.3440   -0.0066   33.6214 C.ar    1  UNL1        0.0042
     28 C           6.5363   -0.4840   32.2124 C.ar    1  UNL1       -0.0023
     29 C           5.1516   -0.2046   35.9211 C.2     1  UNL1        0.2459
     30 O           6.1677   -0.5405   36.9720 O.2     1  UNL1       -0.2701
     31 N           3.9431    0.6087   36.2790 N.am    1  UNL1       -0.3005
     32 H           3.2761    0.8291   35.5893 H       1  UNL1        0.1498
     33 C           3.7508    1.0860   37.6880 C.3     1  UNL1        0.0956
     34 C           2.4043    0.9763   38.3399 C.3     1  UNL1        0.0629
     35 C           1.7740    2.1843   38.9671 C.2     1  UNL1        0.0520
     36 O           2.6249    3.1795   39.6989 O.co2   1  UNL1       -0.5491
     37 O           0.2928    2.3971   38.8625 O.co2   1  UNL1       -0.5491
     38 C           7.0531   -3.0410   29.9554 C.3     1  UNL1        0.0289
     39 C           6.9000   -4.5178   30.1686 C.3     1  UNL1        0.0023
     40 C           7.0721   -5.0993   31.5406 C.3     1  UNL1        0.0001
     41 C           6.5747   -5.4133   29.0100 C.3     1  UNL1        0.0001
@<TRIPOS>UNITY_ATOM_ATTR
36 1
charge -1
@<TRIPOS>BOND
     1    11    12    1
     2    12    13   ar
     3    13    14   ar
     4    14    18    1
     5    18    19    1
     6    18    20    1
     7    18    21    1
     8    14    15   ar
     9    15    16   ar
    10    16    17   ar
    11    17     1    1
    12     1     2   ar
    13     2     3   ar
    14     3     4   ar
    15     4     5   ar
    16     5     6   ar
    17     6    22    1
    18    22    38    1
    19    38    39    1
    20    39    40    1
    21    39    41    1
    22    22    23    1
    23    23    24   ar
    24    24    25   ar
    25    25    26   ar
    26    26    29    1
    27    29    30    2
    28    29    31   am
    29    31    33    1
    30    33    34    1
    31    34    35    1
    32    35    36   ar
    33    35    37   ar
    34    26    27   ar
    35    27    28   ar
    36     6     7   ar
    37     7     8   ar
    38     8     9   ar
    39     9    10    1
    40    17    12   ar
    41     9     1   ar
    42     7     3   ar
    43    28    23   ar
    44    31    32    1
@<TRIPOS>MOLECULE
*****
 41 44 0 0 0
SMALL
GASTEIGER

@<TRIPOS>ATOM
      1 C          -1.2560    2.9801   27.0093 C.ar    1  UNL1       -0.0041
      2 C          -1.0923    1.5455   27.4161 C.ar    1  UNL1        0.0028
      3 C          -0.0157    1.1594   28.3865 C.ar    1  UNL1        0.0382
      4 C           0.3833   -0.1642   28.9686 C.ar    1  UNL1        0.1216
      5 N           1.5427    0.0661   29.8920 N.ar    1  UNL1       -0.1675
      6 N           1.8603    1.5320   29.8807 N.ar    1  UNL1       -0.2487
      7 C           0.8971    2.2078   28.9503 C.ar    1  UNL1        0.0794
      8 C           0.7333    3.6422   28.5435 C.ar    1  UNL1        0.0145
      9 C          -0.3433    4.0283   27.5730 C.ar    1  UNL1       -0.0204
     10 C          -0.5071    5.4629   27.1663 C.3     1  UNL1        0.0311
     11 C          -0.6636    3.0709   24.0698 C.3     1  UNL1        0.0310
     12 C          -2.0365    3.4116   24.5690 C.ar    1  UNL1       -0.0219
     13 C          -3.1131    3.7978   23.5986 C.ar    1  UNL1       -0.0004
     14 C          -4.4859    4.1385   24.0979 C.ar    1  UNL1        0.0711
     15 C          -4.7821    4.0930   25.5676 C.ar    1  UNL1        0.0038
     16 C          -3.7055    3.7069   26.5381 C.ar    1  UNL1       -0.0004
     17 C          -2.3327    3.3662   26.0388 C.ar    1  UNL1       -0.0043
     18 C          -5.5625    4.5246   23.1274 C.3     1  UNL1        0.4186
     19 F          -6.6390    4.9107   22.1569 F       1  UNL1       -0.1659
     20 F          -6.2289    5.3439   24.1925 F       1  UNL1       -0.1659
     21 F          -4.8961    3.7053   22.0621 F       1  UNL1       -0.1659
     22 C           2.9497    2.2042   30.6625 C.3     1  UNL1        0.1273
     23 C           2.8945    2.2239   32.1614 C.ar    1  UNL1       -0.0001
     24 C           2.0305    3.2267   32.8670 C.ar    1  UNL1       -0.0023
     25 C           1.9752    3.2464   34.3658 C.ar    1  UNL1        0.0042
     26 C           2.7841    2.2632   35.1591 C.ar    1  UNL1        0.0533
     27 C           3.6481    1.2604   34.4536 C.ar    1  UNL1        0.0042
     28 C           3.7033    1.2407   32.9547 C.ar    1  UNL1       -0.0023
     29 C           2.7289    2.2829   36.6580 C.2     1  UNL1        0.2459
     30 O           2.2537    3.5117   37.3749 O.2     1  UNL1       -0.2701
     31 N           3.1488    1.0736   37.4399 N.am    1  UNL1       -0.3005
     32 H           3.4607    0.2670   36.9693 H       1  UNL1        0.1498
     33 C           3.0936    1.0933   38.9387 C.3     1  UNL1        0.0956
     34 C           1.8444    0.6629   39.6489 C.3     1  UNL1        0.0629
     35 C           0.7651    1.6630   39.9405 C.2     1  UNL1        0.0520
     36 O          -0.3037    1.9310   38.9228 O.co2   1  UNL1       -0.5491
     37 O           0.7546    2.3949   41.2497 O.co2   1  UNL1       -0.5491
     38 C           4.0944    2.8567   29.9455 C.3     1  UNL1        0.0289
     39 C           4.7776    4.0470   30.5507 C.3     1  UNL1        0.0023
     40 C           6.1091    3.8863   31.2225 C.3     1  UNL1        0.0001
     41 C           4.1295    5.3982   30.4841 C.3     1  UNL1        0.0001
@<TRIPOS>UNITY_ATOM_ATTR
36 1
charge -1
@<TRIPOS>BOND
     1    11    12    1
     2    12    13   ar
     3    13    14   ar
     4    14    18    1
     5    18    19    1
     6    18    20    1
     7    18    21    1
     8    14    15   ar
     9    15    16   ar
    10    16    17   ar
    11    17     1    1
    12     1     2   ar
    13     2     3   ar
    14     3     4   ar
    15     4     5   ar
    16     5     6   ar
    17     6    22    1
    18    22    38    1
    19    38    39    1
    20    39    40    1
    21    39    41    1
    22    22    23    1
    23    23    24   ar
    24    24    25   ar
    25    25    26   ar
    26    26    29    1
    27    29    30    2
    28    29    31   am
    29    31    33    1
    30    33    34    1
    31    34    35    1
    32    35    36   ar
    33    35    37   ar
    34    26    27   ar
    35    27    28   ar
    36     6     7   ar
    37     7     8   ar
    38     8     9   ar
    39     9    10    1
    40    17    12   ar
    41     9     1   ar
    42     7     3   ar
    43    28    23   ar
    44    31    32    1
@<TRIPOS>MOLECULE
*****
 41 44 0 0 0
SMALL
GASTEIGER

@<TRIPOS>ATOM
      1 C           1.8412    1.4977   29.9727 C.ar    1  UNL1       -0.0041
      2 C           1.4750    2.3782   31.1306 C.ar    1  UNL1        0.0028
      3 C           2.0561    2.1128   32.4878 C.ar    1  UNL1        0.0382
      4 C           1.8814    2.8046   33.8072 C.ar    1  UNL1        0.1216
      5 N           2.7207    2.0863   34.8218 N.ar    1  UNL1       -0.1675
      6 N           3.4142    0.9506   34.1295 N.ar    1  UNL1       -0.2487
      7 C           3.0034    0.9670   32.6870 C.ar    1  UNL1        0.0794
      8 C           3.3696    0.0866   31.5290 C.ar    1  UNL1        0.0145
      9 C           2.7885    0.3520   30.1719 C.ar    1  UNL1       -0.0204
     10 C           3.1547   -0.5285   29.0140 C.3     1  UNL1        0.0311
     11 C          -0.6226    0.0350   29.0838 C.3     1  UNL1        0.0310
     12 C           0.0281    1.0318   28.1710 C.ar    1  UNL1       -0.0219
     13 C          -0.5530    1.2972   26.8139 C.ar    1  UNL1       -0.0004
     14 C           0.0978    2.2940   25.9012 C.ar    1  UNL1        0.0711
     15 C           1.3297    3.0253   26.3457 C.ar    1  UNL1        0.0038
     16 C           1.9108    2.7599   27.7028 C.ar    1  UNL1       -0.0004
     17 C           1.2600    1.7631   28.6155 C.ar    1  UNL1       -0.0043
     18 C          -0.4834    2.5593   24.5441 C.3     1  UNL1        0.4186
     19 F          -1.0645    2.8246   23.1870 F       1  UNL1       -0.1659
     20 F           0.8762    2.4004   23.9308 F       1  UNL1       -0.1659
     21 F          -1.8431    2.7182   25.1574 F       1  UNL1       -0.1659
     22 C           4.3535   -0.0294   34.7677 C.3     1  UNL1        0.1273
     23 C           5.1069   -1.0089   33.9175 C.ar    1  UNL1       -0.0001
     24 C           6.4427   -0.6347   33.3469 C.ar    1  UNL1       -0.0023
     25 C           7.1961   -1.6142   32.4966 C.ar    1  UNL1        0.0042
     26 C           6.6137   -2.9680   32.2170 C.ar    1  UNL1        0.0533
     27 C           5.2780   -3.3422   32.7876 C.ar    1  UNL1        0.0042
     28 C           4.5245   -2.3627   33.6379 C.ar    1  UNL1       -0.0023
     29 C           7.3671   -3.9475   31.3668 C.2     1  UNL1        0.2459
     30 O           8.8635   -3.8786   31.2901 O.2     1  UNL1       -0.2701
     31 N           6.6240   -4.9960   30.5931 N.am    1  UNL1       -0.3005
     32 H           5.6419   -5.0413   30.6434 H       1  UNL1        0.1498
     33 C           7.3774   -5.9755   29.7429 C.3     1  UNL1        0.0956
     34 C           7.7921   -5.5976   28.3517 C.3     1  UNL1        0.0629
     35 C           6.8174   -4.9160   27.4377 C.2     1  UNL1        0.0520
     36 O           6.0129   -3.7512   27.9335 O.co2   1  UNL1       -0.5491
     37 O           6.6473   -5.3993   26.0279 O.co2   1  UNL1       -0.5491
     38 C           4.5394   -0.0298   36.2562 C.3     1  UNL1        0.0289
     39 C           5.7659    0.5885   36.8589 C.3     1  UNL1        0.0023
     40 C           5.7183    1.9941   37.3803 C.3     1  UNL1        0.0001
     41 C           7.0401   -0.1989   36.9404 C.3     1  UNL1        0.0001
@<TRIPOS>UNITY_ATOM_ATTR
36 1
charge -1
@<TRIPOS>BOND
     1    11    12    1
     2    12    13   ar
     3    13    14   ar
     4    14    18    1
     5    18    19    1
     6    18    20    1
     7    18    21    1
     8    14    15   ar
     9    15    16   ar
    10    16    17   ar
    11    17     1    1
    12     1     2   ar
    13     2     3   ar
    14     3     4   ar
    15     4     5   ar
    16     5     6   ar
    17     6    22    1
    18    22    38    1
    19    38    39    1
    20    39    40    1
    21    39    41    1
    22    22    23    1
    23    23    24   ar
    24    24    25   ar
    25    25    26   ar
    26    26    29    1
    27    29    30    2
    28    29    31   am
    29    31    33    1
    30    33    34    1
    31    34    35    1
    32    35    36   ar
    33    35    37   ar
    34    26    27   ar
    35    27    28   ar
    36     6     7   ar
    37     7     8   ar
    38     8     9   ar
    39     9    10    1
    40    17    12   ar
    41     9     1   ar
    42     7     3   ar
    43    28    23   ar
    44    31    32    1
@<TRIPOS>MOLECULE
*****
 41 44 0 0 0
SMALL
GASTEIGER

@<TRIPOS>ATOM
      1 C           5.9615   -2.7573   23.3033 C.ar    1  UNL1       -0.0041
      2 C           5.2801   -3.8679   22.5601 C.ar    1  UNL1        0.0028
      3 C           4.5843   -3.5849   21.2617 C.ar    1  UNL1        0.0382
      4 C           3.8326   -4.4700   20.3121 C.ar    1  UNL1        0.1216
      5 N           3.3536   -3.6235   19.1702 N.ar    1  UNL1       -0.1675
      6 N           3.8093   -2.2153   19.4139 N.ar    1  UNL1       -0.2487
      7 C           4.5700   -2.1915   20.7066 C.ar    1  UNL1        0.0794
      8 C           5.2514   -1.0810   21.4499 C.ar    1  UNL1        0.0145
      9 C           5.9471   -1.3639   22.7483 C.ar    1  UNL1       -0.0204
     10 C           6.6285   -0.2533   23.4915 C.3     1  UNL1        0.0311
     11 C           8.7742   -3.8006   23.3017 C.3     1  UNL1        0.0310
     12 C           8.0636   -3.5619   24.6010 C.ar    1  UNL1       -0.0219
     13 C           8.7594   -3.8448   25.8994 C.ar    1  UNL1       -0.0004
     14 C           8.0487   -3.6061   27.1987 C.ar    1  UNL1        0.0711
     15 C           6.6424   -3.0844   27.1995 C.ar    1  UNL1        0.0038
     16 C           5.9466   -2.8015   25.9011 C.ar    1  UNL1       -0.0004
     17 C           6.6573   -3.0402   24.6018 C.ar    1  UNL1       -0.0043
     18 C           8.7445   -3.8890   28.4970 C.3     1  UNL1        0.4186
     19 F           9.4404   -4.1719   29.7953 F       1  UNL1       -0.1659
     20 F           9.4756   -2.5837   28.3897 F       1  UNL1       -0.1659
     21 F           8.0135   -5.1944   28.6044 F       1  UNL1       -0.1659
     22 C           3.5500   -1.0378   18.5217 C.3     1  UNL1        0.1273
     23 C           2.5004   -0.0324   18.8928 C.ar    1  UNL1       -0.0001
     24 C           2.5826    1.3682   18.3623 C.ar    1  UNL1       -0.0023
     25 C           1.5330    2.3736   18.7334 C.ar    1  UNL1        0.0042
     26 C           0.4012    1.9782   19.6351 C.ar    1  UNL1        0.0533
     27 C           0.3191    0.5777   20.1655 C.ar    1  UNL1        0.0042
     28 C           1.3686   -0.4278   19.7945 C.ar    1  UNL1       -0.0023
     29 C          -0.6483    2.9836   20.0062 C.2     1  UNL1        0.2459
     30 O          -0.4951    4.4163   19.5897 O.2     1  UNL1       -0.2701
     31 N          -1.8512    2.5561   20.7939 N.am    1  UNL1       -0.3005
     32 H          -1.9518    1.6157   21.0673 H       1  UNL1        0.1498
     33 C          -2.9007    3.5614   21.1650 C.3     1  UNL1        0.0956
     34 C          -4.3150    3.3753   20.7009 C.3     1  UNL1        0.0629
     35 C          -4.6422    3.4604   19.2396 C.2     1  UNL1        0.0520
     36 O          -6.0301    3.1506   18.7625 O.co2   1  UNL1       -0.5491
     37 O          -3.5814    3.8552   18.2552 O.co2   1  UNL1       -0.5491
     38 C           4.3401   -0.8655   17.2584 C.3     1  UNL1        0.0289
     39 C           5.7521   -0.3631   17.3196 C.3     1  UNL1        0.0023
     40 C           6.8198   -1.2021   17.9569 C.3     1  UNL1        0.0001
     41 C           6.0965    0.9784   16.7435 C.3     1  UNL1        0.0001
@<TRIPOS>UNITY_ATOM_ATTR
36 1
charge -1
@<TRIPOS>BOND
     1    11    12    1
     2    12    13   ar
     3    13    14   ar
     4    14    18    1
     5    18    19    1
     6    18    20    1
     7    18    21    1
     8    14    15   ar
     9    15    16   ar
    10    16    17   ar
    11    17     1    1
    12     1     2   ar
    13     2     3   ar
    14     3     4   ar
    15     4     5   ar
    16     5     6   ar
    17     6    22    1
    18    22    38    1
    19    38    39    1
    20    39    40    1
    21    39    41    1
    22    22    23    1
    23    23    24   ar
    24    24    25   ar
    25    25    26   ar
    26    26    29    1
    27    29    30    2
    28    29    31   am
    29    31    33    1
    30    33    34    1
    31    34    35    1
    32    35    36   ar
    33    35    37   ar
    34    26    27   ar
    35    27    28   ar
    36     6     7   ar
    37     7     8   ar
    38     8     9   ar
    39     9    10    1
    40    17    12   ar
    41     9     1   ar
    42     7     3   ar
    43    28    23   ar
    44    31    32    1
@<TRIPOS>MOLECULE
*****
 41 44 0 0 0
SMALL
GASTEIGER

@<TRIPOS>ATOM
      1 C           1.3197    1.2418   22.0648 C.ar    1  UNL1       -0.0041
      2 C           0.3727    2.2003   21.4056 C.ar    1  UNL1        0.0028
      3 C          -0.5385    3.0489   22.2420 C.ar    1  UNL1        0.0382
      4 C          -1.5699    4.0751   21.8772 C.ar    1  UNL1        0.1216
      5 N          -2.1715    4.5994   23.1473 N.ar    1  UNL1       -0.1675
      6 N          -1.5119    3.8973   24.2971 N.ar    1  UNL1       -0.2487
      7 C          -0.5026    2.9390   23.7376 C.ar    1  UNL1        0.0794
      8 C           0.4444    1.9805   24.3967 C.ar    1  UNL1        0.0145
      9 C           1.3556    1.1319   23.5602 C.ar    1  UNL1       -0.0204
     10 C           2.3026    0.1734   24.2194 C.3     1  UNL1        0.0311
     11 C           4.1185    2.1587   21.4935 C.3     1  UNL1        0.0310
     12 C           3.6303    0.8516   20.9426 C.ar    1  UNL1       -0.0219
     13 C           4.5415    0.0030   20.1062 C.ar    1  UNL1       -0.0004
     14 C           4.0533   -1.3040   19.5555 C.ar    1  UNL1        0.0711
     15 C           2.6540   -1.7625   19.8411 C.ar    1  UNL1        0.0038
     16 C           1.7428   -0.9139   20.6776 C.ar    1  UNL1       -0.0004
     17 C           2.2310    0.3932   21.2283 C.ar    1  UNL1       -0.0043
     18 C           4.9645   -2.1526   18.7190 C.3     1  UNL1        0.4186
     19 F           5.8758   -3.0010   17.8826 F       1  UNL1       -0.1659
     20 F           6.0258   -1.0959   18.8033 F       1  UNL1       -0.1659
     21 F           3.9033   -3.2093   18.6347 F       1  UNL1       -0.1659
     22 C          -1.8094    4.1152   25.7511 C.3     1  UNL1        0.1273
     23 C          -1.0577    3.3428   26.7943 C.ar    1  UNL1       -0.0001
     24 C          -1.5367    1.9841   27.2119 C.ar    1  UNL1       -0.0023
     25 C          -0.7849    1.2117   28.2551 C.ar    1  UNL1        0.0042
     26 C           0.4458    1.7982   28.8809 C.ar    1  UNL1        0.0533
     27 C           0.9248    3.1568   28.4633 C.ar    1  UNL1        0.0042
     28 C           0.1731    3.9293   27.4200 C.ar    1  UNL1       -0.0023
     29 C           1.1975    1.0258   29.9241 C.2     1  UNL1        0.2459
     30 O           1.2862   -0.4687   29.8322 O.2     1  UNL1       -0.2701
     31 N           1.8606    1.7480   31.0594 N.am    1  UNL1       -0.3005
     32 H           1.8024    2.7289   31.1198 H       1  UNL1        0.1498
     33 C           2.6123    0.9757   32.1027 C.3     1  UNL1        0.0956
     34 C           3.1170    1.6711   33.3322 C.3     1  UNL1        0.0629
     35 C           2.1909    2.5293   34.1419 C.2     1  UNL1        0.0520
     36 O           2.1678    2.4050   35.6366 O.co2   1  UNL1       -0.5491
     37 O           1.2878    3.5119   33.4570 O.co2   1  UNL1       -0.5491
     38 C          -2.8586    5.1054   26.1618 C.3     1  UNL1        0.0289
     39 C          -4.2958    4.6844   26.2441 C.3     1  UNL1        0.0023
     40 C          -5.2215    5.3616   27.2108 C.3     1  UNL1        0.0001
     41 C          -4.8076    3.5861   25.3598 C.3     1  UNL1        0.0001
@<TRIPOS>UNITY_ATOM_ATTR
36 1
charge -1
@<TRIPOS>BOND
     1    11    12    1
     2    12    13   ar
     3    13    14   ar
     4    14    18    1
     5    18    19    1
     6    18    20    1
     7    18    21    1
     8    14    15   ar
     9    15    16   ar
    10    16    17   ar
    11    17     1    1
    12     1     2   ar
    13     2     3   ar
    14     3     4   ar
    15     4     5   ar
    16     5     6   ar
    17     6    22    1
    18    22    38    1
    19    38    39    1
    20    39    40    1
    21    39    41    1
    22    22    23    1
    23    23    24   ar
    24    24    25   ar
    25    25    26   ar
    26    26    29    1
    27    29    30    2
    28    29    31   am
    29    31    33    1
    30    33    34    1
    31    34    35    1
    32    35    36   ar
    33    35    37   ar
    34    26    27   ar
    35    27    28   ar
    36     6     7   ar
    37     7     8   ar
    38     8     9   ar
    39     9    10    1
    40    17    12   ar
    41     9     1   ar
    42     7     3   ar
    43    28    23   ar
    44    31    32    1
@<TRIPOS>MOLECULE
*****
 41 44 0 0 0
SMALL
GASTEIGER

@<TRIPOS>ATOM
      1 C           1.9584    1.0597   28.9805 C.ar    1  UNL1       -0.0041
      2 C           2.9411    0.3062   28.1338 C.ar    1  UNL1        0.0028
      3 C           3.9984   -0.5370   28.7827 C.ar    1  UNL1        0.0382
      4 C           5.0954   -1.3859   28.2119 C.ar    1  UNL1        0.1216
      5 N           5.8482   -2.0003   29.3546 N.ar    1  UNL1       -0.1675
      6 N           5.2165   -1.5311   30.6316 N.ar    1  UNL1       -0.2487
      7 C           4.0732   -0.6267   30.2781 C.ar    1  UNL1        0.0794
      8 C           3.0906    0.1268   31.1247 C.ar    1  UNL1        0.0145
      9 C           2.0332    0.9700   30.4759 C.ar    1  UNL1       -0.0204
     10 C           1.0506    1.7234   31.3226 C.3     1  UNL1        0.0311
     11 C          -0.7414   -0.1092   28.3937 C.3     1  UNL1        0.0310
     12 C          -0.4490    1.3185   28.0383 C.ar    1  UNL1       -0.0219
     13 C          -1.5063    2.1616   27.3895 C.ar    1  UNL1       -0.0004
     14 C          -1.2138    3.5893   27.0340 C.ar    1  UNL1        0.0711
     15 C           0.1362    4.1737   27.3274 C.ar    1  UNL1        0.0038
     16 C           1.1935    3.3305   27.9763 C.ar    1  UNL1       -0.0004
     17 C           0.9010    1.9029   28.3317 C.ar    1  UNL1       -0.0043
     18 C          -2.2712    4.4324   26.3852 C.3     1  UNL1        0.4186
     19 F          -3.3286    5.2754   25.7364 F       1  UNL1       -0.1659
     20 F          -2.6344    3.2864   25.4881 F       1  UNL1       -0.1659
     21 F          -1.9080    5.5784   27.2823 F       1  UNL1       -0.1659
     22 C           5.6516   -1.9013   32.0186 C.3     1  UNL1        0.1273
     23 C           5.5358   -0.9033   33.1324 C.ar    1  UNL1       -0.0001
     24 C           6.2545    0.4101   33.0403 C.ar    1  UNL1       -0.0023
     25 C           6.1387    1.4081   34.1541 C.ar    1  UNL1        0.0042
     26 C           5.3042    1.0927   35.3600 C.ar    1  UNL1        0.0533
     27 C           4.5856   -0.2206   35.4521 C.ar    1  UNL1        0.0042
     28 C           4.7013   -1.2187   34.3383 C.ar    1  UNL1       -0.0023
     29 C           5.1884    2.0907   36.4738 C.2     1  UNL1        0.2459
     30 O           5.3287    3.5560   36.1856 O.2     1  UNL1       -0.2701
     31 N           4.9323    1.6234   37.8760 N.am    1  UNL1       -0.3005
     32 H           4.8402    0.6616   38.0653 H       1  UNL1        0.1498
     33 C           4.8165    2.6214   38.9898 C.3     1  UNL1        0.0956
     34 C           3.5159    3.3287   39.2309 C.3     1  UNL1        0.0629
     35 C           2.2185    2.6235   38.9674 C.2     1  UNL1        0.0520
     36 O           1.8634    2.2030   37.5720 O.co2   1  UNL1       -0.5491
     37 O           1.2762    2.3388   40.0992 O.co2   1  UNL1       -0.5491
     38 C           6.2025   -3.2695   32.2917 C.3     1  UNL1        0.0289
     39 C           7.6282   -3.5859   31.9496 C.3     1  UNL1        0.0023
     40 C           7.9468   -4.7662   31.0805 C.3     1  UNL1        0.0001
     41 C           8.7355   -2.7220   32.4767 C.3     1  UNL1        0.0001
@<TRIPOS>UNITY_ATOM_ATTR
36 1
charge -1
@<TRIPOS>BOND
     1    11    12    1
     2    12    13   ar
     3    13    14   ar
     4    14    18    1
     5    18    19    1
     6    18    20    1
     7    18    21    1
     8    14    15   ar
     9    15    16   ar
    10    16    17   ar
    11    17     1    1
    12     1     2   ar
    13     2     3   ar
    14     3     4   ar
    15     4     5   ar
    16     5     6   ar
    17     6    22    1
    18    22    38    1
    19    38    39    1
    20    39    40    1
    21    39    41    1
    22    22    23    1
    23    23    24   ar
    24    24    25   ar
    25    25    26   ar
    26    26    29    1
    27    29    30    2
    28    29    31   am
    29    31    33    1
    30    33    34    1
    31    34    35    1
    32    35    36   ar
    33    35    37   ar
    34    26    27   ar
    35    27    28   ar
    36     6     7   ar
    37     7     8   ar
    38     8     9   ar
    39     9    10    1
    40    17    12   ar
    41     9     1   ar
    42     7     3   ar
    43    28    23   ar
    44    31    32    1
@<TRIPOS>MOLECULE
*****
 41 44 0 0 0
SMALL
GASTEIGER

@<TRIPOS>ATOM
      1 C           2.9459    0.1019   26.4262 C.ar    1  UNL1       -0.0041
      2 C           4.1262   -0.8094   26.5892 C.ar    1  UNL1        0.0028
      3 C           4.6855   -1.5322   25.3997 C.ar    1  UNL1        0.0382
      4 C           5.8326   -2.4877   25.2540 C.ar    1  UNL1        0.1216
      5 N           5.9206   -2.8897   23.8116 N.ar    1  UNL1       -0.1675
      6 N           4.8279   -2.1827   23.0658 N.ar    1  UNL1       -0.2487
      7 C           4.0645   -1.3437   24.0474 C.ar    1  UNL1        0.0794
      8 C           2.8843   -0.4324   23.8845 C.ar    1  UNL1        0.0145
      9 C           2.3250    0.2904   25.0739 C.ar    1  UNL1       -0.0204
     10 C           1.1447    1.2017   24.9109 C.3     1  UNL1        0.0311
     11 C           4.0320    2.7908   27.1946 C.3     1  UNL1        0.0310
     12 C           2.9296    2.1691   27.9999 C.ar    1  UNL1       -0.0219
     13 C           2.3703    2.8919   29.1893 C.ar    1  UNL1       -0.0004
     14 C           1.2680    2.2702   29.9945 C.ar    1  UNL1        0.0711
     15 C           0.7249    0.9258   29.6103 C.ar    1  UNL1        0.0038
     16 C           1.2842    0.2030   28.4209 C.ar    1  UNL1       -0.0004
     17 C           2.3866    0.8247   27.6157 C.ar    1  UNL1       -0.0043
     18 C           0.7087    2.9931   31.1839 C.3     1  UNL1        0.4186
     19 F           0.1494    3.7160   32.3733 F       1  UNL1       -0.1659
     20 F           0.4244    4.1885   30.3238 F       1  UNL1       -0.1659
     21 F           0.9930    1.7976   32.0442 F       1  UNL1       -0.1659
     22 C           4.5477   -2.2950   21.5965 C.3     1  UNL1        0.1273
     23 C           3.8705   -1.1684   20.8739 C.ar    1  UNL1       -0.0001
     24 C           2.3998   -1.2377   20.5872 C.ar    1  UNL1       -0.0023
     25 C           1.7226   -0.1111   19.8646 C.ar    1  UNL1        0.0042
     26 C           2.5161    1.0849   19.4287 C.ar    1  UNL1        0.0533
     27 C           3.9868    1.1542   19.7153 C.ar    1  UNL1        0.0042
     28 C           4.6640    0.0276   20.4379 C.ar    1  UNL1       -0.0023
     29 C           1.8390    2.2115   18.7061 C.2     1  UNL1        0.2459
     30 O           2.6387    3.3917   18.2398 O.2     1  UNL1       -0.2701
     31 N           0.3620    2.1579   18.4498 N.am    1  UNL1       -0.3005
     32 H          -0.1630    1.3833   18.7558 H       1  UNL1        0.1498
     33 C          -0.3152    3.2845   17.7272 C.3     1  UNL1        0.0956
     34 C          -1.3880    4.0779   18.4125 C.3     1  UNL1        0.0629
     35 C          -1.5985    3.9343   19.8907 C.2     1  UNL1        0.0520
     36 O          -1.8748    2.5833   20.4812 O.co2   1  UNL1       -0.5491
     37 O          -1.5327    5.1416   20.7785 O.co2   1  UNL1       -0.5491
     38 C           4.9447   -3.5339   20.8498 C.3     1  UNL1        0.0289
     39 C           4.4959   -3.7313   19.4322 C.3     1  UNL1        0.0023
     40 C           3.2328   -4.4870   19.1437 C.3     1  UNL1        0.0001
     41 C           5.3103   -3.1729   18.3030 C.3     1  UNL1        0.0001
@<TRIPOS>UNITY_ATOM_ATTR
36 1
charge -1
@<TRIPOS>BOND
     1    11    12    1
     2    12    13   ar
     3    13    14   ar
     4    14    18    1
     5    18    19    1
     6    18    20    1
     7    18    21    1
     8    14    15   ar
     9    15    16   ar
    10    16    17   ar
    11    17     1    1
    12     1     2   ar
    13     2     3   ar
    14     3     4   ar
    15     4     5   ar
    16     5     6   ar
    17     6    22    1
    18    22    38    1
    19    38    39    1
    20    39    40    1
    21    39    41    1
    22    22    23    1
    23    23    24   ar
    24    24    25   ar
    25    25    26   ar
    26    26    29    1
    27    29    30    2
    28    29    31   am
    29    31    33    1
    30    33    34    1
    31    34    35    1
    32    35    36   ar
    33    35    37   ar
    34    26    27   ar
    35    27    28   ar
    36     6     7   ar
    37     7     8   ar
    38     8     9   ar
    39     9    10    1
    40    17    12   ar
    41     9     1   ar
    42     7     3   ar
    43    28    23   ar
    44    31    32    1
@<TRIPOS>MOLECULE
*****
 41 44 0 0 0
SMALL
GASTEIGER

@<TRIPOS>ATOM
      1 C           2.0636    0.6823   22.2356 C.ar    1  UNL1       -0.0041
      2 C           1.0606    1.6615   21.7013 C.ar    1  UNL1        0.0028
      3 C           0.0865    2.3206   22.6323 C.ar    1  UNL1        0.0382
      4 C          -1.0080    3.3190   22.3973 C.ar    1  UNL1        0.1216
      5 N          -1.6555    3.6161   23.7173 N.ar    1  UNL1       -0.1675
      6 N          -0.9613    2.8012   24.7681 N.ar    1  UNL1       -0.2487
      7 C           0.1153    2.0005   24.0975 C.ar    1  UNL1        0.0794
      8 C           1.1183    1.0214   24.6317 C.ar    1  UNL1        0.0145
      9 C           2.0924    0.3623   23.7007 C.ar    1  UNL1       -0.0204
     10 C           3.0953   -0.6169   24.2350 C.3     1  UNL1        0.0311
     11 C           4.7412    1.9378   21.7316 C.3     1  UNL1        0.0310
     12 C           4.3765    0.6509   21.0526 C.ar    1  UNL1       -0.0219
     13 C           5.3506   -0.0082   20.1217 C.ar    1  UNL1       -0.0004
     14 C           4.9859   -1.2951   19.4427 C.ar    1  UNL1        0.0711
     15 C           3.6471   -1.9228   19.6947 C.ar    1  UNL1        0.0038
     16 C           2.6730   -1.2637   20.6257 C.ar    1  UNL1       -0.0004
     17 C           3.0377    0.0232   21.3046 C.ar    1  UNL1       -0.0043
     18 C           5.9601   -1.9541   18.5118 C.3     1  UNL1        0.4186
     19 F           6.9343   -2.6131   17.5809 F       1  UNL1       -0.1659
     20 F           7.0887   -1.2207   19.1736 F       1  UNL1       -0.1659
     21 F           4.8314   -2.6876   17.8499 F       1  UNL1       -0.1659
     22 C          -1.2867    2.7892   26.2323 C.3     1  UNL1        0.1273
     23 C          -0.3419    2.1482   27.2052 C.ar    1  UNL1       -0.0001
     24 C          -0.6025    0.7553   27.6970 C.ar    1  UNL1       -0.0023
     25 C           0.3422    0.1143   28.6699 C.ar    1  UNL1        0.0042
     26 C           1.5477    0.8664   29.1511 C.ar    1  UNL1        0.0533
     27 C           1.8083    2.2592   28.6594 C.ar    1  UNL1        0.0042
     28 C           0.8635    2.9003   27.6865 C.ar    1  UNL1       -0.0023
     29 C           2.4924    0.2254   30.1240 C.2     1  UNL1        0.2459
     30 O           2.0242   -0.9069   30.9891 O.2     1  UNL1       -0.2701
     31 N           3.9056    0.7169   30.2319 N.am    1  UNL1       -0.3005
     32 H           4.2129    1.4601   29.6642 H       1  UNL1        0.1498
     33 C           4.8503    0.0760   31.2048 C.3     1  UNL1        0.0956
     34 C           5.2919   -1.3425   30.9979 C.3     1  UNL1        0.0629
     35 C           5.2312   -2.3203   32.1337 C.2     1  UNL1        0.0520
     36 O           6.3809   -3.2503   32.3850 O.co2   1  UNL1       -0.5491
     37 O           4.0207   -2.3680   33.0183 O.co2   1  UNL1       -0.5491
     38 C          -2.5568    3.4180   26.7236 C.3     1  UNL1        0.0289
     39 C          -2.6498    4.9084   26.8650 C.3     1  UNL1        0.0023
     40 C          -1.4005    5.7299   26.9844 C.3     1  UNL1        0.0001
     41 C          -3.9923    5.5774   26.8870 C.3     1  UNL1        0.0001
@<TRIPOS>UNITY_ATOM_ATTR
36 1
charge -1
@<TRIPOS>BOND
     1    11    12    1
     2    12    13   ar
     3    13    14   ar
     4    14    18    1
     5    18    19    1
     6    18    20    1
     7    18    21    1
     8    14    15   ar
     9    15    16   ar
    10    16    17   ar
    11    17     1    1
    12     1     2   ar
    13     2     3   ar
    14     3     4   ar
    15     4     5   ar
    16     5     6   ar
    17     6    22    1
    18    22    38    1
    19    38    39    1
    20    39    40    1
    21    39    41    1
    22    22    23    1
    23    23    24   ar
    24    24    25   ar
    25    25    26   ar
    26    26    29    1
    27    29    30    2
    28    29    31   am
    29    31    33    1
    30    33    34    1
    31    34    35    1
    32    35    36   ar
    33    35    37   ar
    34    26    27   ar
    35    27    28   ar
    36     6     7   ar
    37     7     8   ar
    38     8     9   ar
    39     9    10    1
    40    17    12   ar
    41     9     1   ar
    42     7     3   ar
    43    28    23   ar
    44    31    32    1
