@<TRIPOS>MOLECULE
*****
 37 39 0 0 0
SMALL
GASTEIGER

@<TRIPOS>ATOM
      1 C           0.4313    5.0917   24.4263 C.3     1  UNL1        0.0216
      2 C          -0.1827    3.8124   23.9402 C.3     1  UNL1        0.0760
      3 N           0.0941    3.3294   22.5473 N.am    1  UNL1       -0.3028
      4 C           1.3619    2.5850   22.2497 C.2     1  UNL1        0.2587
      5 O           2.3528    2.3234   23.3449 O.2     1  UNL1       -0.2714
      6 H          -0.5563    3.5011   21.8285 H       1  UNL1        0.1495
      7 C           1.6386    2.1020   20.8567 C.3     1  UNL1        0.2022
      8 C           0.1794    1.8107   20.6679 C.3     1  UNL1        0.0532
      9 C           3.0978    2.3934   21.0456 C.3     1  UNL1        0.0532
     10 O           1.9153    1.6191   19.4638 O.3     1  UNL1       -0.4586
     11 C           2.5190    0.2633   19.2461 C.ar    1  UNL1        0.2251
     12 C           2.2921   -0.8286   20.2493 C.ar    1  UNL1        0.0577
     13 C           2.8958   -2.1844   20.0315 C.ar    1  UNL1        0.0102
     14 C           3.7264   -2.4482   18.8107 C.ar    1  UNL1        0.0907
     15 C           3.9533   -1.3564   17.8076 C.ar    1  UNL1        0.1059
     16 N           3.3496   -0.0006   18.0253 N.ar    1  UNL1       -0.2102
     17 C           4.3302   -3.8041   18.5930 C.3     1  UNL1        0.4200
     18 F           4.9338   -5.1598   18.3753 F       1  UNL1       -0.1658
     19 F           5.5676   -3.1639   18.0373 F       1  UNL1       -0.1658
     20 F           3.0927   -4.4442   19.1487 F       1  UNL1       -0.1658
     21 C          -1.0734    3.0160   24.8470 C.3     1  UNL1        0.0446
     22 C          -2.4939    3.4441   25.0683 C.ar    1  UNL1       -0.0199
     23 C          -2.9797    3.7424   26.4558 C.ar    1  UNL1       -0.0042
     24 C          -4.4001    4.1705   26.6772 C.ar    1  UNL1        0.0004
     25 C          -5.3347    4.3004   25.5112 C.ar    1  UNL1        0.0103
     26 C          -4.8489    4.0022   24.1237 C.ar    1  UNL1        0.0681
     27 C          -3.4285    3.5740   23.9023 C.ar    1  UNL1        0.0061
     28 C          -5.7835    4.1321   22.9577 C.1     1  UNL1        0.1004
     29 N          -6.7181    4.2619   21.7917 N.1     1  UNL1       -0.1908
     30 C          -0.5437    1.7914   25.5324 C.3     1  UNL1        0.0323
     31 C          -0.2135    1.8342   26.9950 C.ar    1  UNL1       -0.0218
     32 C          -0.6269    0.7042   27.8906 C.ar    1  UNL1       -0.0034
     33 C          -0.2967    0.7470   29.3531 C.ar    1  UNL1        0.0111
     34 C           0.4470    1.9198   29.9201 C.ar    1  UNL1        0.0577
     35 CL          0.7773    1.9626   31.3827 Cl      1  UNL1       -0.0822
     36 C           0.8604    3.0498   29.0245 C.ar    1  UNL1        0.0111
     37 C           0.5302    3.0070   27.5619 C.ar    1  UNL1       -0.0034
@<TRIPOS>BOND
     1     2     1    1
     2     2     3    1
     3     3     4   am
     4     4     5    2
     5     4     7    1
     6     7     8    1
     7     7     9    1
     8     7    10    1
     9    10    11    1
    10    11    12   ar
    11    12    13   ar
    12    13    14   ar
    13    14    17    1
    14    17    18    1
    15    17    19    1
    16    17    20    1
    17    14    15   ar
    18    15    16   ar
    19     2    21    1
    20    21    30    1
    21    30    31    1
    22    31    32   ar
    23    32    33   ar
    24    33    34   ar
    25    34    35    1
    26    34    36   ar
    27    36    37   ar
    28    21    22    1
    29    22    23   ar
    30    23    24   ar
    31    24    25   ar
    32    25    26   ar
    33    26    28    1
    34    28    29    3
    35    26    27   ar
    36    16    11   ar
    37    37    31   ar
    38    27    22   ar
    39     3     6    1
@<TRIPOS>MOLECULE
*****
 37 39 0 0 0
SMALL
GASTEIGER

@<TRIPOS>ATOM
      1 C           4.0993   -1.1654   22.8690 C.3     1  UNL1        0.0216
      2 C           2.7945   -0.6471   22.3409 C.3     1  UNL1        0.0760
      3 N           1.9021    0.1752   23.2226 N.am    1  UNL1       -0.3028
      4 C           2.0627    1.6658   23.2709 C.2     1  UNL1        0.2587
      5 O           3.1157    2.3341   22.4375 O.2     1  UNL1       -0.2714
      6 H           1.2110   -0.2634   23.7696 H       1  UNL1        0.1495
      7 C           1.1703    2.4882   24.1526 C.3     1  UNL1        0.2022
      8 C           0.4799    1.2403   24.6175 C.3     1  UNL1        0.0532
      9 C           1.8607    3.7360   23.6877 C.3     1  UNL1        0.0532
     10 O           0.2779    3.3104   25.0343 O.3     1  UNL1       -0.4586
     11 C          -1.1794    3.4486   24.7065 C.ar    1  UNL1        0.2251
     12 C          -1.6109    3.6729   23.2876 C.ar    1  UNL1        0.0577
     13 C          -3.0681    3.8111   22.9598 C.ar    1  UNL1        0.0102
     14 C          -4.0938    3.7248   24.0510 C.ar    1  UNL1        0.0907
     15 C          -3.6622    3.5004   25.4699 C.ar    1  UNL1        0.1059
     16 N          -2.2050    3.3623   25.7976 N.ar    1  UNL1       -0.2102
     17 C          -5.5510    3.8630   23.7232 C.3     1  UNL1        0.4200
     18 F          -7.0082    4.0011   23.3953 F       1  UNL1       -0.1658
     19 F          -5.8740    3.9289   25.1864 F       1  UNL1       -0.1658
     20 F          -5.2280    3.7971   22.2599 F       1  UNL1       -0.1658
     21 C           2.3821   -0.9511   20.9312 C.3     1  UNL1        0.0446
     22 C           3.3706   -1.5456   19.9722 C.ar    1  UNL1       -0.0199
     23 C           3.4498   -3.0339   19.8034 C.ar    1  UNL1       -0.0042
     24 C           4.4382   -3.6284   18.8444 C.ar    1  UNL1        0.0004
     25 C           5.3473   -2.7345   18.0543 C.ar    1  UNL1        0.0103
     26 C           5.2681   -1.2462   18.2230 C.ar    1  UNL1        0.0681
     27 C           4.2797   -0.6517   19.1820 C.ar    1  UNL1        0.0061
     28 C           6.1773   -0.3523   17.4328 C.1     1  UNL1        0.1004
     29 N           7.0864    0.5416   16.6427 N.1     1  UNL1       -0.1908
     30 C           0.9812   -0.6606   20.4803 C.3     1  UNL1        0.0323
     31 C           0.6443    0.6787   19.8948 C.ar    1  UNL1       -0.0218
     32 C          -0.2510    1.6208   20.6437 C.ar    1  UNL1       -0.0034
     33 C          -0.5880    2.9601   20.0583 C.ar    1  UNL1        0.0111
     34 C          -0.0296    3.3572   18.7239 C.ar    1  UNL1        0.0577
     35 CL         -0.3666    4.6965   18.1384 Cl      1  UNL1       -0.0822
     36 C           0.8657    2.4151   17.9750 C.ar    1  UNL1        0.0111
     37 C           1.2026    1.0758   18.5605 C.ar    1  UNL1       -0.0034
@<TRIPOS>BOND
     1     2     1    1
     2     2     3    1
     3     3     4   am
     4     4     5    2
     5     4     7    1
     6     7     8    1
     7     7     9    1
     8     7    10    1
     9    10    11    1
    10    11    12   ar
    11    12    13   ar
    12    13    14   ar
    13    14    17    1
    14    17    18    1
    15    17    19    1
    16    17    20    1
    17    14    15   ar
    18    15    16   ar
    19     2    21    1
    20    21    30    1
    21    30    31    1
    22    31    32   ar
    23    32    33   ar
    24    33    34   ar
    25    34    35    1
    26    34    36   ar
    27    36    37   ar
    28    21    22    1
    29    22    23   ar
    30    23    24   ar
    31    24    25   ar
    32    25    26   ar
    33    26    28    1
    34    28    29    3
    35    26    27   ar
    36    16    11   ar
    37    37    31   ar
    38    27    22   ar
    39     3     6    1
@<TRIPOS>MOLECULE
*****
 37 39 0 0 0
SMALL
GASTEIGER

@<TRIPOS>ATOM
      1 C           3.3647   -4.5363   19.2469 C.3     1  UNL1        0.0216
      2 C           3.9203   -3.2970   19.8837 C.3     1  UNL1        0.0760
      3 N           4.8881   -3.4092   21.0242 N.am    1  UNL1       -0.3028
      4 C           6.3620   -3.2922   20.7713 C.2     1  UNL1        0.2587
      5 O           6.8681   -3.0629   19.3781 O.2     1  UNL1       -0.2714
      6 H           4.5560   -3.5597   21.9387 H       1  UNL1        0.1495
      7 C           7.3298   -3.4044   21.9119 C.3     1  UNL1        0.2022
      8 C           6.2504   -2.9922   22.8684 C.3     1  UNL1        0.0532
      9 C           8.4093   -3.8166   20.9554 C.3     1  UNL1        0.0532
     10 O           8.2976   -3.5166   23.0524 O.3     1  UNL1       -0.4586
     11 C           8.2197   -4.6849   23.9900 C.ar    1  UNL1        0.2251
     12 C           8.3180   -4.4662   25.4706 C.ar    1  UNL1        0.0577
     13 C           8.2401   -5.6345   26.4081 C.ar    1  UNL1        0.0102
     14 C           8.0640   -7.0215   25.8649 C.ar    1  UNL1        0.0907
     15 C           7.9657   -7.2403   24.3843 C.ar    1  UNL1        0.1059
     16 N           8.0436   -6.0720   23.4468 N.ar    1  UNL1       -0.2102
     17 C           7.9861   -8.1899   26.8025 C.3     1  UNL1        0.4200
     18 F           7.9083   -9.3582   27.7401 F       1  UNL1       -0.1658
     19 F           6.6315   -8.5358   26.2591 F       1  UNL1       -0.1658
     20 F           9.3407   -7.8440   27.3460 F       1  UNL1       -0.1658
     21 C           3.5080   -1.9456   19.3801 C.3     1  UNL1        0.0446
     22 C           2.6930   -1.0369   20.2519 C.ar    1  UNL1       -0.0199
     23 C           1.2805   -0.7027   19.8735 C.ar    1  UNL1       -0.0042
     24 C           0.4655    0.2060   20.7452 C.ar    1  UNL1        0.0004
     25 C           1.0629    0.7804   21.9954 C.ar    1  UNL1        0.0103
     26 C           2.4753    0.4462   22.3739 C.ar    1  UNL1        0.0681
     27 C           3.2904   -0.4624   21.5021 C.ar    1  UNL1        0.0061
     28 C           3.0727    1.0207   23.6242 C.1     1  UNL1        0.1004
     29 N           3.6701    1.5953   24.8744 N.1     1  UNL1       -0.1908
     30 C           3.9108   -1.5028   18.0048 C.3     1  UNL1        0.0323
     31 C           4.7516   -0.2731   17.8290 C.ar    1  UNL1       -0.0218
     32 C           4.1588    1.0824   18.0764 C.ar    1  UNL1       -0.0034
     33 C           4.9996    2.3122   17.9006 C.ar    1  UNL1        0.0111
     34 C           6.4331    2.1864   17.4774 C.ar    1  UNL1        0.0577
     35 CL          7.2739    3.4161   17.3016 Cl      1  UNL1       -0.0822
     36 C           7.0259    0.8309   17.2300 C.ar    1  UNL1        0.0111
     37 C           6.1852   -0.3988   17.4058 C.ar    1  UNL1       -0.0034
@<TRIPOS>BOND
     1     2     1    1
     2     2     3    1
     3     3     4   am
     4     4     5    2
     5     4     7    1
     6     7     8    1
     7     7     9    1
     8     7    10    1
     9    10    11    1
    10    11    12   ar
    11    12    13   ar
    12    13    14   ar
    13    14    17    1
    14    17    18    1
    15    17    19    1
    16    17    20    1
    17    14    15   ar
    18    15    16   ar
    19     2    21    1
    20    21    30    1
    21    30    31    1
    22    31    32   ar
    23    32    33   ar
    24    33    34   ar
    25    34    35    1
    26    34    36   ar
    27    36    37   ar
    28    21    22    1
    29    22    23   ar
    30    23    24   ar
    31    24    25   ar
    32    25    26   ar
    33    26    28    1
    34    28    29    3
    35    26    27   ar
    36    16    11   ar
    37    37    31   ar
    38    27    22   ar
    39     3     6    1
@<TRIPOS>MOLECULE
*****
 37 39 0 0 0
SMALL
GASTEIGER

@<TRIPOS>ATOM
      1 C           4.1210   -4.6790   19.6698 C.3     1  UNL1        0.0216
      2 C           4.5097   -3.5957   20.6318 C.3     1  UNL1        0.0760
      3 N           5.4999   -3.8806   21.7219 N.am    1  UNL1       -0.3028
      4 C           6.9595   -3.6183   21.4967 C.2     1  UNL1        0.2587
      5 O           7.4290   -3.0712   20.1813 O.2     1  UNL1       -0.2714
      6 H           5.1917   -4.2397   22.5852 H       1  UNL1        0.1495
      7 C           7.9496   -3.9033   22.5869 C.3     1  UNL1        0.2022
      8 C           7.4316   -2.7296   23.3641 C.3     1  UNL1        0.0532
      9 C           8.4677   -5.0769   21.8097 C.3     1  UNL1        0.0532
     10 O           8.9397   -4.1881   23.6771 O.3     1  UNL1       -0.4586
     11 C           8.4590   -4.5342   25.0552 C.ar    1  UNL1        0.2251
     12 C           7.4453   -5.6235   25.2444 C.ar    1  UNL1        0.0577
     13 C           6.9646   -5.9695   26.6225 C.ar    1  UNL1        0.0102
     14 C           7.4976   -5.2263   27.8114 C.ar    1  UNL1        0.0907
     15 C           8.5113   -4.1370   27.6222 C.ar    1  UNL1        0.1059
     16 N           8.9920   -3.7910   26.2441 N.ar    1  UNL1       -0.2102
     17 C           7.0169   -5.5724   29.1895 C.3     1  UNL1        0.4200
     18 F           6.5362   -5.9185   30.5676 F       1  UNL1       -0.1658
     19 F           6.3216   -4.2464   29.2800 F       1  UNL1       -0.1658
     20 F           7.7122   -6.8984   29.0990 F       1  UNL1       -0.1658
     21 C           3.9083   -2.2276   20.5037 C.3     1  UNL1        0.0446
     22 C           4.3055   -1.1412   21.4588 C.ar    1  UNL1       -0.0199
     23 C           5.3623   -0.1502   21.0701 C.ar    1  UNL1       -0.0042
     24 C           5.7595    0.9361   22.0251 C.ar    1  UNL1        0.0004
     25 C           5.0999    1.0314   23.3689 C.ar    1  UNL1        0.0103
     26 C           4.0430    0.0404   23.7576 C.ar    1  UNL1        0.0681
     27 C           3.6459   -1.0459   22.8026 C.ar    1  UNL1        0.0061
     28 C           3.3834    0.1357   25.1015 C.1     1  UNL1        0.1004
     29 N           2.7238    0.2311   26.4453 N.1     1  UNL1       -0.1908
     30 C           2.9098   -1.9457   19.4204 C.3     1  UNL1        0.0323
     31 C           2.1298   -0.6644   19.4343 C.ar    1  UNL1       -0.0218
     32 C           0.9503   -0.5143   20.3487 C.ar    1  UNL1       -0.0034
     33 C           0.1704    0.7669   20.3626 C.ar    1  UNL1        0.0111
     34 C           0.5700    1.8980   19.4621 C.ar    1  UNL1        0.0577
     35 CL         -0.2100    3.1792   19.4759 Cl      1  UNL1       -0.0822
     36 C           1.7495    1.7478   18.5476 C.ar    1  UNL1        0.0111
     37 C           2.5294    0.4666   18.5337 C.ar    1  UNL1       -0.0034
@<TRIPOS>BOND
     1     2     1    1
     2     2     3    1
     3     3     4   am
     4     4     5    2
     5     4     7    1
     6     7     8    1
     7     7     9    1
     8     7    10    1
     9    10    11    1
    10    11    12   ar
    11    12    13   ar
    12    13    14   ar
    13    14    17    1
    14    17    18    1
    15    17    19    1
    16    17    20    1
    17    14    15   ar
    18    15    16   ar
    19     2    21    1
    20    21    30    1
    21    30    31    1
    22    31    32   ar
    23    32    33   ar
    24    33    34   ar
    25    34    35    1
    26    34    36   ar
    27    36    37   ar
    28    21    22    1
    29    22    23   ar
    30    23    24   ar
    31    24    25   ar
    32    25    26   ar
    33    26    28    1
    34    28    29    3
    35    26    27   ar
    36    16    11   ar
    37    37    31   ar
    38    27    22   ar
    39     3     6    1
@<TRIPOS>MOLECULE
*****
 37 39 0 0 0
SMALL
GASTEIGER

@<TRIPOS>ATOM
      1 C           0.7870    0.5425   19.6503 C.3     1  UNL1        0.0216
      2 C           2.0567   -0.0622   20.1722 C.3     1  UNL1        0.0760
      3 N           2.3005   -0.1349   21.6504 N.am    1  UNL1       -0.3028
      4 C           3.1260    0.9190   22.3271 C.2     1  UNL1        0.2587
      5 O           3.7077    2.0455   21.5256 O.2     1  UNL1       -0.2714
      6 H           1.9187   -0.8743   22.1765 H       1  UNL1        0.1495
      7 C           3.3698    0.8462   23.8054 C.3     1  UNL1        0.2022
      8 C           3.1266   -0.6335   23.7727 C.3     1  UNL1        0.0532
      9 C           3.6130    2.3260   23.8382 C.3     1  UNL1        0.0532
     10 O           3.6136    0.7735   25.2836 O.3     1  UNL1       -0.4586
     11 C           2.4553    0.6614   26.2302 C.ar    1  UNL1        0.2251
     12 C           1.1377    1.2872   25.8806 C.ar    1  UNL1        0.0577
     13 C          -0.0204    1.1751   26.8271 C.ar    1  UNL1        0.0102
     14 C           0.1390    0.4372   28.1233 C.ar    1  UNL1        0.0907
     15 C           1.4566   -0.1886   28.4730 C.ar    1  UNL1        0.1059
     16 N           2.6147   -0.0765   27.5264 N.ar    1  UNL1       -0.2102
     17 C          -1.0193    0.3251   29.0699 C.3     1  UNL1        0.4200
     18 F          -2.1775    0.2130   30.0164 F       1  UNL1       -0.1658
     19 F          -1.5555   -0.8299   28.2771 F       1  UNL1       -0.1658
     20 F          -0.4831    1.4800   29.8627 F       1  UNL1       -0.1658
     21 C           3.0825   -0.5942   19.2158 C.3     1  UNL1        0.0446
     22 C           3.9166   -1.7820   19.5949 C.ar    1  UNL1       -0.0199
     23 C           3.4056   -3.1691   19.3406 C.ar    1  UNL1       -0.0042
     24 C           4.2396   -4.3568   19.7196 C.ar    1  UNL1        0.0004
     25 C           5.5846   -4.1574   20.3529 C.ar    1  UNL1        0.0103
     26 C           6.0956   -2.7702   20.6071 C.ar    1  UNL1        0.0681
     27 C           5.2616   -1.5825   20.2281 C.ar    1  UNL1        0.0061
     28 C           7.4408   -2.5708   21.2404 C.1     1  UNL1        0.1004
     29 N           8.7858   -2.3715   21.8736 N.1     1  UNL1       -0.1908
     30 C           3.2743    0.0615   17.8804 C.3     1  UNL1        0.0323
     31 C           4.5294    0.8323   17.5967 C.ar    1  UNL1       -0.0218
     32 C           5.6515    0.1860   16.8395 C.ar    1  UNL1       -0.0034
     33 C           6.9066    0.9567   16.5558 C.ar    1  UNL1        0.0111
     34 C           7.0397    2.3738   17.0293 C.ar    1  UNL1        0.0577
     35 CL          8.2949    3.1446   16.7456 Cl      1  UNL1       -0.0822
     36 C           5.9177    3.0201   17.7865 C.ar    1  UNL1        0.0111
     37 C           4.6626    2.2493   18.0702 C.ar    1  UNL1       -0.0034
@<TRIPOS>BOND
     1     2     1    1
     2     2     3    1
     3     3     4   am
     4     4     5    2
     5     4     7    1
     6     7     8    1
     7     7     9    1
     8     7    10    1
     9    10    11    1
    10    11    12   ar
    11    12    13   ar
    12    13    14   ar
    13    14    17    1
    14    17    18    1
    15    17    19    1
    16    17    20    1
    17    14    15   ar
    18    15    16   ar
    19     2    21    1
    20    21    30    1
    21    30    31    1
    22    31    32   ar
    23    32    33   ar
    24    33    34   ar
    25    34    35    1
    26    34    36   ar
    27    36    37   ar
    28    21    22    1
    29    22    23   ar
    30    23    24   ar
    31    24    25   ar
    32    25    26   ar
    33    26    28    1
    34    28    29    3
    35    26    27   ar
    36    16    11   ar
    37    37    31   ar
    38    27    22   ar
    39     3     6    1
@<TRIPOS>MOLECULE
*****
 37 39 0 0 0
SMALL
GASTEIGER

@<TRIPOS>ATOM
      1 C           9.0349   -0.7293   22.6317 C.3     1  UNL1        0.0216
      2 C           7.6709   -1.1642   22.1839 C.3     1  UNL1        0.0760
      3 N           6.5065   -0.2269   22.3083 N.am    1  UNL1       -0.3028
      4 C           5.4710   -0.4540   23.3695 C.2     1  UNL1        0.2587
      5 O           5.5999   -1.6184   24.3063 O.2     1  UNL1       -0.2714
      6 H           6.4218    0.5373   21.6934 H       1  UNL1        0.1495
      7 C           4.3064    0.4833   23.4939 C.3     1  UNL1        0.2022
      8 C           3.3813   -0.6057   23.0377 C.3     1  UNL1        0.0532
      9 C           5.2316    1.5723   23.9500 C.3     1  UNL1        0.0532
     10 O           3.1419    1.4205   23.6182 O.3     1  UNL1       -0.4586
     11 C           2.1564    1.2481   24.7359 C.ar    1  UNL1        0.2251
     12 C           0.6863    1.3721   24.4653 C.ar    1  UNL1        0.0577
     13 C          -0.2992    1.1997   25.5829 C.ar    1  UNL1        0.0102
     14 C           0.1855    0.9032   26.9711 C.ar    1  UNL1        0.0907
     15 C           1.6556    0.7792   27.2417 C.ar    1  UNL1        0.1059
     16 N           2.6411    0.9516   26.1241 N.ar    1  UNL1       -0.2102
     17 C          -0.8000    0.7308   28.0888 C.3     1  UNL1        0.4200
     18 F          -1.7855    0.5583   29.2064 F       1  UNL1       -0.1658
     19 F          -1.5492    1.9408   27.6149 F       1  UNL1       -0.1658
     20 F          -0.0508   -0.4792   28.5627 F       1  UNL1       -0.1658
     21 C           7.4715   -2.5363   21.6116 C.3     1  UNL1        0.0446
     22 C           6.2081   -2.8643   20.8725 C.ar    1  UNL1       -0.0199
     23 C           5.2904   -3.9309   21.3923 C.ar    1  UNL1       -0.0042
     24 C           4.0270   -4.2589   20.6532 C.ar    1  UNL1        0.0004
     25 C           3.6814   -3.5203   19.3943 C.ar    1  UNL1        0.0103
     26 C           4.5991   -2.4537   18.8744 C.ar    1  UNL1        0.0681
     27 C           5.8624   -2.1257   19.6135 C.ar    1  UNL1        0.0061
     28 C           4.2533   -1.7151   17.6154 C.1     1  UNL1        0.1004
     29 N           3.9077   -0.9766   16.3565 N.1     1  UNL1       -0.1908
     30 C           8.5354   -3.5804   21.7785 C.3     1  UNL1        0.0323
     31 C           8.3599   -4.6752   22.7889 C.ar    1  UNL1       -0.0218
     32 C           7.6877   -4.3865   24.0984 C.ar    1  UNL1       -0.0034
     33 C           7.5122   -5.4811   25.1088 C.ar    1  UNL1        0.0111
     34 C           8.0088   -6.8645   24.8096 C.ar    1  UNL1        0.0577
     35 CL          7.8333   -7.9593   25.8200 Cl      1  UNL1       -0.0822
     36 C           8.6810   -7.1533   23.5000 C.ar    1  UNL1        0.0111
     37 C           8.8565   -6.0586   22.4897 C.ar    1  UNL1       -0.0034
@<TRIPOS>BOND
     1     2     1    1
     2     2     3    1
     3     3     4   am
     4     4     5    2
     5     4     7    1
     6     7     8    1
     7     7     9    1
     8     7    10    1
     9    10    11    1
    10    11    12   ar
    11    12    13   ar
    12    13    14   ar
    13    14    17    1
    14    17    18    1
    15    17    19    1
    16    17    20    1
    17    14    15   ar
    18    15    16   ar
    19     2    21    1
    20    21    30    1
    21    30    31    1
    22    31    32   ar
    23    32    33   ar
    24    33    34   ar
    25    34    35    1
    26    34    36   ar
    27    36    37   ar
    28    21    22    1
    29    22    23   ar
    30    23    24   ar
    31    24    25   ar
    32    25    26   ar
    33    26    28    1
    34    28    29    3
    35    26    27   ar
    36    16    11   ar
    37    37    31   ar
    38    27    22   ar
    39     3     6    1
@<TRIPOS>MOLECULE
*****
 37 39 0 0 0
SMALL
GASTEIGER

@<TRIPOS>ATOM
      1 C           2.8926   -0.5223   22.5354 C.3     1  UNL1        0.0216
      2 C           2.7049    0.2601   21.2695 C.3     1  UNL1        0.0760
      3 N           1.9466    1.5541   21.2930 N.am    1  UNL1       -0.3028
      4 C           0.4847    1.5728   20.9575 C.2     1  UNL1        0.2587
      5 O          -0.2188    0.2976   20.5984 O.2     1  UNL1       -0.2714
      6 H           2.4083    2.3910   21.5287 H       1  UNL1        0.1495
      7 C          -0.2737    2.8668   20.9810 C.3     1  UNL1        0.2022
      8 C          -0.3975    2.8214   19.4869 C.3     1  UNL1        0.0532
      9 C          -0.1499    2.9122   22.4752 C.3     1  UNL1        0.0532
     10 O          -1.0320    4.1607   21.0045 O.3     1  UNL1       -0.4586
     11 C          -2.4601    4.1849   21.4631 C.ar    1  UNL1        0.2251
     12 C          -3.0189    5.4167   22.1114 C.ar    1  UNL1        0.0577
     13 C          -4.4468    5.4409   22.5699 C.ar    1  UNL1        0.0102
     14 C          -5.3161    4.2332   22.3800 C.ar    1  UNL1        0.0907
     15 C          -4.7573    3.0014   21.7316 C.ar    1  UNL1        0.1059
     16 N          -3.3293    2.9773   21.2732 N.ar    1  UNL1       -0.2102
     17 C          -6.7441    4.2574   22.8385 C.3     1  UNL1        0.4200
     18 F          -8.1721    4.2816   23.2970 F       1  UNL1       -0.1658
     19 F          -6.3157    3.7894   24.1977 F       1  UNL1       -0.1658
     20 F          -7.1725    4.7254   21.4794 F       1  UNL1       -0.1658
     21 C           3.2756   -0.2513   19.9800 C.3     1  UNL1        0.0446
     22 C           3.9764   -1.5771   19.9435 C.ar    1  UNL1       -0.0199
     23 C           3.2229   -2.8130   19.5501 C.ar    1  UNL1       -0.0042
     24 C           3.9236   -4.1388   19.5136 C.ar    1  UNL1        0.0004
     25 C           5.3777   -4.2286   19.8705 C.ar    1  UNL1        0.0103
     26 C           6.1312   -2.9927   20.2640 C.ar    1  UNL1        0.0681
     27 C           5.4305   -1.6669   20.3005 C.ar    1  UNL1        0.0061
     28 C           7.5853   -3.0825   20.6209 C.1     1  UNL1        0.1004
     29 N           9.0394   -3.1724   20.9779 N.1     1  UNL1       -0.1908
     30 C           3.1456    0.5630   18.7270 C.3     1  UNL1        0.0323
     31 C           4.3732    1.0846   18.0408 C.ar    1  UNL1       -0.0218
     32 C           4.7963    2.5097   18.2414 C.ar    1  UNL1       -0.0034
     33 C           6.0238    3.0313   17.5552 C.ar    1  UNL1        0.0111
     34 C           6.8283    2.1279   16.6683 C.ar    1  UNL1        0.0577
     35 CL          8.0560    2.6495   15.9821 Cl      1  UNL1       -0.0822
     36 C           6.4053    0.7028   16.4677 C.ar    1  UNL1        0.0111
     37 C           5.1777    0.1812   17.1539 C.ar    1  UNL1       -0.0034
@<TRIPOS>BOND
     1     2     1    1
     2     2     3    1
     3     3     4   am
     4     4     5    2
     5     4     7    1
     6     7     8    1
     7     7     9    1
     8     7    10    1
     9    10    11    1
    10    11    12   ar
    11    12    13   ar
    12    13    14   ar
    13    14    17    1
    14    17    18    1
    15    17    19    1
    16    17    20    1
    17    14    15   ar
    18    15    16   ar
    19     2    21    1
    20    21    30    1
    21    30    31    1
    22    31    32   ar
    23    32    33   ar
    24    33    34   ar
    25    34    35    1
    26    34    36   ar
    27    36    37   ar
    28    21    22    1
    29    22    23   ar
    30    23    24   ar
    31    24    25   ar
    32    25    26   ar
    33    26    28    1
    34    28    29    3
    35    26    27   ar
    36    16    11   ar
    37    37    31   ar
    38    27    22   ar
    39     3     6    1
@<TRIPOS>MOLECULE
*****
 37 39 0 0 0
SMALL
GASTEIGER

@<TRIPOS>ATOM
      1 C           7.7073   -0.0181   21.4140 C.3     1  UNL1        0.0216
      2 C           7.2360   -1.2139   22.1874 C.3     1  UNL1        0.0760
      3 N           6.8855   -1.0775   23.6394 N.am    1  UNL1       -0.3028
      4 C           5.6858   -0.2758   24.0492 C.2     1  UNL1        0.2587
      5 O           4.8366    0.3895   23.0070 O.2     1  UNL1       -0.2714
      6 H           7.4428   -1.5141   24.3235 H       1  UNL1        0.1495
      7 C           5.3352   -0.1393   25.5014 C.3     1  UNL1        0.2022
      8 C           5.8559    1.2673   25.4949 C.3     1  UNL1        0.0532
      9 C           4.8145   -1.5460   25.5079 C.3     1  UNL1        0.0532
     10 O           4.9847   -0.0029   26.9534 O.3     1  UNL1       -0.4586
     11 C           3.5491    0.1219   27.3699 C.ar    1  UNL1        0.2251
     12 C           3.0772   -0.5250   28.6383 C.ar    1  UNL1        0.0577
     13 C           1.6416   -0.4002   29.0548 C.ar    1  UNL1        0.0102
     14 C           0.6779    0.3715   28.2029 C.ar    1  UNL1        0.0907
     15 C           1.1498    1.0184   26.9345 C.ar    1  UNL1        0.1059
     16 N           2.5854    0.8936   26.5180 N.ar    1  UNL1       -0.2102
     17 C          -0.7577    0.4963   28.6194 C.3     1  UNL1        0.4200
     18 F          -2.1933    0.6210   29.0359 F       1  UNL1       -0.1658
     19 F          -0.6660    1.9877   28.4889 F       1  UNL1       -0.1658
     20 F          -0.8494   -0.9952   28.7499 F       1  UNL1       -0.1658
     21 C           7.1153   -2.5461   21.5087 C.3     1  UNL1        0.0446
     22 C           5.8787   -2.8811   20.7287 C.ar    1  UNL1       -0.0199
     23 C           5.8371   -4.1205   19.8848 C.ar    1  UNL1       -0.0042
     24 C           4.6005   -4.4556   19.1047 C.ar    1  UNL1        0.0004
     25 C           3.4055   -3.5513   19.1686 C.ar    1  UNL1        0.0103
     26 C           3.4471   -2.3119   20.0125 C.ar    1  UNL1        0.0681
     27 C           4.6837   -1.9768   20.7925 C.ar    1  UNL1        0.0061
     28 C           2.2520   -1.4076   20.0763 C.1     1  UNL1        0.1004
     29 N           1.0569   -0.5033   20.1401 N.1     1  UNL1       -0.1908
     30 C           8.2313   -3.5433   21.6101 C.3     1  UNL1        0.0323
     31 C           8.1615   -4.6465   22.6241 C.ar    1  UNL1       -0.0218
     32 C           8.8306   -5.9606   22.3499 C.ar    1  UNL1       -0.0034
     33 C           8.7609   -7.0638   23.3639 C.ar    1  UNL1        0.0111
     34 C           8.0220   -6.8527   24.6520 C.ar    1  UNL1        0.0577
     35 CL          7.9523   -7.9559   25.6661 Cl      1  UNL1       -0.0822
     36 C           7.3529   -5.5386   24.9263 C.ar    1  UNL1        0.0111
     37 C           7.4226   -4.4354   23.9123 C.ar    1  UNL1       -0.0034
@<TRIPOS>BOND
     1     2     1    1
     2     2     3    1
     3     3     4   am
     4     4     5    2
     5     4     7    1
     6     7     8    1
     7     7     9    1
     8     7    10    1
     9    10    11    1
    10    11    12   ar
    11    12    13   ar
    12    13    14   ar
    13    14    17    1
    14    17    18    1
    15    17    19    1
    16    17    20    1
    17    14    15   ar
    18    15    16   ar
    19     2    21    1
    20    21    30    1
    21    30    31    1
    22    31    32   ar
    23    32    33   ar
    24    33    34   ar
    25    34    35    1
    26    34    36   ar
    27    36    37   ar
    28    21    22    1
    29    22    23   ar
    30    23    24   ar
    31    24    25   ar
    32    25    26   ar
    33    26    28    1
    34    28    29    3
    35    26    27   ar
    36    16    11   ar
    37    37    31   ar
    38    27    22   ar
    39     3     6    1
@<TRIPOS>MOLECULE
*****
 37 39 0 0 0
SMALL
GASTEIGER

@<TRIPOS>ATOM
      1 C           7.6284   -1.1574   22.7007 C.3     1  UNL1        0.0216
      2 C           6.5732   -1.9054   23.4604 C.3     1  UNL1        0.0760
      3 N           5.9629   -1.2999   24.6896 N.am    1  UNL1       -0.3028
      4 C           6.5799   -1.5490   26.0339 C.2     1  UNL1        0.2587
      5 O           7.8072   -2.4035   26.1491 O.2     1  UNL1       -0.2714
      6 H           5.1573   -0.7391   24.6140 H       1  UNL1        0.1495
      7 C           5.9694   -0.9435   27.2631 C.3     1  UNL1        0.2022
      8 C           6.4921    0.4032   26.8592 C.3     1  UNL1        0.0532
      9 C           5.4468   -2.2902   27.6670 C.3     1  UNL1        0.0532
     10 O           5.3590   -0.3380   28.4922 O.3     1  UNL1       -0.4586
     11 C           3.8763   -0.1224   28.5650 C.ar    1  UNL1        0.2251
     12 C           3.1331   -0.4418   29.8281 C.ar    1  UNL1        0.0577
     13 C           1.6505   -0.2262   29.9008 C.ar    1  UNL1        0.0102
     14 C           0.9111    0.3089   28.7104 C.ar    1  UNL1        0.0907
     15 C           1.6544    0.6283   27.4473 C.ar    1  UNL1        0.1059
     16 N           3.1370    0.4127   27.3746 N.ar    1  UNL1       -0.2102
     17 C          -0.5716    0.5245   28.7832 C.3     1  UNL1        0.4200
     18 F          -2.0542    0.7402   28.8560 F       1  UNL1       -0.1658
     19 F          -0.7832   -0.9582   28.8651 F       1  UNL1       -0.1658
     20 F          -0.3599    2.0072   28.7013 F       1  UNL1       -0.1658
     21 C           6.1285   -3.2588   22.9910 C.3     1  UNL1        0.0446
     22 C           7.0779   -4.4191   23.0402 C.ar    1  UNL1       -0.0199
     23 C           8.0676   -4.6258   21.9321 C.ar    1  UNL1       -0.0042
     24 C           9.0170   -5.7861   21.9813 C.ar    1  UNL1        0.0004
     25 C           8.9767   -6.7395   23.1385 C.ar    1  UNL1        0.0103
     26 C           7.9871   -6.5328   24.2466 C.ar    1  UNL1        0.0681
     27 C           7.0377   -5.3726   24.1974 C.ar    1  UNL1        0.0061
     28 C           7.9468   -7.4863   25.4038 C.1     1  UNL1        0.1004
     29 N           7.9067   -8.4398   26.5611 N.1     1  UNL1       -0.1908
     30 C           4.7343   -3.4520   22.4724 C.3     1  UNL1        0.0323
     31 C           4.2176   -2.5794   21.3671 C.ar    1  UNL1       -0.0218
     32 C           3.2643   -1.4633   21.6760 C.ar    1  UNL1       -0.0034
     33 C           2.7476   -0.5907   20.5707 C.ar    1  UNL1        0.0111
     34 C           3.1843   -0.8343   19.1565 C.ar    1  UNL1        0.0577
     35 CL          2.6676    0.0383   18.0512 Cl      1  UNL1       -0.0822
     36 C           4.1376   -1.9504   18.8476 C.ar    1  UNL1        0.0111
     37 C           4.6543   -2.8230   19.9529 C.ar    1  UNL1       -0.0034
@<TRIPOS>BOND
     1     2     1    1
     2     2     3    1
     3     3     4   am
     4     4     5    2
     5     4     7    1
     6     7     8    1
     7     7     9    1
     8     7    10    1
     9    10    11    1
    10    11    12   ar
    11    12    13   ar
    12    13    14   ar
    13    14    17    1
    14    17    18    1
    15    17    19    1
    16    17    20    1
    17    14    15   ar
    18    15    16   ar
    19     2    21    1
    20    21    30    1
    21    30    31    1
    22    31    32   ar
    23    32    33   ar
    24    33    34   ar
    25    34    35    1
    26    34    36   ar
    27    36    37   ar
    28    21    22    1
    29    22    23   ar
    30    23    24   ar
    31    24    25   ar
    32    25    26   ar
    33    26    28    1
    34    28    29    3
    35    26    27   ar
    36    16    11   ar
    37    37    31   ar
    38    27    22   ar
    39     3     6    1
