@<TRIPOS>MOLECULE
*****
 24 24 0 0 0
SMALL
GASTEIGER

@<TRIPOS>ATOM
      1 C          -6.4788  -18.9717   20.5744 C.3     1  UNL1        0.0438
      2 C         -10.0980  -19.5971   22.0779 C.ar    1  UNL1        0.1382
      3 C         -10.8998  -19.7736   20.8226 C.ar    1  UNL1        0.0369
      4 C         -10.2281  -19.6828   19.4845 C.ar    1  UNL1        0.0028
      5 C          -8.7544  -19.4155   19.4018 C.ar    1  UNL1       -0.0040
      6 C          -7.9526  -19.2390   20.6571 C.ar    1  UNL1       -0.0178
      7 C          -8.6244  -19.3298   21.9952 C.ar    1  UNL1        0.0327
      8 O         -10.7698  -19.6880   23.4160 O.3     1  UNL1       -0.4755
      9 C         -11.4472  -18.4831   23.9985 C.3     1  UNL1        0.2054
     10 C         -12.6762  -17.9244   23.3448 C.3     1  UNL1        0.0473
     11 C         -11.3940  -16.1891   21.8974 C.3     1  UNL1        0.0001
     12 C         -12.6213  -16.5905   22.6606 C.3     1  UNL1        0.0038
     13 C          -5.5776  -19.3829   21.7007 C.3     1  UNL1        0.0773
     14 N          -4.9588  -18.3410   22.5847 N.3     1  UNL1       -0.2626
     15 C          -5.7870  -17.1962   23.0879 C.3     1  UNL1        0.1049
     16 C          -5.1612  -16.1390   23.9484 C.3     1  UNL1        0.1595
     17 O          -6.0127  -15.3306   24.8820 O.3     1  UNL1       -0.3496
     18 C          -7.4012  -14.9335   24.4768 C.3     1  UNL1        0.1742
     19 C          -3.5116  -18.4440   22.9656 C.3     1  UNL1        0.1587
     20 C          -2.4809  -18.7512   21.9200 C.2     1  UNL1        0.2421
     21 O          -2.1797  -20.1758   21.5596 O.2     1  UNL1       -0.2734
     22 N          -1.7515  -17.6339   21.2347 N.am    1  UNL1       -0.2749
     23 C          -0.7208  -17.9412   20.1891 C.3     1  UNL1        0.1149
     24 C          -2.0527  -16.2094   21.5951 C.3     1  UNL1        0.1149
@<TRIPOS>BOND
     1    11    12    1
     2    12    10    1
     3    10     9    1
     4     9     8    1
     5     8     2    1
     6     2     3   ar
     7     3     4   ar
     8     4     5   ar
     9     5     6   ar
    10     6     1    1
    11     1    13    1
    12    13    14    1
    13    14    15    1
    14    15    16    1
    15    16    17    1
    16    17    18    1
    17    14    19    1
    18    19    20    1
    19    20    21    2
    20    20    22   am
    21    22    23    1
    22    22    24    1
    23     6     7   ar
    24     7     2   ar
@<TRIPOS>MOLECULE
*****
 24 24 0 0 0
SMALL
GASTEIGER

@<TRIPOS>ATOM
      1 C          -6.2653  -20.4242   20.5057 C.3     1  UNL1        0.0438
      2 C          -3.9596  -18.1760   22.8251 C.ar    1  UNL1        0.1382
      3 C          -2.5978  -18.5540   22.3228 C.ar    1  UNL1        0.0369
      4 C          -2.4584  -19.5554   21.2147 C.ar    1  UNL1        0.0028
      5 C          -3.6809  -20.1788   20.6091 C.ar    1  UNL1       -0.0040
      6 C          -5.0427  -19.8008   21.1114 C.ar    1  UNL1       -0.0178
      7 C          -5.1821  -18.7994   22.2194 C.ar    1  UNL1        0.0327
      8 O          -4.0990  -17.1746   23.9332 O.3     1  UNL1       -0.4755
      9 C          -5.1751  -16.1314   23.8704 C.3     1  UNL1        0.2054
     10 C          -5.4063  -15.2211   25.0399 C.3     1  UNL1        0.0473
     11 C          -6.7675  -15.4668   27.2393 C.3     1  UNL1        0.0001
     12 C          -5.5555  -15.7940   26.4182 C.3     1  UNL1        0.0038
     13 C          -7.2785  -19.5650   19.8091 C.3     1  UNL1        0.0773
     14 N          -8.6199  -19.3281   20.4373 N.3     1  UNL1       -0.2626
     15 C          -9.8535  -19.3022   19.5843 C.3     1  UNL1        0.1049
     16 C         -10.9238  -18.2840   19.8443 C.3     1  UNL1        0.1595
     17 O         -10.6227  -16.8228   19.6882 O.3     1  UNL1       -0.3496
     18 C         -11.7396  -15.8464   19.4663 C.3     1  UNL1        0.1742
     19 C          -8.7277  -19.1172   21.9185 C.3     1  UNL1        0.1587
     20 C          -8.6186  -17.7342   22.4889 C.2     1  UNL1        0.2421
     21 O          -7.9541  -16.6469   21.6978 O.2     1  UNL1       -0.2734
     22 N          -9.1740  -17.4386   23.8506 N.am    1  UNL1       -0.2749
     23 C          -9.0649  -16.0557   24.4211 C.3     1  UNL1        0.1149
     24 C          -9.8385  -18.5260   24.6418 C.3     1  UNL1        0.1149
@<TRIPOS>BOND
     1    11    12    1
     2    12    10    1
     3    10     9    1
     4     9     8    1
     5     8     2    1
     6     2     3   ar
     7     3     4   ar
     8     4     5   ar
     9     5     6   ar
    10     6     1    1
    11     1    13    1
    12    13    14    1
    13    14    15    1
    14    15    16    1
    15    16    17    1
    16    17    18    1
    17    14    19    1
    18    19    20    1
    19    20    21    2
    20    20    22   am
    21    22    23    1
    22    22    24    1
    23     6     7   ar
    24     7     2   ar
@<TRIPOS>MOLECULE
*****
 24 24 0 0 0
SMALL
GASTEIGER

@<TRIPOS>ATOM
      1 C          -8.1114  -19.3442   21.0182 C.3     1  UNL1        0.0438
      2 C          -4.3249  -19.0072   22.1579 C.ar    1  UNL1        0.1382
      3 C          -3.6506  -19.9158   21.1732 C.ar    1  UNL1        0.0369
      4 C          -4.4632  -20.6339   20.1368 C.ar    1  UNL1        0.0028
      5 C          -5.9501  -20.4433   20.0851 C.ar    1  UNL1       -0.0040
      6 C          -6.6244  -19.5347   21.0699 C.ar    1  UNL1       -0.0178
      7 C          -5.8118  -18.8167   22.1062 C.ar    1  UNL1        0.0327
      8 O          -3.5123  -18.2892   23.1943 O.3     1  UNL1       -0.4755
      9 C          -2.2143  -17.6411   22.8131 C.3     1  UNL1        0.2054
     10 C          -2.1965  -16.5398   21.7949 C.3     1  UNL1        0.0473
     11 C          -0.6683  -17.9126   20.2043 C.3     1  UNL1        0.0001
     12 C          -1.6443  -16.7949   20.4237 C.3     1  UNL1        0.0038
     13 C          -8.9006  -19.2540   22.2906 C.3     1  UNL1        0.0773
     14 N         -10.0733  -18.3231   22.3814 N.3     1  UNL1       -0.2626
     15 C         -11.4087  -18.7443   21.8435 C.3     1  UNL1        0.1049
     16 C         -12.3056  -17.7357   21.1891 C.3     1  UNL1        0.1595
     17 O         -11.9871  -17.2298   19.8133 O.3     1  UNL1       -0.3496
     18 C         -11.4835  -15.8292   19.6272 C.3     1  UNL1        0.1742
     19 C          -9.9106  -16.9710   23.0102 C.3     1  UNL1        0.1587
     20 C          -8.6074  -16.2386   22.8873 C.2     1  UNL1        0.2421
     21 O          -8.0622  -15.9003   21.5315 O.2     1  UNL1       -0.2734
     22 N          -7.8493  -15.8445   24.1202 N.am    1  UNL1       -0.2749
     23 C          -6.5461  -15.1121   23.9973 C.3     1  UNL1        0.1149
     24 C          -8.3945  -16.1827   25.4760 C.3     1  UNL1        0.1149
@<TRIPOS>BOND
     1    11    12    1
     2    12    10    1
     3    10     9    1
     4     9     8    1
     5     8     2    1
     6     2     3   ar
     7     3     4   ar
     8     4     5   ar
     9     5     6   ar
    10     6     1    1
    11     1    13    1
    12    13    14    1
    13    14    15    1
    14    15    16    1
    15    16    17    1
    16    17    18    1
    17    14    19    1
    18    19    20    1
    19    20    21    2
    20    20    22   am
    21    22    23    1
    22    22    24    1
    23     6     7   ar
    24     7     2   ar
@<TRIPOS>MOLECULE
*****
 24 24 0 0 0
SMALL
GASTEIGER

@<TRIPOS>ATOM
      1 C          -9.7113  -19.7373   24.0595 C.3     1  UNL1        0.0438
      2 C          -7.9207  -19.4632   20.5284 C.ar    1  UNL1        0.1382
      3 C          -9.1007  -19.5396   19.6055 C.ar    1  UNL1        0.0369
      4 C         -10.4843  -19.6819   20.1673 C.ar    1  UNL1        0.0028
      5 C         -10.6878  -19.7478   21.6519 C.ar    1  UNL1       -0.0040
      6 C          -9.5078  -19.6714   22.5748 C.ar    1  UNL1       -0.0178
      7 C          -8.1243  -19.5291   22.0130 C.ar    1  UNL1        0.0327
      8 O          -6.5372  -19.3209   19.9666 O.3     1  UNL1       -0.4755
      9 C          -5.4986  -20.3633   20.2578 C.3     1  UNL1        0.2054
     10 C          -4.0426  -20.0072   20.2027 C.3     1  UNL1        0.0473
     11 C          -4.1500  -19.0826   22.6283 C.3     1  UNL1        0.0001
     12 C          -3.4133  -19.2465   21.3321 C.3     1  UNL1        0.0038
     13 C          -9.9698  -18.4812   24.8376 C.3     1  UNL1        0.0773
     14 N          -9.5059  -17.1587   24.3027 N.3     1  UNL1       -0.2626
     15 C          -8.0997  -16.7003   24.5525 C.3     1  UNL1        0.1049
     16 C          -7.8140  -15.2449   24.7766 C.3     1  UNL1        0.1595
     17 O          -6.4438  -14.6988   24.5038 O.3     1  UNL1       -0.3496
     18 C          -5.3187  -15.6311   24.1646 C.3     1  UNL1        0.1742
     19 C         -10.4482  -16.2948   23.5180 C.3     1  UNL1        0.1587
     20 C         -10.2851  -16.1639   22.0327 C.2     1  UNL1        0.2421
     21 O          -8.9263  -15.9204   21.4460 O.2     1  UNL1       -0.2734
     22 N         -11.4809  -16.2763   21.1341 N.am    1  UNL1       -0.2749
     23 C         -11.3179  -16.1453   19.6488 C.3     1  UNL1        0.1149
     24 C         -12.8397  -16.5197   21.7208 C.3     1  UNL1        0.1149
@<TRIPOS>BOND
     1    11    12    1
     2    12    10    1
     3    10     9    1
     4     9     8    1
     5     8     2    1
     6     2     3   ar
     7     3     4   ar
     8     4     5   ar
     9     5     6   ar
    10     6     1    1
    11     1    13    1
    12    13    14    1
    13    14    15    1
    14    15    16    1
    15    16    17    1
    16    17    18    1
    17    14    19    1
    18    19    20    1
    19    20    21    2
    20    20    22   am
    21    22    23    1
    22    22    24    1
    23     6     7   ar
    24     7     2   ar
@<TRIPOS>MOLECULE
*****
 24 24 0 0 0
SMALL
GASTEIGER

@<TRIPOS>ATOM
      1 C          -4.5904  -16.1710   23.6965 C.3     1  UNL1        0.0438
      2 C          -8.3229  -15.7679   24.9833 C.ar    1  UNL1        0.1382
      3 C          -8.0916  -15.4704   26.4352 C.ar    1  UNL1        0.0369
      4 C          -6.6933  -15.4064   26.9741 C.ar    1  UNL1        0.0028
      5 C          -5.5262  -15.6400   26.0613 C.ar    1  UNL1       -0.0040
      6 C          -5.7575  -15.9375   24.6094 C.ar    1  UNL1       -0.0178
      7 C          -7.1559  -16.0015   24.0704 C.ar    1  UNL1        0.0327
      8 O          -9.7213  -15.8319   24.4443 O.3     1  UNL1       -0.4755
      9 C         -10.2452  -17.1140   23.8684 C.3     1  UNL1        0.2054
     10 C         -11.1775  -17.0829   22.6938 C.3     1  UNL1        0.0473
     11 C         -13.4481  -17.8824   23.6712 C.3     1  UNL1        0.0001
     12 C         -12.3579  -18.0074   22.6485 C.3     1  UNL1        0.0038
     13 C          -3.9115  -17.5084   23.6742 C.3     1  UNL1        0.0773
     14 N          -4.2457  -18.5014   22.6006 N.3     1  UNL1       -0.2626
     15 C          -5.6792  -18.7980   22.2733 C.3     1  UNL1        0.1049
     16 C          -6.0987  -20.2000   21.9442 C.3     1  UNL1        0.1595
     17 O          -6.7030  -20.5076   20.6062 O.3     1  UNL1       -0.3496
     18 C          -7.3011  -19.4061   19.7823 C.3     1  UNL1        0.1742
     19 C          -3.1464  -19.1977   21.8545 C.3     1  UNL1        0.1587
     20 C          -2.9737  -18.9640   20.3830 C.2     1  UNL1        0.2421
     21 O          -3.5915  -19.9094   19.3959 O.2     1  UNL1       -0.2734
     22 N          -2.1832  -17.7848   19.8986 N.am    1  UNL1       -0.2749
     23 C          -2.0104  -17.5510   18.4271 C.3     1  UNL1        0.1149
     24 C          -1.5653  -16.8394   20.8857 C.3     1  UNL1        0.1149
@<TRIPOS>BOND
     1    11    12    1
     2    12    10    1
     3    10     9    1
     4     9     8    1
     5     8     2    1
     6     2     3   ar
     7     3     4   ar
     8     4     5   ar
     9     5     6   ar
    10     6     1    1
    11     1    13    1
    12    13    14    1
    13    14    15    1
    14    15    16    1
    15    16    17    1
    16    17    18    1
    17    14    19    1
    18    19    20    1
    19    20    21    2
    20    20    22   am
    21    22    23    1
    22    22    24    1
    23     6     7   ar
    24     7     2   ar
@<TRIPOS>MOLECULE
*****
 24 24 0 0 0
SMALL
GASTEIGER

@<TRIPOS>ATOM
      1 C          -7.1043  -18.6582   22.6538 C.3     1  UNL1        0.0438
      2 C          -3.6106  -19.8305   21.1808 C.ar    1  UNL1        0.1382
      3 C          -4.0597  -20.7411   20.0767 C.ar    1  UNL1        0.0369
      4 C          -5.5237  -20.9574   19.8316 C.ar    1  UNL1        0.0028
      5 C          -6.5385  -20.2631   20.6906 C.ar    1  UNL1       -0.0040
      6 C          -6.0894  -19.3525   21.7947 C.ar    1  UNL1       -0.0178
      7 C          -4.6255  -19.1362   22.0398 C.ar    1  UNL1        0.0327
      8 O          -2.1467  -19.6142   21.4259 O.3     1  UNL1       -0.4755
      9 C          -1.3212  -18.8637   20.4232 C.3     1  UNL1        0.2054
     10 C          -1.6879  -17.4573   20.0521 C.3     1  UNL1        0.0473
     11 C          -2.5135  -16.1742   22.1550 C.3     1  UNL1        0.0001
     12 C          -1.5158  -16.3495   21.0486 C.3     1  UNL1        0.0038
     13 C          -7.7233  -17.3720   22.1927 C.3     1  UNL1        0.0773
     14 N          -8.2653  -16.3982   23.1967 N.3     1  UNL1       -0.2626
     15 C          -7.4291  -15.2344   23.6398 C.3     1  UNL1        0.1049
     16 C          -5.9378  -15.3715   23.7245 C.3     1  UNL1        0.1595
     17 O          -5.2063  -14.8730   24.9355 O.3     1  UNL1       -0.3496
     18 C          -5.5775  -15.3801   26.2974 C.3     1  UNL1        0.1742
     19 C          -9.6434  -16.5882   23.7575 C.3     1  UNL1        0.1587
     20 C         -10.5795  -17.5769   23.1282 C.2     1  UNL1        0.2421
     21 O         -10.8262  -18.9011   23.7881 O.2     1  UNL1       -0.2734
     22 N         -11.2689  -17.2415   21.8389 N.am    1  UNL1       -0.2749
     23 C         -12.2050  -18.2302   21.2096 C.3     1  UNL1        0.1149
     24 C         -11.0223  -15.9173   21.1790 C.3     1  UNL1        0.1149
@<TRIPOS>BOND
     1    11    12    1
     2    12    10    1
     3    10     9    1
     4     9     8    1
     5     8     2    1
     6     2     3   ar
     7     3     4   ar
     8     4     5   ar
     9     5     6   ar
    10     6     1    1
    11     1    13    1
    12    13    14    1
    13    14    15    1
    14    15    16    1
    15    16    17    1
    16    17    18    1
    17    14    19    1
    18    19    20    1
    19    20    21    2
    20    20    22   am
    21    22    23    1
    22    22    24    1
    23     6     7   ar
    24     7     2   ar
@<TRIPOS>MOLECULE
*****
 24 24 0 0 0
SMALL
GASTEIGER

@<TRIPOS>ATOM
      1 C          -4.8475  -15.9777   24.1498 C.3     1  UNL1        0.0438
      2 C          -8.7462  -16.2307   23.4526 C.ar    1  UNL1        0.1382
      3 C          -9.2995  -15.8396   24.7908 C.ar    1  UNL1        0.0369
      4 C          -8.3688  -15.4945   25.9154 C.ar    1  UNL1        0.0028
      5 C          -6.8848  -15.5405   25.7017 C.ar    1  UNL1       -0.0040
      6 C          -6.3316  -15.9316   24.3635 C.ar    1  UNL1       -0.0178
      7 C          -7.2623  -16.2767   23.2390 C.ar    1  UNL1        0.0327
      8 O          -9.6769  -16.5758   22.3280 O.3     1  UNL1       -0.4755
      9 C         -11.1569  -16.4018   22.4991 C.3     1  UNL1        0.2054
     10 C         -11.9870  -17.5281   23.0397 C.3     1  UNL1        0.0473
     11 C         -10.8934  -19.3435   24.5425 C.3     1  UNL1        0.0001
     12 C         -11.3861  -18.8933   23.1992 C.3     1  UNL1        0.0038
     13 C          -4.2938  -16.4020   22.8220 C.3     1  UNL1        0.0773
     14 N          -3.8603  -17.8222   22.6093 N.3     1  UNL1       -0.2626
     15 C          -2.4002  -18.1638   22.5763 C.3     1  UNL1        0.1049
     16 C          -1.6923  -18.3040   21.2613 C.3     1  UNL1        0.1595
     17 O          -1.9462  -17.3139   20.1635 O.3     1  UNL1       -0.3496
     18 C          -1.8149  -17.7340   18.7295 C.3     1  UNL1        0.1742
     19 C          -4.8872  -18.9008   22.4296 C.3     1  UNL1        0.1587
     20 C          -5.6379  -19.0136   21.1359 C.2     1  UNL1        0.2421
     21 O          -4.9510  -18.6987   19.8402 O.2     1  UNL1       -0.2734
     22 N          -7.0757  -19.4412   21.1380 N.am    1  UNL1       -0.2749
     23 C          -7.8265  -19.5540   19.8443 C.3     1  UNL1        0.1149
     24 C          -7.7626  -19.7561   22.4337 C.3     1  UNL1        0.1149
@<TRIPOS>BOND
     1    11    12    1
     2    12    10    1
     3    10     9    1
     4     9     8    1
     5     8     2    1
     6     2     3   ar
     7     3     4   ar
     8     4     5   ar
     9     5     6   ar
    10     6     1    1
    11     1    13    1
    12    13    14    1
    13    14    15    1
    14    15    16    1
    15    16    17    1
    16    17    18    1
    17    14    19    1
    18    19    20    1
    19    20    21    2
    20    20    22   am
    21    22    23    1
    22    22    24    1
    23     6     7   ar
    24     7     2   ar
@<TRIPOS>MOLECULE
*****
 24 24 0 0 0
SMALL
GASTEIGER

@<TRIPOS>ATOM
      1 C          -6.9859  -18.2112   22.6769 C.3     1  UNL1        0.0438
      2 C          -3.7224  -19.9341   21.2170 C.ar    1  UNL1        0.1382
      3 C          -4.3220  -20.8666   20.2066 C.ar    1  UNL1        0.0369
      4 C          -5.8095  -20.9140   20.0196 C.ar    1  UNL1        0.0028
      5 C          -6.6975  -20.0288   20.8430 C.ar    1  UNL1       -0.0040
      6 C          -6.0979  -19.0964   21.8534 C.ar    1  UNL1       -0.0178
      7 C          -4.6104  -19.0490   22.0404 C.ar    1  UNL1        0.0327
      8 O          -2.2348  -19.8867   21.4039 O.3     1  UNL1       -0.4755
      9 C          -1.6003  -18.7032   22.0722 C.3     1  UNL1        0.2054
     10 C          -1.5353  -17.3850   21.3594 C.3     1  UNL1        0.0473
     11 C           0.5914  -17.4240   19.8675 C.3     1  UNL1        0.0001
     12 C          -0.8967  -17.2953   20.0050 C.3     1  UNL1        0.0038
     13 C          -8.3554  -17.8527   22.1811 C.3     1  UNL1        0.0773
     14 N          -9.4081  -17.3982   23.1482 N.3     1  UNL1       -0.2626
     15 C          -9.5844  -18.1126   24.4553 C.3     1  UNL1        0.1049
     16 C         -10.5341  -19.2693   24.5556 C.3     1  UNL1        0.1595
     17 O         -10.4652  -20.3852   23.5556 O.3     1  UNL1       -0.3496
     18 C         -11.0955  -20.2214   22.2043 C.3     1  UNL1        0.1742
     19 C         -10.2845  -16.2293   22.8082 C.3     1  UNL1        0.1587
     20 C         -10.4246  -15.7869   21.3819 C.2     1  UNL1        0.2421
     21 O          -9.3590  -14.9406   20.7510 O.2     1  UNL1       -0.2734
     22 N         -11.6305  -16.1907   20.5864 N.am    1  UNL1       -0.2749
     23 C         -11.7707  -15.7483   19.1600 C.3     1  UNL1        0.1149
     24 C         -12.6962  -17.0370   21.2173 C.3     1  UNL1        0.1149
@<TRIPOS>BOND
     1    11    12    1
     2    12    10    1
     3    10     9    1
     4     9     8    1
     5     8     2    1
     6     2     3   ar
     7     3     4   ar
     8     4     5   ar
     9     5     6   ar
    10     6     1    1
    11     1    13    1
    12    13    14    1
    13    14    15    1
    14    15    16    1
    15    16    17    1
    16    17    18    1
    17    14    19    1
    18    19    20    1
    19    20    21    2
    20    20    22   am
    21    22    23    1
    22    22    24    1
    23     6     7   ar
    24     7     2   ar
@<TRIPOS>MOLECULE
*****
 24 24 0 0 0
SMALL
GASTEIGER

@<TRIPOS>ATOM
      1 C         -11.9420   -6.9232   18.9253 C.3     1  UNL1        0.0438
      2 C         -12.1107   -2.9824   19.3625 C.ar    1  UNL1        0.1382
      3 C         -13.3975   -2.8359   20.1193 C.ar    1  UNL1        0.0369
      4 C         -14.1991   -4.0520   20.4782 C.ar    1  UNL1        0.0028
      5 C         -13.7139   -5.4144   20.0802 C.ar    1  UNL1       -0.0040
      6 C         -12.4272   -5.5608   19.3234 C.ar    1  UNL1       -0.0178
      7 C         -11.6256   -4.3448   18.9645 C.ar    1  UNL1        0.0327
      8 O         -11.3091   -1.7664   19.0037 O.3     1  UNL1       -0.4755
      9 C         -11.3000   -1.2643   17.5902 C.3     1  UNL1        0.2054
     10 C         -12.2112   -0.1432   17.1867 C.3     1  UNL1        0.0473
     11 C         -14.4035    0.3111   18.5050 C.3     1  UNL1        0.0001
     12 C         -12.9625    0.6262   18.2326 C.3     1  UNL1        0.0038
     13 C         -12.4113   -7.5411   17.6416 C.3     1  UNL1        0.0773
     14 N         -13.8489   -7.9389   17.4823 N.3     1  UNL1       -0.2626
     15 C         -14.5687   -7.6513   16.1982 C.3     1  UNL1        0.1049
     16 C         -15.5653   -6.5322   16.1315 C.3     1  UNL1        0.1595
     17 O         -15.2786   -5.2305   16.8197 O.3     1  UNL1       -0.3496
     18 C         -14.1976   -4.3297   16.3002 C.3     1  UNL1        0.1742
     19 C         -14.5665   -8.6243   18.6071 C.3     1  UNL1        0.1587
     20 C         -15.5672   -9.7020   18.3121 C.2     1  UNL1        0.2421
     21 O         -15.1000  -11.0823   17.9566 O.2     1  UNL1       -0.2734
     22 N         -17.0351   -9.3994   18.3727 N.am    1  UNL1       -0.2749
     23 C         -18.0358  -10.4771   18.0777 C.3     1  UNL1        0.1149
     24 C         -17.5023   -8.0191   18.7282 C.3     1  UNL1        0.1149
@<TRIPOS>BOND
     1    11    12    1
     2    12    10    1
     3    10     9    1
     4     9     8    1
     5     8     2    1
     6     2     3   ar
     7     3     4   ar
     8     4     5   ar
     9     5     6   ar
    10     6     1    1
    11     1    13    1
    12    13    14    1
    13    14    15    1
    14    15    16    1
    15    16    17    1
    16    17    18    1
    17    14    19    1
    18    19    20    1
    19    20    21    2
    20    20    22   am
    21    22    23    1
    22    22    24    1
    23     6     7   ar
    24     7     2   ar
