@<TRIPOS>MOLECULE
*****
 26 28 0 0 0
SMALL
GASTEIGER

@<TRIPOS>ATOM
      1 C          -6.9752  -15.1327   27.9110 C.3     1  UNL1        0.0522
      2 C          -7.1785  -15.5008   26.4711 C.ar    1  UNL1        0.0625
      3 C          -8.5660  -15.5898   25.9084 C.ar    1  UNL1        0.0522
      4 C          -8.7692  -15.9578   24.4685 C.ar    1  UNL1        0.1482
      5 C          -7.5849  -16.2369   23.5914 C.ar    1  UNL1        0.0612
      6 C          -6.1974  -16.1479   24.1541 C.ar    1  UNL1        0.1374
      7 N          -5.9941  -15.7798   25.5940 N.ar    1  UNL1       -0.2449
      8 C          -5.0129  -16.4269   23.2769 C.2     1  UNL1        0.2684
      9 O          -4.1355  -15.2992   22.8204 O.2     1  UNL1       -0.2681
     10 N          -4.7060  -17.8336   22.8563 N.am    1  UNL1       -0.2645
     11 H          -5.2819  -18.5737   23.1559 H       1  UNL1        0.1566
     12 C          -3.5215  -18.1126   21.9791 C.ar    1  UNL1        0.1367
     13 C          -2.5594  -17.0114   21.6455 C.ar    1  UNL1        0.0641
     14 C          -1.3750  -17.2905   20.7684 C.ar    1  UNL1        0.1445
     15 F          -0.4127  -16.1892   20.4346 F       1  UNL1       -0.2040
     16 C          -1.1528  -18.6708   20.2249 C.ar    1  UNL1        0.0504
     17 C          -2.1150  -19.7721   20.5586 C.ar    1  UNL1        0.1026
     18 N          -3.2994  -19.4930   21.4357 N.ar    1  UNL1       -0.2289
     19 O         -10.1569  -16.0468   23.9058 O.3     1  UNL1       -0.4518
     20 C         -10.4103  -16.8374   22.6565 C.ar    1  UNL1        0.1666
     21 C         -10.4262  -16.1493   21.3237 C.ar    1  UNL1        0.1364
     22 N         -10.6796  -16.9399   20.0745 N.ar    1  UNL1       -0.2368
     23 C         -10.9172  -18.4187   20.1580 C.ar    1  UNL1        0.1286
     24 C         -10.9012  -19.1068   21.4907 C.ar    1  UNL1        0.1623
     25 F         -11.1387  -20.5855   21.5743 F       1  UNL1       -0.2024
     26 C         -10.6478  -18.3161   22.7400 C.ar    1  UNL1        0.0703
@<TRIPOS>BOND
     1     1     2    1
     2     2     3   ar
     3     3     4   ar
     4     4    19    1
     5    19    20    1
     6    20    21   ar
     7    21    22   ar
     8    22    23   ar
     9    23    24   ar
    10    24    25    1
    11    24    26   ar
    12     4     5   ar
    13     5     6   ar
    14     6     8    1
    15     8     9    2
    16     8    10   am
    17    10    12    1
    18    12    13   ar
    19    13    14   ar
    20    14    15    1
    21    14    16   ar
    22    16    17   ar
    23    17    18   ar
    24     6     7   ar
    25     7     2   ar
    26    26    20   ar
    27    18    12   ar
    28    10    11    1
@<TRIPOS>MOLECULE
*****
 26 28 0 0 0
SMALL
GASTEIGER

@<TRIPOS>ATOM
      1 C          -6.3760  -15.0788   27.2364 C.3     1  UNL1        0.0522
      2 C          -6.0931  -15.6910   25.8965 C.ar    1  UNL1        0.0625
      3 C          -4.7050  -16.1482   25.5589 C.ar    1  UNL1        0.0522
      4 C          -4.4221  -16.7604   24.2190 C.ar    1  UNL1        0.1482
      5 C          -5.5273  -16.9153   23.2168 C.ar    1  UNL1        0.0612
      6 C          -6.9154  -16.4581   23.5545 C.ar    1  UNL1        0.1374
      7 N          -7.1983  -15.8459   24.8943 N.ar    1  UNL1       -0.2449
      8 C          -8.0208  -16.6130   22.5522 C.2     1  UNL1        0.2684
      9 O          -7.7977  -17.4216   21.3087 O.2     1  UNL1       -0.2681
     10 N          -9.3490  -15.9593   22.7936 N.am    1  UNL1       -0.2645
     11 H          -9.4954  -15.4286   23.6097 H       1  UNL1        0.1566
     12 C         -10.4543  -16.1142   21.7914 C.ar    1  UNL1        0.1367
     13 C         -11.6503  -16.9584   22.1183 C.ar    1  UNL1        0.0641
     14 C         -12.7555  -17.1133   21.1161 C.ar    1  UNL1        0.1445
     15 F         -13.9516  -17.9575   21.4430 F       1  UNL1       -0.2040
     16 C         -12.6648  -16.4240   19.7870 C.ar    1  UNL1        0.0504
     17 C         -11.4688  -15.5798   19.4600 C.ar    1  UNL1        0.1026
     18 N         -10.3636  -15.4249   20.4622 N.ar    1  UNL1       -0.2289
     19 O          -3.0339  -17.2177   23.8814 O.3     1  UNL1       -0.4518
     20 C          -2.7126  -17.6745   22.4892 C.ar    1  UNL1        0.1666
     21 C          -1.9993  -16.7540   21.5437 C.ar    1  UNL1        0.1364
     22 N          -1.6779  -17.2109   20.1516 N.ar    1  UNL1       -0.2368
     23 C          -2.0699  -18.5882   19.7050 C.ar    1  UNL1        0.1286
     24 C          -2.7832  -19.5086   20.6505 C.ar    1  UNL1        0.1623
     25 F          -3.1752  -20.8859   20.2039 F       1  UNL1       -0.2024
     26 C          -3.1046  -19.0518   22.0426 C.ar    1  UNL1        0.0703
@<TRIPOS>BOND
     1     1     2    1
     2     2     3   ar
     3     3     4   ar
     4     4    19    1
     5    19    20    1
     6    20    21   ar
     7    21    22   ar
     8    22    23   ar
     9    23    24   ar
    10    24    25    1
    11    24    26   ar
    12     4     5   ar
    13     5     6   ar
    14     6     8    1
    15     8     9    2
    16     8    10   am
    17    10    12    1
    18    12    13   ar
    19    13    14   ar
    20    14    15    1
    21    14    16   ar
    22    16    17   ar
    23    17    18   ar
    24     6     7   ar
    25     7     2   ar
    26    26    20   ar
    27    18    12   ar
    28    10    11    1
@<TRIPOS>MOLECULE
*****
 26 28 0 0 0
SMALL
GASTEIGER

@<TRIPOS>ATOM
      1 C          -7.0883  -14.9533   27.4746 C.3     1  UNL1        0.0522
      2 C          -7.4112  -15.5295   26.1278 C.ar    1  UNL1        0.0625
      3 C          -8.8377  -15.6194   25.6730 C.ar    1  UNL1        0.0522
      4 C          -9.1606  -16.1956   24.3262 C.ar    1  UNL1        0.1482
      5 C          -8.0570  -16.6818   23.4343 C.ar    1  UNL1        0.0612
      6 C          -6.6305  -16.5919   23.8891 C.ar    1  UNL1        0.1374
      7 N          -6.3076  -16.0157   25.2359 N.ar    1  UNL1       -0.2449
      8 C          -5.5268  -17.0781   22.9972 C.2     1  UNL1        0.2684
      9 O          -5.7943  -18.1628   21.9962 O.2     1  UNL1       -0.2681
     10 N          -4.1557  -16.4797   23.1062 N.am    1  UNL1       -0.2645
     11 H          -3.9802  -15.7678   23.7632 H       1  UNL1        0.1566
     12 C          -3.0520  -16.9659   22.2143 C.ar    1  UNL1        0.1367
     13 C          -2.8820  -18.4351   21.9642 C.ar    1  UNL1        0.0641
     14 C          -1.7784  -18.9213   21.0723 C.ar    1  UNL1        0.1445
     15 F          -1.6084  -20.3905   20.8221 F       1  UNL1       -0.2040
     16 C          -0.8447  -17.9383   20.4305 C.ar    1  UNL1        0.0504
     17 C          -1.0146  -16.4691   20.6806 C.ar    1  UNL1        0.1026
     18 N          -2.1183  -15.9829   21.5725 N.ar    1  UNL1       -0.2289
     19 O         -10.5872  -16.2856   23.8714 O.3     1  UNL1       -0.4518
     20 C         -10.9067  -16.8138   22.5044 C.ar    1  UNL1        0.1666
     21 C         -10.9407  -18.2936   22.2612 C.ar    1  UNL1        0.1364
     22 N         -11.2601  -18.8219   20.8941 N.ar    1  UNL1       -0.2368
     23 C         -11.5456  -17.8703   19.7702 C.ar    1  UNL1        0.1286
     24 C         -11.5116  -16.3906   20.0134 C.ar    1  UNL1        0.1623
     25 F         -11.7970  -15.4391   18.8895 F       1  UNL1       -0.2024
     26 C         -11.1921  -15.8623   21.3805 C.ar    1  UNL1        0.0703
@<TRIPOS>BOND
     1     1     2    1
     2     2     3   ar
     3     3     4   ar
     4     4    19    1
     5    19    20    1
     6    20    21   ar
     7    21    22   ar
     8    22    23   ar
     9    23    24   ar
    10    24    25    1
    11    24    26   ar
    12     4     5   ar
    13     5     6   ar
    14     6     8    1
    15     8     9    2
    16     8    10   am
    17    10    12    1
    18    12    13   ar
    19    13    14   ar
    20    14    15    1
    21    14    16   ar
    22    16    17   ar
    23    17    18   ar
    24     6     7   ar
    25     7     2   ar
    26    26    20   ar
    27    18    12   ar
    28    10    11    1
@<TRIPOS>MOLECULE
*****
 26 28 0 0 0
SMALL
GASTEIGER

@<TRIPOS>ATOM
      1 C          -9.1899  -21.7596   17.1440 C.3     1  UNL1        0.0522
      2 C          -9.0383  -20.7624   18.2543 C.ar    1  UNL1        0.0625
      3 C         -10.2357  -20.0114   18.7565 C.ar    1  UNL1        0.0522
      4 C         -10.0842  -19.0143   19.8668 C.ar    1  UNL1        0.1482
      5 C          -8.7352  -18.7681   20.4748 C.ar    1  UNL1        0.0612
      6 C          -7.5379  -19.5191   19.9726 C.ar    1  UNL1        0.1374
      7 N          -7.6894  -20.5162   18.8623 N.ar    1  UNL1       -0.2449
      8 C          -6.1888  -19.2729   20.5807 C.2     1  UNL1        0.2684
      9 O          -5.9018  -19.7315   21.9797 O.2     1  UNL1       -0.2681
     10 N          -5.1270  -18.5681   19.7897 N.am    1  UNL1       -0.2645
     11 H          -5.3154  -18.2671   18.8715 H       1  UNL1        0.1566
     12 C          -3.7780  -18.3220   20.3978 C.ar    1  UNL1        0.1367
     13 C          -2.5354  -18.6258   19.6143 C.ar    1  UNL1        0.0641
     14 C          -1.1865  -18.3796   20.2224 C.ar    1  UNL1        0.1445
     15 F           0.0561  -18.6834   19.4390 F       1  UNL1       -0.2040
     16 C          -1.0801  -17.8296   21.6139 C.ar    1  UNL1        0.0504
     17 C          -2.3226  -17.5258   22.3973 C.ar    1  UNL1        0.1026
     18 N          -3.6716  -17.7720   21.7892 N.ar    1  UNL1       -0.2289
     19 O         -11.2816  -18.2633   20.3690 O.3     1  UNL1       -0.4518
     20 C         -11.7041  -18.3972   21.8021 C.ar    1  UNL1        0.1666
     21 C         -12.9929  -17.7846   22.2644 C.ar    1  UNL1        0.1364
     22 N         -13.4154  -17.9185   23.6975 N.ar    1  UNL1       -0.2368
     23 C         -12.5489  -18.6650   24.6682 C.ar    1  UNL1        0.1286
     24 C         -11.2601  -19.2775   24.2058 C.ar    1  UNL1        0.1623
     25 F         -10.3937  -20.0239   25.1765 F       1  UNL1       -0.2024
     26 C         -10.8377  -19.1436   22.7727 C.ar    1  UNL1        0.0703
@<TRIPOS>BOND
     1     1     2    1
     2     2     3   ar
     3     3     4   ar
     4     4    19    1
     5    19    20    1
     6    20    21   ar
     7    21    22   ar
     8    22    23   ar
     9    23    24   ar
    10    24    25    1
    11    24    26   ar
    12     4     5   ar
    13     5     6   ar
    14     6     8    1
    15     8     9    2
    16     8    10   am
    17    10    12    1
    18    12    13   ar
    19    13    14   ar
    20    14    15    1
    21    14    16   ar
    22    16    17   ar
    23    17    18   ar
    24     6     7   ar
    25     7     2   ar
    26    26    20   ar
    27    18    12   ar
    28    10    11    1
@<TRIPOS>MOLECULE
*****
 26 28 0 0 0
SMALL
GASTEIGER

@<TRIPOS>ATOM
      1 C          -5.7818  -14.6004   26.8668 C.3     1  UNL1        0.0522
      2 C          -5.7161  -15.4395   25.6251 C.ar    1  UNL1        0.0625
      3 C          -4.4185  -16.0690   25.2132 C.ar    1  UNL1        0.0522
      4 C          -4.3527  -16.9081   23.9716 C.ar    1  UNL1        0.1482
      5 C          -5.5846  -17.1175   23.1418 C.ar    1  UNL1        0.0612
      6 C          -6.8823  -16.4880   23.5538 C.ar    1  UNL1        0.1374
      7 N          -6.9480  -15.6490   24.7954 N.ar    1  UNL1       -0.2449
      8 C          -8.1143  -16.6975   22.7241 C.2     1  UNL1        0.2684
      9 O          -7.9956  -17.2263   21.3254 O.2     1  UNL1       -0.2681
     10 N          -9.4649  -16.3781   23.2930 N.am    1  UNL1       -0.2645
     11 H          -9.5428  -16.0311   24.2110 H       1  UNL1        0.1566
     12 C         -10.6969  -16.5876   22.4633 C.ar    1  UNL1        0.1367
     13 C         -10.8325  -15.9027   21.1357 C.ar    1  UNL1        0.0641
     14 C         -12.0644  -16.1121   20.3061 C.ar    1  UNL1        0.1445
     15 F         -12.2001  -15.4272   18.9785 F       1  UNL1       -0.2040
     16 C         -13.1608  -17.0066   20.8040 C.ar    1  UNL1        0.0504
     17 C         -13.0253  -17.6915   22.1315 C.ar    1  UNL1        0.1026
     18 N         -11.7933  -17.4821   22.9612 N.ar    1  UNL1       -0.2289
     19 O          -3.0550  -17.5376   23.5596 O.3     1  UNL1       -0.4518
     20 C          -2.9183  -18.1520   22.1980 C.ar    1  UNL1        0.1666
     21 C          -3.3310  -19.5765   21.9731 C.ar    1  UNL1        0.1364
     22 N          -3.1943  -20.1908   20.6115 N.ar    1  UNL1       -0.2368
     23 C          -2.6450  -19.3807   19.4749 C.ar    1  UNL1        0.1286
     24 C          -2.2323  -17.9562   19.6998 C.ar    1  UNL1        0.1623
     25 F          -1.6830  -17.1461   18.5632 F       1  UNL1       -0.2024
     26 C          -2.3690  -17.3419   21.0614 C.ar    1  UNL1        0.0703
@<TRIPOS>BOND
     1     1     2    1
     2     2     3   ar
     3     3     4   ar
     4     4    19    1
     5    19    20    1
     6    20    21   ar
     7    21    22   ar
     8    22    23   ar
     9    23    24   ar
    10    24    25    1
    11    24    26   ar
    12     4     5   ar
    13     5     6   ar
    14     6     8    1
    15     8     9    2
    16     8    10   am
    17    10    12    1
    18    12    13   ar
    19    13    14   ar
    20    14    15    1
    21    14    16   ar
    22    16    17   ar
    23    17    18   ar
    24     6     7   ar
    25     7     2   ar
    26    26    20   ar
    27    18    12   ar
    28    10    11    1
@<TRIPOS>MOLECULE
*****
 26 28 0 0 0
SMALL
GASTEIGER

@<TRIPOS>ATOM
      1 C         -11.6461  -19.6516   20.8363 C.3     1  UNL1        0.0522
      2 C         -10.4411  -18.9942   21.4412 C.ar    1  UNL1        0.0625
      3 C         -10.6084  -17.9903   22.5430 C.ar    1  UNL1        0.0522
      4 C          -9.4034  -17.3329   23.1479 C.ar    1  UNL1        0.1482
      5 C          -8.0312  -17.6794   22.6509 C.ar    1  UNL1        0.0612
      6 C          -7.8640  -18.6833   21.5490 C.ar    1  UNL1        0.1374
      7 N          -9.0690  -19.3407   20.9442 N.ar    1  UNL1       -0.2449
      8 C          -6.4918  -19.0298   21.0520 C.2     1  UNL1        0.2684
      9 O          -6.3089  -20.1571   20.0794 O.2     1  UNL1       -0.2681
     10 N          -5.3025  -18.2491   21.5274 N.am    1  UNL1       -0.2645
     11 H          -5.4226  -17.5092   22.1657 H       1  UNL1        0.1566
     12 C          -3.9303  -18.5956   21.0304 C.ar    1  UNL1        0.1367
     13 C          -3.4653  -18.0887   19.6974 C.ar    1  UNL1        0.0641
     14 C          -2.0931  -18.4352   19.2004 C.ar    1  UNL1        0.1445
     15 F          -1.6280  -17.9283   17.8674 F       1  UNL1       -0.2040
     16 C          -1.1860  -19.2887   20.0364 C.ar    1  UNL1        0.0504
     17 C          -1.6510  -19.7956   21.3693 C.ar    1  UNL1        0.1026
     18 N          -3.0232  -19.4490   21.8663 N.ar    1  UNL1       -0.2289
     19 O          -9.5707  -16.3290   24.2499 O.3     1  UNL1       -0.4518
     20 C          -8.3762  -15.8654   25.0298 C.ar    1  UNL1        0.1666
     21 C          -7.3787  -14.9418   24.3956 C.ar    1  UNL1        0.1364
     22 N          -6.1842  -14.4782   25.1755 N.ar    1  UNL1       -0.2368
     23 C          -5.9871  -14.9383   26.5896 C.ar    1  UNL1        0.1286
     24 C          -6.9845  -15.8619   27.2237 C.ar    1  UNL1        0.1623
     25 F          -6.7875  -16.3220   28.6378 F       1  UNL1       -0.2024
     26 C          -8.1790  -16.3255   26.4438 C.ar    1  UNL1        0.0703
@<TRIPOS>BOND
     1     1     2    1
     2     2     3   ar
     3     3     4   ar
     4     4    19    1
     5    19    20    1
     6    20    21   ar
     7    21    22   ar
     8    22    23   ar
     9    23    24   ar
    10    24    25    1
    11    24    26   ar
    12     4     5   ar
    13     5     6   ar
    14     6     8    1
    15     8     9    2
    16     8    10   am
    17    10    12    1
    18    12    13   ar
    19    13    14   ar
    20    14    15    1
    21    14    16   ar
    22    16    17   ar
    23    17    18   ar
    24     6     7   ar
    25     7     2   ar
    26    26    20   ar
    27    18    12   ar
    28    10    11    1
@<TRIPOS>MOLECULE
*****
 26 28 0 0 0
SMALL
GASTEIGER

@<TRIPOS>ATOM
      1 C         -12.8676  -17.8577   21.3625 C.3     1  UNL1        0.0522
      2 C         -11.4915  -17.5919   21.8969 C.ar    1  UNL1        0.0625
      3 C         -11.3112  -16.7202   23.1043 C.ar    1  UNL1        0.0522
      4 C          -9.9351  -16.4544   23.6387 C.ar    1  UNL1        0.1482
      5 C          -8.7392  -17.0602   22.9658 C.ar    1  UNL1        0.0612
      6 C          -8.9195  -17.9319   21.7585 C.ar    1  UNL1        0.1374
      7 N         -10.2956  -18.1977   21.2241 N.ar    1  UNL1       -0.2449
      8 C          -7.7236  -18.5378   21.0856 C.2     1  UNL1        0.2684
      9 O          -7.8301  -19.0390   19.6758 O.2     1  UNL1       -0.2681
     10 N          -6.4213  -18.6425   21.8224 N.am    1  UNL1       -0.2645
     11 H          -6.3514  -18.3135   22.7477 H       1  UNL1        0.1566
     12 C          -5.2254  -19.2484   21.1495 C.ar    1  UNL1        0.1367
     13 C          -3.8916  -18.5673   21.2347 C.ar    1  UNL1        0.0641
     14 C          -2.6958  -19.1732   20.5617 C.ar    1  UNL1        0.1445
     15 F          -1.3620  -18.4922   20.6469 F       1  UNL1       -0.2040
     16 C          -2.8338  -20.4602   19.8036 C.ar    1  UNL1        0.0504
     17 C          -4.1675  -21.1412   19.7184 C.ar    1  UNL1        0.1026
     18 N          -5.3633  -20.5353   20.3913 N.ar    1  UNL1       -0.2289
     19 O          -9.7549  -15.5827   24.8461 O.3     1  UNL1       -0.4518
     20 C          -8.3963  -15.4266   25.4624 C.ar    1  UNL1        0.1666
     21 C          -8.2507  -15.3782   26.9546 C.ar    1  UNL1        0.1364
     22 N          -6.8921  -15.2221   27.5709 N.ar    1  UNL1       -0.2368
     23 C          -5.6791  -15.1144   26.6950 C.ar    1  UNL1        0.1286
     24 C          -5.8247  -15.1628   25.2029 C.ar    1  UNL1        0.1623
     25 F          -4.6117  -15.0551   24.3270 F       1  UNL1       -0.2024
     26 C          -7.1833  -15.3189   24.5866 C.ar    1  UNL1        0.0703
@<TRIPOS>BOND
     1     1     2    1
     2     2     3   ar
     3     3     4   ar
     4     4    19    1
     5    19    20    1
     6    20    21   ar
     7    21    22   ar
     8    22    23   ar
     9    23    24   ar
    10    24    25    1
    11    24    26   ar
    12     4     5   ar
    13     5     6   ar
    14     6     8    1
    15     8     9    2
    16     8    10   am
    17    10    12    1
    18    12    13   ar
    19    13    14   ar
    20    14    15    1
    21    14    16   ar
    22    16    17   ar
    23    17    18   ar
    24     6     7   ar
    25     7     2   ar
    26    26    20   ar
    27    18    12   ar
    28    10    11    1
@<TRIPOS>MOLECULE
*****
 26 28 0 0 0
SMALL
GASTEIGER

@<TRIPOS>ATOM
      1 C           3.2847   -0.5317   24.3341 C.3     1  UNL1        0.0522
      2 C           4.0862   -1.6535   23.7433 C.ar    1  UNL1        0.0625
      3 C           3.9374   -1.9978   22.2911 C.ar    1  UNL1        0.0522
      4 C           4.7390   -3.1196   21.7003 C.ar    1  UNL1        0.1482
      5 C           5.6894   -3.8971   22.5618 C.ar    1  UNL1        0.0612
      6 C           5.8382   -3.5527   24.0141 C.ar    1  UNL1        0.1374
      7 N           5.0367   -2.4309   24.6049 N.ar    1  UNL1       -0.2449
      8 C           6.7887   -4.3302   24.8757 C.2     1  UNL1        0.2684
      9 O           8.2248   -4.4741   24.4673 O.2     1  UNL1       -0.2681
     10 N           6.3030   -4.9637   26.1455 N.am    1  UNL1       -0.2645
     11 H           5.3604   -4.8693   26.4136 H       1  UNL1        0.1566
     12 C           7.2534   -5.7412   27.0071 C.ar    1  UNL1        0.1367
     13 C           7.4873   -7.1985   26.7399 C.ar    1  UNL1        0.0641
     14 C           8.4377   -7.9759   27.6015 C.ar    1  UNL1        0.1445
     15 F           8.6716   -9.4333   27.3343 F       1  UNL1       -0.2040
     16 C           9.1543   -7.2959   28.7303 C.ar    1  UNL1        0.0504
     17 C           8.9204   -5.8386   28.9975 C.ar    1  UNL1        0.1026
     18 N           7.9700   -5.0612   28.1359 N.ar    1  UNL1       -0.2289
     19 O           4.5901   -3.4640   20.2479 O.3     1  UNL1       -0.4518
     20 C           4.8017   -2.4101   19.2017 C.ar    1  UNL1        0.1666
     21 C           6.0867   -2.3678   18.4289 C.ar    1  UNL1        0.1364
     22 N           6.2983   -1.3138   17.3828 N.ar    1  UNL1       -0.2368
     23 C           5.2250   -0.3022   17.1094 C.ar    1  UNL1        0.1286
     24 C           3.9401   -0.3445   17.8822 C.ar    1  UNL1        0.1623
     25 F           2.8668    0.6671   17.6088 F       1  UNL1       -0.2024
     26 C           3.7285   -1.3985   18.9283 C.ar    1  UNL1        0.0703
@<TRIPOS>BOND
     1     1     2    1
     2     2     3   ar
     3     3     4   ar
     4     4    19    1
     5    19    20    1
     6    20    21   ar
     7    21    22   ar
     8    22    23   ar
     9    23    24   ar
    10    24    25    1
    11    24    26   ar
    12     4     5   ar
    13     5     6   ar
    14     6     8    1
    15     8     9    2
    16     8    10   am
    17    10    12    1
    18    12    13   ar
    19    13    14   ar
    20    14    15    1
    21    14    16   ar
    22    16    17   ar
    23    17    18   ar
    24     6     7   ar
    25     7     2   ar
    26    26    20   ar
    27    18    12   ar
    28    10    11    1
@<TRIPOS>MOLECULE
*****
 26 28 0 0 0
SMALL
GASTEIGER

@<TRIPOS>ATOM
      1 C         -10.1534  -20.2205   18.6160 C.3     1  UNL1        0.0522
      2 C          -9.2136  -19.8729   19.7322 C.ar    1  UNL1        0.0625
      3 C          -9.7522  -19.5683   21.0986 C.ar    1  UNL1        0.0522
      4 C          -8.8125  -19.2207   22.2149 C.ar    1  UNL1        0.1482
      5 C          -7.3341  -19.1778   21.9648 C.ar    1  UNL1        0.0612
      6 C          -6.7955  -19.4825   20.5984 C.ar    1  UNL1        0.1374
      7 N          -7.7353  -19.8300   19.4821 N.ar    1  UNL1       -0.2449
      8 C          -5.3171  -19.4396   20.3483 C.2     1  UNL1        0.2684
      9 O          -4.5868  -20.6888   19.9533 O.2     1  UNL1       -0.2681
     10 N          -4.5691  -18.1475   20.4930 N.am    1  UNL1       -0.2645
     11 H          -5.0485  -17.3276   20.7522 H       1  UNL1        0.1566
     12 C          -3.0907  -18.1046   20.2429 C.ar    1  UNL1        0.1367
     13 C          -2.5709  -17.9508   18.8443 C.ar    1  UNL1        0.0641
     14 C          -1.0925  -17.9080   18.5942 C.ar    1  UNL1        0.1445
     15 F          -0.5726  -17.7542   17.1956 F       1  UNL1       -0.2040
     16 C          -0.1340  -18.0189   19.7427 C.ar    1  UNL1        0.0504
     17 C          -0.6539  -18.1726   21.1412 C.ar    1  UNL1        0.1026
     18 N          -2.1322  -18.2155   21.3913 N.ar    1  UNL1       -0.2289
     19 O          -9.3512  -18.9160   23.5813 O.3     1  UNL1       -0.4518
     20 C         -10.7708  -18.4594   23.7432 C.ar    1  UNL1        0.1666
     21 C         -11.7042  -19.2159   24.6414 C.ar    1  UNL1        0.1364
     22 N         -13.1238  -18.7593   24.8033 N.ar    1  UNL1       -0.2368
     23 C         -13.6100  -17.5462   24.0669 C.ar    1  UNL1        0.1286
     24 C         -12.6767  -16.7899   23.1688 C.ar    1  UNL1        0.1623
     25 F         -13.1629  -15.5768   22.4324 F       1  UNL1       -0.2024
     26 C         -11.2571  -17.2465   23.0069 C.ar    1  UNL1        0.0703
@<TRIPOS>BOND
     1     1     2    1
     2     2     3   ar
     3     3     4   ar
     4     4    19    1
     5    19    20    1
     6    20    21   ar
     7    21    22   ar
     8    22    23   ar
     9    23    24   ar
    10    24    25    1
    11    24    26   ar
    12     4     5   ar
    13     5     6   ar
    14     6     8    1
    15     8     9    2
    16     8    10   am
    17    10    12    1
    18    12    13   ar
    19    13    14   ar
    20    14    15    1
    21    14    16   ar
    22    16    17   ar
    23    17    18   ar
    24     6     7   ar
    25     7     2   ar
    26    26    20   ar
    27    18    12   ar
    28    10    11    1
