@<TRIPOS>MOLECULE
*****
 22 24 0 0 0
SMALL
GASTEIGER

@<TRIPOS>ATOM
      1 C          -9.3303  -18.7493   23.5158 C.ar    1  UNL1       -0.0208
      2 C          -8.5519  -17.4826   23.3172 C.ar    1  UNL1       -0.0042
      3 C          -7.1794  -17.5325   22.7141 C.ar    1  UNL1        0.0012
      4 C          -6.5854  -18.8491   22.3095 C.ar    1  UNL1        0.0193
      5 C          -7.3638  -20.1158   22.5081 C.ar    1  UNL1        0.0012
      6 C          -8.7363  -20.0659   23.1112 C.ar    1  UNL1       -0.0042
      7 C          -5.2129  -18.8990   21.7064 C.ar    1  UNL1        0.1011
      8 C          -4.8286  -20.0384   20.8097 C.ar    1  UNL1        0.0258
      9 C          -3.4561  -20.0883   20.2065 C.ar    1  UNL1        0.0638
     10 C          -2.4679  -18.9987   20.5001 C.ar    1  UNL1        0.2765
     11 O          -1.0954  -19.0485   19.8970 O.2     1  UNL1       -0.2655
     12 N          -2.8522  -17.8592   21.3968 N.ar    1  UNL1       -0.2146
     13 C          -1.8639  -16.7696   21.6904 C.3     1  UNL1        0.1571
     14 N          -4.2246  -17.8094   21.9999 N.ar    1  UNL1       -0.1668
     15 C         -10.7029  -18.6994   24.1190 C.3     1  UNL1        0.0437
     16 C         -11.9052  -18.5453   23.2355 C.3     1  UNL1        0.0768
     17 C         -10.8526  -19.7734   20.4012 C.3     1  UNL1        0.0173
     18 C         -11.3087  -18.3640   20.6361 C.3     1  UNL1        0.0576
     19 C         -11.3611  -17.2715   19.6096 C.3     1  UNL1        0.0174
     20 C         -11.8774  -16.0318   20.2779 C.3     1  UNL1        0.0187
     21 C         -12.1440  -16.3581   21.7176 C.3     1  UNL1        0.0721
     22 N         -11.7925  -17.7995   21.9389 N.3     1  UNL1       -0.2737
@<TRIPOS>BOND
     1    18    17    1
     2    18    19    1
     3    19    20    1
     4    20    21    1
     5    21    22    1
     6    22    16    1
     7    16    15    1
     8    15     1    1
     9     1     2   ar
    10     2     3   ar
    11     3     4   ar
    12     4     7    1
    13     7     8   ar
    14     8     9   ar
    15     9    10   ar
    16    10    11    2
    17    10    12   ar
    18    12    13    1
    19    12    14   ar
    20     4     5   ar
    21     5     6   ar
    22    22    18    1
    23     6     1   ar
    24    14     7   ar
@<TRIPOS>MOLECULE
*****
 22 24 0 0 0
SMALL
GASTEIGER

@<TRIPOS>ATOM
      1 C          -5.4697  -20.0119   20.5945 C.ar    1  UNL1       -0.0208
      2 C          -5.8970  -20.4456   21.9653 C.ar    1  UNL1       -0.0042
      3 C          -7.2607  -20.0846   22.4750 C.ar    1  UNL1        0.0012
      4 C          -8.1971  -19.2898   21.6139 C.ar    1  UNL1        0.0193
      5 C          -7.7698  -18.8561   20.2431 C.ar    1  UNL1        0.0012
      6 C          -6.4061  -19.2171   19.7334 C.ar    1  UNL1       -0.0042
      7 C          -9.5609  -18.9288   22.1237 C.ar    1  UNL1        0.1011
      8 C         -10.1044  -19.5986   23.3509 C.ar    1  UNL1        0.0258
      9 C         -11.4682  -19.2376   23.8607 C.ar    1  UNL1        0.0638
     10 C         -12.2885  -18.2068   23.1432 C.ar    1  UNL1        0.2765
     11 O         -13.6522  -17.8458   23.6529 O.2     1  UNL1       -0.2655
     12 N         -11.7449  -17.5370   21.9160 N.ar    1  UNL1       -0.2146
     13 C         -12.5651  -16.5063   21.1985 C.3     1  UNL1        0.1571
     14 N         -10.3812  -17.8981   21.4063 N.ar    1  UNL1       -0.1668
     15 C          -4.1059  -20.3729   20.0847 C.3     1  UNL1        0.0437
     16 C          -2.8920  -20.0736   20.9134 C.3     1  UNL1        0.0768
     17 C          -3.7171  -17.8081   23.1125 C.3     1  UNL1        0.0173
     18 C          -2.7356  -17.6327   21.9918 C.3     1  UNL1        0.0576
     19 C          -1.9611  -16.3853   21.6852 C.3     1  UNL1        0.0174
     20 C          -1.1032  -16.6557   20.4848 C.3     1  UNL1        0.0187
     21 C          -1.3474  -18.0703   20.0496 C.3     1  UNL1        0.0721
     22 N          -2.3564  -18.6741   20.9810 N.3     1  UNL1       -0.2737
@<TRIPOS>BOND
     1    18    17    1
     2    18    19    1
     3    19    20    1
     4    20    21    1
     5    21    22    1
     6    22    16    1
     7    16    15    1
     8    15     1    1
     9     1     2   ar
    10     2     3   ar
    11     3     4   ar
    12     4     7    1
    13     7     8   ar
    14     8     9   ar
    15     9    10   ar
    16    10    11    2
    17    10    12   ar
    18    12    13    1
    19    12    14   ar
    20     4     5   ar
    21     5     6   ar
    22    22    18    1
    23     6     1   ar
    24    14     7   ar
@<TRIPOS>MOLECULE
*****
 22 24 0 0 0
SMALL
GASTEIGER

@<TRIPOS>ATOM
      1 C          -9.2738  -19.7428   21.3598 C.ar    1  UNL1       -0.0208
      2 C          -8.7123  -19.5423   19.9834 C.ar    1  UNL1       -0.0042
      3 C          -7.2351  -19.3625   19.7950 C.ar    1  UNL1        0.0012
      4 C          -6.3194  -19.3834   20.9829 C.ar    1  UNL1        0.0193
      5 C          -6.8810  -19.5839   22.3593 C.ar    1  UNL1        0.0012
      6 C          -8.3582  -19.7636   22.5477 C.ar    1  UNL1       -0.0042
      7 C          -4.8421  -19.2037   20.7944 C.ar    1  UNL1        0.1011
      8 C          -3.8818  -19.8109   21.7737 C.ar    1  UNL1        0.0258
      9 C          -2.4045  -19.6311   21.5852 C.ar    1  UNL1        0.0638
     10 C          -1.8877  -18.8442   20.4175 C.ar    1  UNL1        0.2765
     11 O          -0.4105  -18.6644   20.2289 O.2     1  UNL1       -0.2655
     12 N          -2.8482  -18.2370   19.4382 N.ar    1  UNL1       -0.2146
     13 C          -2.3314  -17.4500   18.2705 C.3     1  UNL1        0.1571
     14 N          -4.3253  -18.4167   19.6267 N.ar    1  UNL1       -0.1668
     15 C         -10.7511  -19.9225   21.5483 C.3     1  UNL1        0.0437
     16 C         -11.6276  -18.7287   21.7858 C.3     1  UNL1        0.0768
     17 C          -9.6914  -16.3709   22.9439 C.3     1  UNL1        0.0173
     18 C         -10.4314  -16.3427   21.6394 C.3     1  UNL1        0.0576
     19 C         -10.4113  -15.2259   20.6383 C.3     1  UNL1        0.0174
     20 C         -11.2889  -15.6194   19.4872 C.3     1  UNL1        0.0187
     21 C         -11.8514  -16.9795   19.7769 C.3     1  UNL1        0.0721
     22 N         -11.3213  -17.4265   21.1071 N.3     1  UNL1       -0.2737
@<TRIPOS>BOND
     1    18    17    1
     2    18    19    1
     3    19    20    1
     4    20    21    1
     5    21    22    1
     6    22    16    1
     7    16    15    1
     8    15     1    1
     9     1     2   ar
    10     2     3   ar
    11     3     4   ar
    12     4     7    1
    13     7     8   ar
    14     8     9   ar
    15     9    10   ar
    16    10    11    2
    17    10    12   ar
    18    12    13    1
    19    12    14   ar
    20     4     5   ar
    21     5     6   ar
    22    22    18    1
    23     6     1   ar
    24    14     7   ar
@<TRIPOS>MOLECULE
*****
 22 24 0 0 0
SMALL
GASTEIGER

@<TRIPOS>ATOM
      1 C          -4.7447  -17.7461   23.1325 C.ar    1  UNL1       -0.0208
      2 C          -5.5899  -16.5826   23.5588 C.ar    1  UNL1       -0.0042
      3 C          -7.0592  -16.5727   23.2573 C.ar    1  UNL1        0.0012
      4 C          -7.6833  -17.7263   22.5295 C.ar    1  UNL1        0.0193
      5 C          -6.8381  -18.8898   22.1032 C.ar    1  UNL1        0.0012
      6 C          -5.3688  -18.8997   22.4047 C.ar    1  UNL1       -0.0042
      7 C          -9.1527  -17.7164   22.2279 C.ar    1  UNL1        0.1011
      8 C         -10.0877  -18.5773   23.0246 C.ar    1  UNL1        0.0258
      9 C         -11.5571  -18.5673   22.7231 C.ar    1  UNL1        0.0638
     10 C         -12.0914  -17.6964   21.6249 C.ar    1  UNL1        0.2765
     11 O         -13.5607  -17.6865   21.3233 O.2     1  UNL1       -0.2655
     12 N         -11.1564  -16.8355   20.8282 N.ar    1  UNL1       -0.2146
     13 C         -11.6908  -15.9646   19.7300 C.3     1  UNL1        0.1571
     14 N          -9.6871  -16.8455   21.1297 N.ar    1  UNL1       -0.1668
     15 C          -3.2753  -17.7561   23.4341 C.3     1  UNL1        0.0437
     16 C          -2.3467  -18.5997   22.6120 C.3     1  UNL1        0.0768
     17 C          -3.5347  -20.3225   20.1080 C.3     1  UNL1        0.0173
     18 C          -2.6915  -19.0861   20.0063 C.3     1  UNL1        0.0576
     19 C          -2.2464  -18.4246   18.7358 C.3     1  UNL1        0.0174
     20 C          -1.4252  -17.2237   19.1015 C.3     1  UNL1        0.0187
     21 C          -1.3628  -17.1432   20.5982 C.3     1  UNL1        0.0721
     22 N          -2.1455  -18.2943   21.1572 N.3     1  UNL1       -0.2737
@<TRIPOS>BOND
     1    18    17    1
     2    18    19    1
     3    19    20    1
     4    20    21    1
     5    21    22    1
     6    22    16    1
     7    16    15    1
     8    15     1    1
     9     1     2   ar
    10     2     3   ar
    11     3     4   ar
    12     4     7    1
    13     7     8   ar
    14     8     9   ar
    15     9    10   ar
    16    10    11    2
    17    10    12   ar
    18    12    13    1
    19    12    14   ar
    20     4     5   ar
    21     5     6   ar
    22    22    18    1
    23     6     1   ar
    24    14     7   ar
@<TRIPOS>MOLECULE
*****
 22 24 0 0 0
SMALL
GASTEIGER

@<TRIPOS>ATOM
      1 C          -4.7971  -17.7925   23.0238 C.ar    1  UNL1       -0.0208
      2 C          -5.6363  -16.6376   23.4842 C.ar    1  UNL1       -0.0042
      3 C          -7.1213  -16.6587   23.2738 C.ar    1  UNL1        0.0012
      4 C          -7.7671  -17.8347   22.6029 C.ar    1  UNL1        0.0193
      5 C          -6.9279  -18.9896   22.1426 C.ar    1  UNL1        0.0012
      6 C          -5.4429  -18.9685   22.3530 C.ar    1  UNL1       -0.0042
      7 C          -9.2522  -17.8558   22.3925 C.ar    1  UNL1        0.1011
      8 C          -9.8231  -17.5344   21.0432 C.ar    1  UNL1        0.0258
      9 C         -11.3082  -17.5555   20.8327 C.ar    1  UNL1        0.0638
     10 C         -12.2222  -17.8980   21.9717 C.ar    1  UNL1        0.2765
     11 O         -13.7072  -17.9190   21.7613 O.2     1  UNL1       -0.2655
     12 N         -11.6512  -18.2193   23.3211 N.ar    1  UNL1       -0.2146
     13 C         -12.5653  -18.5618   24.4600 C.3     1  UNL1        0.1571
     14 N         -10.1662  -18.1982   23.5314 N.ar    1  UNL1       -0.1668
     15 C          -3.3121  -17.7714   23.2343 C.3     1  UNL1        0.0437
     16 C          -2.4293  -18.6899   22.4425 C.3     1  UNL1        0.0768
     17 C          -3.7520  -19.9585   19.7424 C.3     1  UNL1        0.0173
     18 C          -2.6662  -18.9248   19.7903 C.3     1  UNL1        0.0576
     19 C          -1.9977  -18.2927   18.6056 C.3     1  UNL1        0.0174
     20 C          -0.9765  -17.3189   19.1145 C.3     1  UNL1        0.0187
     21 C          -1.0139  -17.3491   20.6138 C.3     1  UNL1        0.0721
     22 N          -2.0582  -18.3417   21.0314 N.3     1  UNL1       -0.2737
@<TRIPOS>BOND
     1    18    17    1
     2    18    19    1
     3    19    20    1
     4    20    21    1
     5    21    22    1
     6    22    16    1
     7    16    15    1
     8    15     1    1
     9     1     2   ar
    10     2     3   ar
    11     3     4   ar
    12     4     7    1
    13     7     8   ar
    14     8     9   ar
    15     9    10   ar
    16    10    11    2
    17    10    12   ar
    18    12    13    1
    19    12    14   ar
    20     4     5   ar
    21     5     6   ar
    22    22    18    1
    23     6     1   ar
    24    14     7   ar
@<TRIPOS>MOLECULE
*****
 22 24 0 0 0
SMALL
GASTEIGER

@<TRIPOS>ATOM
      1 C          -8.2725  -19.3219   23.1992 C.ar    1  UNL1       -0.0208
      2 C          -7.6271  -17.9683   23.1656 C.ar    1  UNL1       -0.0042
      3 C          -6.3349  -17.7716   22.4299 C.ar    1  UNL1        0.0012
      4 C          -5.6880  -18.9286   21.7277 C.ar    1  UNL1        0.0193
      5 C          -6.3333  -20.2822   21.7614 C.ar    1  UNL1        0.0012
      6 C          -7.6256  -20.4789   22.4971 C.ar    1  UNL1       -0.0042
      7 C          -4.3957  -18.7319   20.9920 C.ar    1  UNL1        0.1011
      8 C          -4.0567  -19.6094   19.8237 C.ar    1  UNL1        0.0258
      9 C          -2.7643  -19.4127   19.0879 C.ar    1  UNL1        0.0638
     10 C          -1.8111  -18.3384   19.5205 C.ar    1  UNL1        0.2765
     11 O          -0.5188  -18.1416   18.7848 O.2     1  UNL1       -0.2655
     12 N          -2.1502  -17.4608   20.6888 N.ar    1  UNL1       -0.2146
     13 C          -1.1969  -16.3864   21.1214 C.3     1  UNL1        0.1571
     14 N          -3.4424  -17.6575   21.4245 N.ar    1  UNL1       -0.1668
     15 C          -9.5648  -19.5186   23.9350 C.3     1  UNL1        0.0437
     16 C         -10.8312  -19.7718   23.1720 C.3     1  UNL1        0.0768
     17 C         -12.2623  -17.7293   21.0675 C.3     1  UNL1        0.0173
     18 C         -12.7066  -17.9994   22.4744 C.3     1  UNL1        0.0576
     19 C         -13.8866  -17.3781   23.1611 C.3     1  UNL1        0.0174
     20 C         -13.9582  -17.9330   24.5529 C.3     1  UNL1        0.0187
     21 C         -12.8222  -18.8973   24.7264 C.3     1  UNL1        0.0721
     22 N         -12.0488  -18.9383   23.4418 N.3     1  UNL1       -0.2737
@<TRIPOS>BOND
     1    18    17    1
     2    18    19    1
     3    19    20    1
     4    20    21    1
     5    21    22    1
     6    22    16    1
     7    16    15    1
     8    15     1    1
     9     1     2   ar
    10     2     3   ar
    11     3     4   ar
    12     4     7    1
    13     7     8   ar
    14     8     9   ar
    15     9    10   ar
    16    10    11    2
    17    10    12   ar
    18    12    13    1
    19    12    14   ar
    20     4     5   ar
    21     5     6   ar
    22    22    18    1
    23     6     1   ar
    24    14     7   ar
@<TRIPOS>MOLECULE
*****
 22 24 0 0 0
SMALL
GASTEIGER

@<TRIPOS>ATOM
      1 C         -13.8867   -3.9861   19.7746 C.ar    1  UNL1       -0.0208
      2 C         -13.4008   -5.4049   19.7490 C.ar    1  UNL1       -0.0042
      3 C         -14.3582   -6.5202   19.4501 C.ar    1  UNL1        0.0012
      4 C         -15.8015   -6.2167   19.1768 C.ar    1  UNL1        0.0193
      5 C         -16.2874   -4.7978   19.2023 C.ar    1  UNL1        0.0012
      6 C         -15.3300   -3.6825   19.5012 C.ar    1  UNL1       -0.0042
      7 C         -16.7589   -7.3321   18.8778 C.ar    1  UNL1        0.1011
      8 C         -16.9469   -8.4443   19.8665 C.ar    1  UNL1        0.0258
      9 C         -17.9043   -9.5597   19.5676 C.ar    1  UNL1        0.0638
     10 C         -18.6737   -9.5628   18.2800 C.ar    1  UNL1        0.2765
     11 O         -19.6311  -10.6782   17.9810 O.2     1  UNL1       -0.2655
     12 N         -18.4857   -8.4505   17.2912 N.ar    1  UNL1       -0.2146
     13 C         -19.2551   -8.4536   16.0036 C.3     1  UNL1        0.1571
     14 N         -17.5283   -7.3352   17.5902 N.ar    1  UNL1       -0.1668
     15 C         -12.9292   -2.8707   20.0735 C.3     1  UNL1        0.0437
     16 C         -11.9552   -2.4176   19.0267 C.3     1  UNL1        0.0768
     17 C         -12.8144   -3.5584   16.0925 C.3     1  UNL1        0.0173
     18 C         -11.5936   -3.9538   16.8692 C.3     1  UNL1        0.0576
     19 C         -10.5535   -4.9429   16.4337 C.3     1  UNL1        0.0174
     20 C          -9.5156   -5.0299   17.5133 C.3     1  UNL1        0.0187
     21 C          -9.9144   -4.0944   18.6161 C.3     1  UNL1        0.0721
     22 N         -11.1987   -3.4294   18.2179 N.3     1  UNL1       -0.2737
@<TRIPOS>BOND
     1    18    17    1
     2    18    19    1
     3    19    20    1
     4    20    21    1
     5    21    22    1
     6    22    16    1
     7    16    15    1
     8    15     1    1
     9     1     2   ar
    10     2     3   ar
    11     3     4   ar
    12     4     7    1
    13     7     8   ar
    14     8     9   ar
    15     9    10   ar
    16    10    11    2
    17    10    12   ar
    18    12    13    1
    19    12    14   ar
    20     4     5   ar
    21     5     6   ar
    22    22    18    1
    23     6     1   ar
    24    14     7   ar
@<TRIPOS>MOLECULE
*****
 22 24 0 0 0
SMALL
GASTEIGER

@<TRIPOS>ATOM
      1 C         -13.8645   -2.7996   18.7142 C.ar    1  UNL1       -0.0208
      2 C         -14.2419   -3.7102   17.5836 C.ar    1  UNL1       -0.0042
      3 C         -15.2541   -4.7957   17.8008 C.ar    1  UNL1        0.0012
      4 C         -15.8888   -4.9705   19.1486 C.ar    1  UNL1        0.0193
      5 C         -15.5114   -4.0599   20.2792 C.ar    1  UNL1        0.0012
      6 C         -14.4992   -2.9745   20.0620 C.ar    1  UNL1       -0.0042
      7 C         -16.9011   -6.0561   19.3658 C.ar    1  UNL1        0.1011
      8 C         -18.3504   -5.7075   19.5331 C.ar    1  UNL1        0.0258
      9 C         -19.3626   -6.7931   19.7502 C.ar    1  UNL1        0.0638
     10 C         -18.9255   -8.2271   19.8001 C.ar    1  UNL1        0.2765
     11 O         -19.9376   -9.3126   20.0173 O.2     1  UNL1       -0.2655
     12 N         -17.4761   -8.5756   19.6328 N.ar    1  UNL1       -0.2146
     13 C         -17.0389  -10.0096   19.6827 C.3     1  UNL1        0.1571
     14 N         -16.4639   -7.4901   19.4156 N.ar    1  UNL1       -0.1668
     15 C         -12.8522   -1.7141   18.4970 C.3     1  UNL1        0.0437
     16 C         -11.3991   -1.9809   18.7561 C.3     1  UNL1        0.0768
     17 C         -10.9745   -5.1958   19.1214 C.3     1  UNL1        0.0173
     18 C         -10.4304   -4.3560   18.0040 C.3     1  UNL1        0.0576
     19 C          -9.5957   -4.8465   16.8583 C.3     1  UNL1        0.0174
     20 C          -9.2750   -3.6718   15.9822 C.3     1  UNL1        0.0187
     21 C          -9.9115   -2.4553   16.5865 C.3     1  UNL1        0.0721
     22 N         -10.6256   -2.8783   17.8360 N.3     1  UNL1       -0.2737
@<TRIPOS>BOND
     1    18    17    1
     2    18    19    1
     3    19    20    1
     4    20    21    1
     5    21    22    1
     6    22    16    1
     7    16    15    1
     8    15     1    1
     9     1     2   ar
    10     2     3   ar
    11     3     4   ar
    12     4     7    1
    13     7     8   ar
    14     8     9   ar
    15     9    10   ar
    16    10    11    2
    17    10    12   ar
    18    12    13    1
    19    12    14   ar
    20     4     5   ar
    21     5     6   ar
    22    22    18    1
    23     6     1   ar
    24    14     7   ar
@<TRIPOS>MOLECULE
*****
 22 24 0 0 0
SMALL
GASTEIGER

@<TRIPOS>ATOM
      1 C           1.5137    4.0463   34.8399 C.ar    1  UNL1       -0.0208
      2 C           0.6318    4.8434   33.9252 C.ar    1  UNL1       -0.0042
      3 C           0.3372    4.3422   32.5425 C.ar    1  UNL1        0.0012
      4 C           0.9246    3.0438   32.0744 C.ar    1  UNL1        0.0193
      5 C           1.8065    2.2466   32.9891 C.ar    1  UNL1        0.0012
      6 C           2.1011    2.7478   34.3718 C.ar    1  UNL1       -0.0042
      7 C           0.6300    2.5425   30.6916 C.ar    1  UNL1        0.1011
      8 C           1.1426    3.2915   29.4974 C.ar    1  UNL1        0.0258
      9 C           0.8480    2.7902   28.1146 C.ar    1  UNL1        0.0638
     10 C           0.0408    1.5400   27.9261 C.ar    1  UNL1        0.2765
     11 O          -0.2538    1.0388   26.5434 O.2     1  UNL1       -0.2655
     12 N          -0.4717    0.7911   29.1205 N.ar    1  UNL1       -0.2146
     13 C          -1.2789   -0.4591   28.9320 C.3     1  UNL1        0.1571
     14 N          -0.1772    1.2923   30.5032 N.ar    1  UNL1       -0.1668
     15 C           1.8083    4.5475   36.2227 C.3     1  UNL1        0.0437
     16 C           2.6741    3.7407   37.1442 C.3     1  UNL1        0.0768
     17 C           3.8161    0.7010   37.4689 C.3     1  UNL1        0.0173
     18 C           2.5930    1.2590   38.1341 C.3     1  UNL1        0.0576
     19 C           1.6801    0.5178   39.0654 C.3     1  UNL1        0.0174
     20 C           0.5909    1.4570   39.4917 C.3     1  UNL1        0.0187
     21 C           0.8307    2.7786   38.8239 C.3     1  UNL1        0.0721
     22 N           2.0681    2.6562   37.9849 N.3     1  UNL1       -0.2737
@<TRIPOS>BOND
     1    18    17    1
     2    18    19    1
     3    19    20    1
     4    20    21    1
     5    21    22    1
     6    22    16    1
     7    16    15    1
     8    15     1    1
     9     1     2   ar
    10     2     3   ar
    11     3     4   ar
    12     4     7    1
    13     7     8   ar
    14     8     9   ar
    15     9    10   ar
    16    10    11    2
    17    10    12   ar
    18    12    13    1
    19    12    14   ar
    20     4     5   ar
    21     5     6   ar
    22    22    18    1
    23     6     1   ar
    24    14     7   ar
