@<TRIPOS>MOLECULE
*****
 21 23 0 0 0
SMALL
GASTEIGER

@<TRIPOS>ATOM
      1 N          -7.8525  -16.7444   23.3189 N.2     1  UNL1       -0.0736
      2 C          -8.3206  -17.5811   22.1653 C.2     1  UNL1        0.1208
      3 C          -7.3028  -18.5185   21.5861 C.ar    1  UNL1        0.0169
      4 C          -5.9911  -18.4166   22.3066 C.ar    1  UNL1        0.0013
      5 C          -4.8343  -19.2723   21.8831 C.ar    1  UNL1        0.0000
      6 C          -4.9891  -20.2299   20.7390 C.ar    1  UNL1       -0.0003
      7 C          -6.3007  -20.3318   20.0184 C.ar    1  UNL1       -0.0042
      8 C          -7.4575  -19.4761   20.4420 C.ar    1  UNL1       -0.0202
      9 C          -8.6683  -19.7329   19.5946 C.3     1  UNL1        0.0327
     10 C         -10.0234  -19.0955   19.6819 C.3     1  UNL1        0.0505
     11 C         -10.5023  -18.0439   20.6384 C.ar    1  UNL1        0.0609
     12 N         -11.9350  -17.6814   20.3819 N.ar    1  UNL1       -0.2481
     13 C         -12.6100  -16.6450   21.2306 C.ar    1  UNL1        0.0984
     14 C         -11.8522  -15.9711   22.3358 C.ar    1  UNL1        0.0207
     15 C         -10.4195  -16.3335   22.5923 C.ar    1  UNL1        0.0044
     16 C          -9.7445  -17.3699   21.7436 C.ar    1  UNL1        0.0344
     17 O          -6.4450  -16.8779   23.8201 O.3     1  UNL1       -0.3160
     18 C          -5.6726  -15.6563   24.2212 C.2     1  UNL1        0.3446
     19 O          -5.0096  -14.8109   23.1746 O.2     1  UNL1       -0.2476
     20 C          -6.6659  -15.6363   26.6219 C.3     1  UNL1        0.0123
     21 C          -5.5633  -15.2801   25.6692 C.3     1  UNL1        0.1121
@<TRIPOS>BOND
     1    20    21    1
     2    21    18    1
     3    18    19    2
     4    18    17    1
     5    17     1    1
     6     1     2    2
     7     2     3    1
     8     3     4   ar
     9     4     5   ar
    10     5     6   ar
    11     6     7   ar
    12     7     8   ar
    13     8     9    1
    14     9    10    1
    15    10    11    1
    16    11    12   ar
    17    12    13   ar
    18    13    14   ar
    19    14    15   ar
    20    15    16   ar
    21    16     2    1
    22     8     3   ar
    23    16    11   ar
@<TRIPOS>MOLECULE
*****
 21 23 0 0 0
SMALL
GASTEIGER

@<TRIPOS>ATOM
      1 N          -7.4939  -17.1066   23.1598 N.2     1  UNL1       -0.0736
      2 C          -8.1068  -17.8677   22.0218 C.2     1  UNL1        0.1208
      3 C          -9.5407  -17.5461   21.7211 C.ar    1  UNL1        0.0169
      4 C         -10.0741  -16.4980   22.6522 C.ar    1  UNL1        0.0013
      5 C         -11.4936  -16.0309   22.5215 C.ar    1  UNL1        0.0000
      6 C         -12.3795  -16.6120   21.4597 C.ar    1  UNL1       -0.0003
      7 C         -11.8461  -17.6601   20.5286 C.ar    1  UNL1       -0.0042
      8 C         -10.4267  -18.1271   20.6594 C.ar    1  UNL1       -0.0202
      9 C         -10.0976  -19.1734   19.6361 C.3     1  UNL1        0.0327
     10 C          -8.8012  -19.8970   19.4218 C.3     1  UNL1        0.0505
     11 C          -7.5138  -19.7530   20.1780 C.ar    1  UNL1        0.0609
     12 N          -6.4556  -20.6687   19.6379 N.ar    1  UNL1       -0.2481
     13 C          -5.0884  -20.6814   20.2549 C.ar    1  UNL1        0.0984
     14 C          -4.7794  -19.7783   21.4119 C.ar    1  UNL1        0.0207
     15 C          -5.8375  -18.8626   21.9521 C.ar    1  UNL1        0.0044
     16 C          -7.2047  -18.8499   21.3351 C.ar    1  UNL1        0.0344
     17 O          -8.3102  -16.0993   23.9144 O.3     1  UNL1       -0.3160
     18 C          -7.7151  -15.3794   25.0881 C.2     1  UNL1        0.3446
     19 O          -6.3863  -14.6966   24.9542 O.2     1  UNL1       -0.2476
     20 C          -8.1704  -16.3810   27.4418 C.3     1  UNL1        0.0123
     21 C          -8.4489  -15.3425   26.3959 C.3     1  UNL1        0.1121
@<TRIPOS>BOND
     1    20    21    1
     2    21    18    1
     3    18    19    2
     4    18    17    1
     5    17     1    1
     6     1     2    2
     7     2     3    1
     8     3     4   ar
     9     4     5   ar
    10     5     6   ar
    11     6     7   ar
    12     7     8   ar
    13     8     9    1
    14     9    10    1
    15    10    11    1
    16    11    12   ar
    17    12    13   ar
    18    13    14   ar
    19    14    15   ar
    20    15    16   ar
    21    16     2    1
    22     8     3   ar
    23    16    11   ar
@<TRIPOS>MOLECULE
*****
 21 23 0 0 0
SMALL
GASTEIGER

@<TRIPOS>ATOM
      1 N          -5.8200  -18.3742   21.6676 N.2     1  UNL1       -0.0736
      2 C          -7.1143  -17.8342   22.1997 C.2     1  UNL1        0.1208
      3 C          -7.0001  -16.9174   23.3815 C.ar    1  UNL1        0.0169
      4 C          -5.5700  -16.7295   23.7932 C.ar    1  UNL1        0.0013
      5 C          -5.2348  -15.8466   24.9585 C.ar    1  UNL1        0.0000
      6 C          -6.3298  -15.1516   25.7122 C.ar    1  UNL1       -0.0003
      7 C          -7.7599  -15.3395   25.3005 C.ar    1  UNL1       -0.0042
      8 C          -8.0950  -16.2224   24.1352 C.ar    1  UNL1       -0.0202
      9 C          -9.5745  -16.2724   23.8932 C.3     1  UNL1        0.0327
     10 C         -10.3246  -17.0298   22.8379 C.3     1  UNL1        0.0505
     11 C          -9.7803  -17.9243   21.7638 C.ar    1  UNL1        0.0609
     12 N         -10.8784  -18.4889   20.9122 N.ar    1  UNL1       -0.2481
     13 C         -10.5479  -19.4115   19.7765 C.ar    1  UNL1        0.0984
     14 C          -9.1192  -19.7694   19.4925 C.ar    1  UNL1        0.0207
     15 C          -8.0211  -19.2048   20.3441 C.ar    1  UNL1        0.0044
     16 C          -8.3515  -18.2823   21.4797 C.ar    1  UNL1        0.0344
     17 O          -4.5233  -17.9883   22.3154 O.3     1  UNL1       -0.3160
     18 C          -3.2266  -18.4987   21.7605 C.2     1  UNL1        0.3446
     19 O          -2.9323  -19.9694   21.7734 O.2     1  UNL1       -0.2476
     20 C          -2.0868  -16.1640   21.7782 C.3     1  UNL1        0.0123
     21 C          -2.2241  -17.5381   21.1926 C.3     1  UNL1        0.1121
@<TRIPOS>BOND
     1    20    21    1
     2    21    18    1
     3    18    19    2
     4    18    17    1
     5    17     1    1
     6     1     2    2
     7     2     3    1
     8     3     4   ar
     9     4     5   ar
    10     5     6   ar
    11     6     7   ar
    12     7     8   ar
    13     8     9    1
    14     9    10    1
    15    10    11    1
    16    11    12   ar
    17    12    13   ar
    18    13    14   ar
    19    14    15   ar
    20    15    16   ar
    21    16     2    1
    22     8     3   ar
    23    16    11   ar
@<TRIPOS>MOLECULE
*****
 21 23 0 0 0
SMALL
GASTEIGER

@<TRIPOS>ATOM
      1 N          -8.3796  -18.9916   21.6191 N.2     1  UNL1       -0.0736
      2 C          -7.1481  -18.3659   22.2038 C.2     1  UNL1        0.1208
      3 C          -7.3852  -17.2632   23.1927 C.ar    1  UNL1        0.0169
      4 C          -8.8505  -17.0125   23.3931 C.ar    1  UNL1        0.0013
      5 C          -9.3056  -15.9465   24.3452 C.ar    1  UNL1        0.0000
      6 C          -8.2955  -15.1312   25.0968 C.ar    1  UNL1       -0.0003
      7 C          -6.8303  -15.3819   24.8964 C.ar    1  UNL1       -0.0042
      8 C          -6.3751  -16.4479   23.9443 C.ar    1  UNL1       -0.0202
      9 C          -4.8785  -16.5339   23.8927 C.3     1  UNL1        0.0327
     10 C          -4.0222  -17.4564   23.0767 C.3     1  UNL1        0.0505
     11 C          -4.4513  -18.5208   22.1108 C.ar    1  UNL1        0.0609
     12 N          -3.2701  -19.2180   21.5034 N.ar    1  UNL1       -0.2481
     13 C          -3.4801  -20.3199   20.5075 C.ar    1  UNL1        0.0984
     14 C          -4.8712  -20.7246   20.1191 C.ar    1  UNL1        0.0207
     15 C          -6.0524  -20.0275   20.7264 C.ar    1  UNL1        0.0044
     16 C          -5.8424  -18.9256   21.7223 C.ar    1  UNL1        0.0344
     17 O          -9.7369  -18.5055   22.0334 O.3     1  UNL1       -0.3160
     18 C         -10.7572  -18.1527   20.9921 C.2     1  UNL1        0.3446
     19 O         -10.3287  -17.9020   19.5767 O.2     1  UNL1       -0.2476
     20 C         -12.5948  -17.6726   22.7649 C.3     1  UNL1        0.0123
     21 C         -12.2062  -18.0505   21.3663 C.3     1  UNL1        0.1121
@<TRIPOS>BOND
     1    20    21    1
     2    21    18    1
     3    18    19    2
     4    18    17    1
     5    17     1    1
     6     1     2    2
     7     2     3    1
     8     3     4   ar
     9     4     5   ar
    10     5     6   ar
    11     6     7   ar
    12     7     8   ar
    13     8     9    1
    14     9    10    1
    15    10    11    1
    16    11    12   ar
    17    12    13   ar
    18    13    14   ar
    19    14    15   ar
    20    15    16   ar
    21    16     2    1
    22     8     3   ar
    23    16    11   ar
@<TRIPOS>MOLECULE
*****
 21 23 0 0 0
SMALL
GASTEIGER

@<TRIPOS>ATOM
      1 N         -14.4151   -8.0634   18.5807 N.2     1  UNL1       -0.0736
      2 C         -14.1494   -6.6317   18.9406 C.2     1  UNL1        0.1208
      3 C         -15.3620   -5.7978   19.2307 C.ar    1  UNL1        0.0169
      4 C         -16.6231   -6.5985   19.0949 C.ar    1  UNL1        0.0013
      5 C         -17.9531   -5.9509   19.3431 C.ar    1  UNL1        0.0000
      6 C         -18.0220   -4.5025   19.7270 C.ar    1  UNL1       -0.0003
      7 C         -16.7610   -3.7018   19.8628 C.ar    1  UNL1       -0.0042
      8 C         -15.4310   -4.3494   19.6146 C.ar    1  UNL1       -0.0202
      9 C         -14.3043   -3.3772   19.8032 C.3     1  UNL1        0.0327
     10 C         -12.8305   -3.6133   19.6546 C.3     1  UNL1        0.0505
     11 C         -12.1193   -4.8799   19.2805 C.ar    1  UNL1        0.0609
     12 N         -10.6327   -4.6835   19.2445 N.ar    1  UNL1       -0.2481
     13 C          -9.7329   -5.8304   18.8907 C.ar    1  UNL1        0.0984
     14 C         -10.3199   -7.1737   18.5730 C.ar    1  UNL1        0.0207
     15 C         -11.8065   -7.3701   18.6090 C.ar    1  UNL1        0.0044
     16 C         -12.7062   -6.2233   18.9627 C.ar    1  UNL1        0.0344
     17 O         -15.8243   -8.5749   18.5296 O.3     1  UNL1       -0.3160
     18 C         -16.0837  -10.0455   18.3882 C.2     1  UNL1        0.3446
     19 O         -14.9677  -10.9703   18.0022 O.2     1  UNL1       -0.2476
     20 C         -18.6286  -10.0494   17.8651 C.3     1  UNL1        0.0123
     21 C         -17.4594  -10.5913   18.6328 C.3     1  UNL1        0.1121
@<TRIPOS>BOND
     1    20    21    1
     2    21    18    1
     3    18    19    2
     4    18    17    1
     5    17     1    1
     6     1     2    2
     7     2     3    1
     8     3     4   ar
     9     4     5   ar
    10     5     6   ar
    11     6     7   ar
    12     7     8   ar
    13     8     9    1
    14     9    10    1
    15    10    11    1
    16    11    12   ar
    17    12    13   ar
    18    13    14   ar
    19    14    15   ar
    20    15    16   ar
    21    16     2    1
    22     8     3   ar
    23    16    11   ar
@<TRIPOS>MOLECULE
*****
 21 23 0 0 0
SMALL
GASTEIGER

@<TRIPOS>ATOM
      1 N          -7.6245  -16.8941   23.0168 N.2     1  UNL1       -0.0736
      2 C          -7.1296  -17.9711   22.0974 C.2     1  UNL1        0.1208
      3 C          -5.6729  -18.3089   22.2155 C.ar    1  UNL1        0.0169
      4 C          -4.9990  -17.4711   23.2614 C.ar    1  UNL1        0.0013
      5 C          -3.5360  -17.6513   23.5387 C.ar    1  UNL1        0.0000
      6 C          -2.7468  -18.6693   22.7700 C.ar    1  UNL1       -0.0003
      7 C          -3.4206  -19.5071   21.7241 C.ar    1  UNL1       -0.0042
      8 C          -4.8837  -19.3269   21.4469 C.ar    1  UNL1       -0.0202
      9 C          -5.3563  -20.2584   20.3703 C.3     1  UNL1        0.0327
     10 C          -6.7347  -20.4021   19.7965 C.3     1  UNL1        0.0505
     11 C          -7.9811  -19.6497   20.1576 C.ar    1  UNL1        0.0609
     12 N          -9.1524  -20.1044   19.3384 N.ar    1  UNL1       -0.2481
     13 C         -10.4996  -19.4771   19.5431 C.ar    1  UNL1        0.0984
     14 C         -10.6753  -18.3953   20.5671 C.ar    1  UNL1        0.0207
     15 C          -9.5040  -17.9406   21.3864 C.ar    1  UNL1        0.0044
     16 C          -8.1569  -18.5677   21.1816 C.ar    1  UNL1        0.0344
     17 O          -6.6781  -16.2312   23.9735 O.3     1  UNL1       -0.3160
     18 C          -7.2016  -15.5976   25.2283 C.2     1  UNL1        0.3446
     19 O          -8.6221  -15.1202   25.2912 O.2     1  UNL1       -0.2476
     20 C          -6.8926  -15.1470   27.7682 C.3     1  UNL1        0.0123
     21 C          -6.3044  -15.4416   26.4202 C.3     1  UNL1        0.1121
@<TRIPOS>BOND
     1    20    21    1
     2    21    18    1
     3    18    19    2
     4    18    17    1
     5    17     1    1
     6     1     2    2
     7     2     3    1
     8     3     4   ar
     9     4     5   ar
    10     5     6   ar
    11     6     7   ar
    12     7     8   ar
    13     8     9    1
    14     9    10    1
    15    10    11    1
    16    11    12   ar
    17    12    13   ar
    18    13    14   ar
    19    14    15   ar
    20    15    16   ar
    21    16     2    1
    22     8     3   ar
    23    16    11   ar
@<TRIPOS>MOLECULE
*****
 21 23 0 0 0
SMALL
GASTEIGER

@<TRIPOS>ATOM
      1 N         -12.9927   -7.4642   18.7730 N.2     1  UNL1       -0.0736
      2 C         -14.3908   -6.9666   18.9921 C.2     1  UNL1        0.1208
      3 C         -14.5127   -5.5305   19.4078 C.ar    1  UNL1        0.0169
      4 C         -13.1676   -4.8762   19.5198 C.ar    1  UNL1        0.0013
      5 C         -13.0657   -3.4355   19.9245 C.ar    1  UNL1        0.0000
      6 C         -14.3090   -2.6490   20.2173 C.ar    1  UNL1       -0.0003
      7 C         -15.6541   -3.3033   20.1053 C.ar    1  UNL1       -0.0042
      8 C         -15.7560   -4.7440   19.7006 C.ar    1  UNL1       -0.0202
      9 C         -17.1843   -5.1994   19.6499 C.3     1  UNL1        0.0327
     10 C         -17.7222   -6.5536   19.2940 C.3     1  UNL1        0.0505
     11 C         -16.9645   -7.7870   18.9007 C.ar    1  UNL1        0.0609
     12 N         -17.8905   -8.9344   18.6252 N.ar    1  UNL1       -0.2481
     13 C         -17.3338  -10.2657   18.2152 C.ar    1  UNL1        0.0984
     14 C         -15.8513  -10.4495   18.0808 C.ar    1  UNL1        0.0207
     15 C         -14.9253   -9.3021   18.3564 C.ar    1  UNL1        0.0044
     16 C         -15.4818   -7.9709   18.7664 C.ar    1  UNL1        0.0344
     17 O         -11.8279   -6.5402   18.9717 O.3     1  UNL1       -0.3160
     18 C         -10.5445   -6.7818   18.2338 C.2     1  UNL1        0.3446
     19 O         -10.1740   -8.1717   17.8087 O.2     1  UNL1       -0.2476
     20 C          -9.6414   -4.4097   18.7885 C.3     1  UNL1        0.0123
     21 C          -9.6317   -5.6333   17.9210 C.3     1  UNL1        0.1121
@<TRIPOS>BOND
     1    20    21    1
     2    21    18    1
     3    18    19    2
     4    18    17    1
     5    17     1    1
     6     1     2    2
     7     2     3    1
     8     3     4   ar
     9     4     5   ar
    10     5     6   ar
    11     6     7   ar
    12     7     8   ar
    13     8     9    1
    14     9    10    1
    15    10    11    1
    16    11    12   ar
    17    12    13   ar
    18    13    14   ar
    19    14    15   ar
    20    15    16   ar
    21    16     2    1
    22     8     3   ar
    23    16    11   ar
@<TRIPOS>MOLECULE
*****
 21 23 0 0 0
SMALL
GASTEIGER

@<TRIPOS>ATOM
      1 N          -8.0615  -17.4679   23.2154 N.2     1  UNL1       -0.0736
      2 C          -7.2964  -18.2055   22.1568 C.2     1  UNL1        0.1208
      3 C          -8.1245  -18.8463   21.0827 C.ar    1  UNL1        0.0169
      4 C          -9.5886  -18.6056   21.3025 C.ar    1  UNL1        0.0013
      5 C         -10.5934  -19.1632   20.3384 C.ar    1  UNL1        0.0000
      6 C         -10.1340  -19.9616   19.1545 C.ar    1  UNL1       -0.0003
      7 C          -8.6699  -20.2023   18.9347 C.ar    1  UNL1       -0.0042
      8 C          -7.6651  -19.6447   19.8988 C.ar    1  UNL1       -0.0202
      9 C          -6.2642  -19.9994   19.4966 C.3     1  UNL1        0.0327
     10 C          -4.9767  -19.6434   20.1790 C.3     1  UNL1        0.0505
     11 C          -4.7722  -18.8447   21.4321 C.ar    1  UNL1        0.0609
     12 N          -3.3164  -18.7219   21.7721 N.ar    1  UNL1       -0.2481
     13 C          -2.8929  -17.9592   22.9924 C.ar    1  UNL1        0.0984
     14 C          -3.9252  -17.3193   23.8726 C.ar    1  UNL1        0.0207
     15 C          -5.3810  -17.4421   23.5325 C.ar    1  UNL1        0.0044
     16 C          -5.8045  -18.2048   22.3123 C.ar    1  UNL1        0.0344
     17 O          -9.5590  -17.4074   23.1538 O.3     1  UNL1       -0.3160
     18 C         -10.3798  -18.0052   24.2578 C.2     1  UNL1        0.3446
     19 O          -9.7544  -18.2797   25.5932 O.2     1  UNL1       -0.2476
     20 C         -12.6334  -17.5082   23.0642 C.3     1  UNL1        0.0123
     21 C         -11.8262  -18.3285   24.0263 C.3     1  UNL1        0.1121
@<TRIPOS>BOND
     1    20    21    1
     2    21    18    1
     3    18    19    2
     4    18    17    1
     5    17     1    1
     6     1     2    2
     7     2     3    1
     8     3     4   ar
     9     4     5   ar
    10     5     6   ar
    11     6     7   ar
    12     7     8   ar
    13     8     9    1
    14     9    10    1
    15    10    11    1
    16    11    12   ar
    17    12    13   ar
    18    13    14   ar
    19    14    15   ar
    20    15    16   ar
    21    16     2    1
    22     8     3   ar
    23    16    11   ar
@<TRIPOS>MOLECULE
*****
 21 23 0 0 0
SMALL
GASTEIGER

@<TRIPOS>ATOM
      1 N         -15.1470   -6.2502   19.1751 N.2     1  UNL1       -0.0736
      2 C         -14.2769   -5.0285   19.1936 C.2     1  UNL1        0.1208
      3 C         -12.8056   -5.2749   19.0360 C.ar    1  UNL1        0.0169
      4 C         -12.5077   -6.7376   18.8888 C.ar    1  UNL1        0.0013
      5 C         -11.0913   -7.2010   18.7187 C.ar    1  UNL1        0.0000
      6 C          -9.9728   -6.2017   18.6957 C.ar    1  UNL1       -0.0003
      7 C         -10.2708   -4.7391   18.8430 C.ar    1  UNL1       -0.0042
      8 C         -11.6872   -4.2757   19.0131 C.ar    1  UNL1       -0.0202
      9 C         -11.7638   -2.7832   19.1421 C.3     1  UNL1        0.0327
     10 C         -12.9776   -1.9213   19.3258 C.3     1  UNL1        0.0505
     11 C         -14.4148   -2.3391   19.4260 C.ar    1  UNL1        0.0609
     12 N         -15.3182   -1.1555   19.6070 N.ar    1  UNL1       -0.2481
     13 C         -16.8000   -1.3547   19.7291 C.ar    1  UNL1        0.0984
     14 C         -17.3782   -2.7375   19.6703 C.ar    1  UNL1        0.0207
     15 C         -16.4747   -3.9211   19.4893 C.ar    1  UNL1        0.0044
     16 C         -14.9931   -3.7220   19.3671 C.ar    1  UNL1        0.0344
     17 O         -14.5309   -7.6074   19.0068 O.3     1  UNL1       -0.3160
     18 C         -15.3826   -8.8370   19.1196 C.2     1  UNL1        0.3446
     19 O         -15.1085  -10.0223   18.2424 O.2     1  UNL1       -0.2476
     20 C         -17.9026   -8.5367   19.6760 C.3     1  UNL1        0.0123
     21 C         -16.5086   -8.8810   20.1097 C.3     1  UNL1        0.1121
@<TRIPOS>BOND
     1    20    21    1
     2    21    18    1
     3    18    19    2
     4    18    17    1
     5    17     1    1
     6     1     2    2
     7     2     3    1
     8     3     4   ar
     9     4     5   ar
    10     5     6   ar
    11     6     7   ar
    12     7     8   ar
    13     8     9    1
    14     9    10    1
    15    10    11    1
    16    11    12   ar
    17    12    13   ar
    18    13    14   ar
    19    14    15   ar
    20    15    16   ar
    21    16     2    1
    22     8     3   ar
    23    16    11   ar
