@<TRIPOS>MOLECULE
*****
 28 30 0 0 0
SMALL
GASTEIGER

@<TRIPOS>ATOM
      1 C         -10.5337  -19.2839   19.3573 C.3     1  UNL1        0.0290
      2 C          -9.1604  -18.9865   19.8823 C.3     1  UNL1        0.1259
      3 C          -8.7871  -20.2567   19.1773 C.3     1  UNL1        0.0487
      4 C          -7.3211  -20.4919   19.3910 C.3     1  UNL1        0.1004
      5 N          -6.7885  -19.3670   20.2282 N.am    1  UNL1       -0.2573
      6 C          -7.9252  -18.4366   20.5318 C.2     1  UNL1        0.2451
      7 O          -7.8415  -17.1773   21.3426 O.2     1  UNL1       -0.2728
      8 C          -5.3684  -19.2015   20.6820 C.ar    1  UNL1        0.0539
      9 C          -4.2690  -19.0639   19.6709 C.ar    1  UNL1        0.0158
     10 C          -2.8489  -18.8984   20.1247 C.ar    1  UNL1        0.0127
     11 C          -2.5282  -18.8705   21.5898 C.ar    1  UNL1        0.0578
     12 CL         -1.1081  -18.7050   22.0436 Cl      1  UNL1       -0.0822
     13 C          -3.6275  -19.0081   22.6009 C.ar    1  UNL1        0.0127
     14 C          -5.0476  -19.1736   22.1471 C.ar    1  UNL1        0.0158
     15 N          -9.8208  -17.7785   20.4776 N.pl3   1  UNL1       -0.3285
     16 H          -9.5442  -16.8768   20.1952 H       1  UNL1        0.1471
     17 C         -10.9029  -17.9441   21.5032 C.ar    1  UNL1        0.0449
     18 C         -12.2632  -17.3611   21.2592 C.ar    1  UNL1        0.0145
     19 C         -13.3451  -17.5267   22.2848 C.ar    1  UNL1        0.0058
     20 C         -13.0668  -18.2754   23.5544 C.ar    1  UNL1        0.0554
     21 C         -11.7065  -18.8585   23.7984 C.ar    1  UNL1        0.0058
     22 C         -10.6246  -18.6928   22.7729 C.ar    1  UNL1        0.0145
     23 C         -14.1488  -18.4411   24.5800 C.2     1  UNL1        0.2677
     24 O         -15.5783  -18.5784   24.1466 O.2     1  UNL1       -0.2681
     25 N         -13.8014  -18.4694   26.0389 N.am    1  UNL1       -0.1934
     26 O         -14.8835  -18.6350   27.0645 O.3     1  UNL1       -0.2949
     27 H         -12.8632  -18.3792   26.3234 H       1  UNL1        0.1825
     28 H         -15.7422  -18.7091   26.6195 H       1  UNL1        0.2414
@<TRIPOS>BOND
     1     2     1    1
     2     2    15    1
     3    15    17    1
     4    17    18   ar
     5    18    19   ar
     6    19    20   ar
     7    20    23    1
     8    23    24    2
     9    23    25   am
    10    25    26    1
    11    20    21   ar
    12    21    22   ar
    13     2     3    1
    14     3     4    1
    15     4     5    1
    16     5     8    1
    17     8     9   ar
    18     9    10   ar
    19    10    11   ar
    20    11    12    1
    21    11    13   ar
    22    13    14   ar
    23     5     6   am
    24     6     7    2
    25     6     2    1
    26    22    17   ar
    27    14     8   ar
    28    15    16    1
    29    25    27    1
    30    26    28    1
@<TRIPOS>MOLECULE
*****
 28 30 0 0 0
SMALL
GASTEIGER

@<TRIPOS>ATOM
      1 C          -5.3121  -15.1553   26.0749 C.3     1  UNL1        0.0290
      2 C          -6.4911  -15.5334   25.2281 C.3     1  UNL1        0.1259
      3 C          -7.0856  -15.9774   26.5318 C.3     1  UNL1        0.0487
      4 C          -8.4562  -16.5206   26.2552 C.3     1  UNL1        0.1004
      5 N          -8.7088  -16.4122   24.7806 N.am    1  UNL1       -0.2573
      6 C          -7.4943  -15.8022   24.1458 C.2     1  UNL1        0.2451
      7 O          -7.3146  -15.5118   22.6852 O.2     1  UNL1       -0.2728
      8 C          -9.9567  -16.8391   24.0661 C.ar    1  UNL1        0.0539
      9 C         -10.6116  -15.9147   23.0830 C.ar    1  UNL1        0.0158
     10 C         -11.8595  -16.3415   22.3686 C.ar    1  UNL1        0.0127
     11 C         -12.4527  -17.6928   22.6373 C.ar    1  UNL1        0.0578
     12 CL        -13.7006  -18.1197   21.9228 Cl      1  UNL1       -0.0822
     13 C         -11.7978  -18.6172   23.6204 C.ar    1  UNL1        0.0127
     14 C         -10.5498  -18.1904   24.3348 C.ar    1  UNL1        0.0158
     15 N          -5.6502  -15.0104   24.1015 N.pl3   1  UNL1       -0.3285
     16 H          -5.7494  -14.0767   23.8055 H       1  UNL1        0.1471
     17 C          -4.6581  -15.9100   23.4259 C.ar    1  UNL1        0.0449
     18 C          -3.4949  -15.3208   22.6844 C.ar    1  UNL1        0.0145
     19 C          -2.5028  -16.2204   22.0088 C.ar    1  UNL1        0.0058
     20 C          -2.6739  -17.7091   22.0746 C.ar    1  UNL1        0.0554
     21 C          -3.8371  -18.2983   22.8161 C.ar    1  UNL1        0.0058
     22 C          -4.8292  -17.3987   23.4917 C.ar    1  UNL1        0.0145
     23 C          -1.6818  -18.6087   21.3989 C.2     1  UNL1        0.2677
     24 O          -1.7156  -20.0868   21.6522 O.2     1  UNL1       -0.2681
     25 N          -0.6559  -18.0302   20.4701 N.am    1  UNL1       -0.1934
     26 O           0.3363  -18.9298   19.7944 O.3     1  UNL1       -0.2949
     27 H          -0.6337  -17.0601   20.3039 H       1  UNL1        0.1825
     28 H           0.1771  -19.8477   20.0648 H       1  UNL1        0.2414
@<TRIPOS>BOND
     1     2     1    1
     2     2    15    1
     3    15    17    1
     4    17    18   ar
     5    18    19   ar
     6    19    20   ar
     7    20    23    1
     8    23    24    2
     9    23    25   am
    10    25    26    1
    11    20    21   ar
    12    21    22   ar
    13     2     3    1
    14     3     4    1
    15     4     5    1
    16     5     8    1
    17     8     9   ar
    18     9    10   ar
    19    10    11   ar
    20    11    12    1
    21    11    13   ar
    22    13    14   ar
    23     5     6   am
    24     6     7    2
    25     6     2    1
    26    22    17   ar
    27    14     8   ar
    28    15    16    1
    29    25    27    1
    30    26    28    1
@<TRIPOS>MOLECULE
*****
 28 30 0 0 0
SMALL
GASTEIGER

@<TRIPOS>ATOM
      1 C          -8.9086  -19.5479   21.4115 C.3     1  UNL1        0.0290
      2 C          -7.4764  -19.1027   21.3899 C.3     1  UNL1        0.1259
      3 C          -7.3409  -20.1196   20.2956 C.3     1  UNL1        0.0487
      4 C          -5.9159  -20.1098   19.8274 C.3     1  UNL1        0.1004
      5 N          -5.1707  -19.0867   20.6323 N.am    1  UNL1       -0.2573
      6 C          -6.1351  -18.4643   21.5980 C.2     1  UNL1        0.2451
      7 O          -5.8145  -17.3917   22.5965 O.2     1  UNL1       -0.2728
      8 C          -3.7163  -18.7458   20.4956 C.ar    1  UNL1        0.0539
      9 C          -2.7926  -18.9173   21.6649 C.ar    1  UNL1        0.0158
     10 C          -1.3383  -18.5765   21.5282 C.ar    1  UNL1        0.0127
     11 C          -0.8076  -18.0641   20.2221 C.ar    1  UNL1        0.0578
     12 CL          0.6467  -17.7233   20.0853 Cl      1  UNL1       -0.0822
     13 C          -1.7313  -17.8926   19.0528 C.ar    1  UNL1        0.0127
     14 C          -3.1856  -18.2335   19.1895 C.ar    1  UNL1        0.0158
     15 N          -7.9113  -18.1788   22.4886 N.pl3   1  UNL1       -0.3285
     16 H          -7.2732  -17.5337   22.8707 H       1  UNL1        0.1471
     17 C          -9.3183  -18.2379   23.0054 C.ar    1  UNL1        0.0449
     18 C          -9.6831  -19.2224   24.0766 C.ar    1  UNL1        0.0145
     19 C         -11.0901  -19.2815   24.5932 C.ar    1  UNL1        0.0058
     20 C         -12.1322  -18.3559   24.0387 C.ar    1  UNL1        0.0554
     21 C         -11.7673  -17.3714   22.9675 C.ar    1  UNL1        0.0058
     22 C         -10.3603  -17.3124   22.4508 C.ar    1  UNL1        0.0145
     23 C         -13.5392  -18.4150   24.5554 C.2     1  UNL1        0.2677
     24 O         -14.6929  -18.2781   23.6066 O.2     1  UNL1       -0.2681
     25 N         -13.7924  -18.6110   26.0208 N.am    1  UNL1       -0.1934
     26 O         -15.1994  -18.6700   26.5375 O.3     1  UNL1       -0.2949
     27 H         -13.0351  -18.7008   26.6435 H       1  UNL1        0.1825
     28 H         -15.8197  -18.5656   25.7991 H       1  UNL1        0.2414
@<TRIPOS>BOND
     1     2     1    1
     2     2    15    1
     3    15    17    1
     4    17    18   ar
     5    18    19   ar
     6    19    20   ar
     7    20    23    1
     8    23    24    2
     9    23    25   am
    10    25    26    1
    11    20    21   ar
    12    21    22   ar
    13     2     3    1
    14     3     4    1
    15     4     5    1
    16     5     8    1
    17     8     9   ar
    18     9    10   ar
    19    10    11   ar
    20    11    12    1
    21    11    13   ar
    22    13    14   ar
    23     5     6   am
    24     6     7    2
    25     6     2    1
    26    22    17   ar
    27    14     8   ar
    28    15    16    1
    29    25    27    1
    30    26    28    1
@<TRIPOS>MOLECULE
*****
 28 30 0 0 0
SMALL
GASTEIGER

@<TRIPOS>ATOM
      1 C          -4.7021  -16.0061   24.2426 C.3     1  UNL1        0.0290
      2 C          -6.0372  -16.5308   23.8042 C.3     1  UNL1        0.1259
      3 C          -6.5112  -15.1441   24.1245 C.3     1  UNL1        0.0487
      4 C          -7.9818  -15.0787   23.8361 C.3     1  UNL1        0.1004
      5 N          -8.4167  -16.4250   23.3377 N.am    1  UNL1       -0.2573
      6 C          -7.2149  -17.3224   23.3180 C.2     1  UNL1        0.2451
      7 O          -7.1943  -18.7592   22.8876 O.2     1  UNL1       -0.2728
      8 C          -9.8089  -16.8069   22.9306 C.ar    1  UNL1        0.0539
      9 C         -10.3840  -16.2870   21.6465 C.ar    1  UNL1        0.0158
     10 C         -11.7763  -16.6688   21.2393 C.ar    1  UNL1        0.0127
     11 C         -12.5935  -17.5706   22.1162 C.ar    1  UNL1        0.0578
     12 CL        -13.9858  -17.9524   21.7090 Cl      1  UNL1       -0.0822
     13 C         -12.0184  -18.0905   23.4003 C.ar    1  UNL1        0.0127
     14 C         -10.6261  -17.7086   23.8075 C.ar    1  UNL1        0.0158
     15 N          -5.2842  -17.8077   23.5756 N.pl3   1  UNL1       -0.3285
     16 H          -5.4585  -18.5908   24.1462 H       1  UNL1        0.1471
     17 C          -4.2655  -17.8915   22.4777 C.ar    1  UNL1        0.0449
     18 C          -4.4257  -18.9028   21.3816 C.ar    1  UNL1        0.0145
     19 C          -3.4071  -18.9865   20.2837 C.ar    1  UNL1        0.0058
     20 C          -2.2283  -18.0589   20.2820 C.ar    1  UNL1        0.0554
     21 C          -2.0681  -17.0476   21.3781 C.ar    1  UNL1        0.0058
     22 C          -3.0867  -16.9639   22.4760 C.ar    1  UNL1        0.0145
     23 C          -1.2096  -18.1427   19.1840 C.2     1  UNL1        0.2677
     24 O           0.1784  -18.6257   19.4841 O.2     1  UNL1       -0.2681
     25 N          -1.5790  -17.7435   17.7862 N.am    1  UNL1       -0.1934
     26 O          -0.5604  -17.8273   16.6882 O.3     1  UNL1       -0.2949
     27 H          -2.4901  -17.4265   17.5893 H       1  UNL1        0.1825
     28 H           0.2778  -18.1559   17.0492 H       1  UNL1        0.2414
@<TRIPOS>BOND
     1     2     1    1
     2     2    15    1
     3    15    17    1
     4    17    18   ar
     5    18    19   ar
     6    19    20   ar
     7    20    23    1
     8    23    24    2
     9    23    25   am
    10    25    26    1
    11    20    21   ar
    12    21    22   ar
    13     2     3    1
    14     3     4    1
    15     4     5    1
    16     5     8    1
    17     8     9   ar
    18     9    10   ar
    19    10    11   ar
    20    11    12    1
    21    11    13   ar
    22    13    14   ar
    23     5     6   am
    24     6     7    2
    25     6     2    1
    26    22    17   ar
    27    14     8   ar
    28    15    16    1
    29    25    27    1
    30    26    28    1
@<TRIPOS>MOLECULE
*****
 28 30 0 0 0
SMALL
GASTEIGER

@<TRIPOS>ATOM
      1 C          -8.3907  -16.1642   24.2732 C.3     1  UNL1        0.0290
      2 C          -7.2171  -16.6194   23.4575 C.3     1  UNL1        0.1259
      3 C          -6.4108  -15.9892   24.5542 C.3     1  UNL1        0.0487
      4 C          -4.9587  -16.1668   24.2227 C.3     1  UNL1        0.1004
      5 N          -4.8676  -16.9068   22.9211 N.am    1  UNL1       -0.2573
      6 C          -6.2634  -17.1865   22.4482 C.2     1  UNL1        0.2451
      7 O          -6.6394  -17.9069   21.1874 O.2     1  UNL1       -0.2728
      8 C          -3.6028  -17.2983   22.2162 C.ar    1  UNL1        0.0539
      9 C          -2.6068  -16.2477   21.8236 C.ar    1  UNL1        0.0158
     10 C          -1.3420  -16.6392   21.1187 C.ar    1  UNL1        0.0127
     11 C          -1.0731  -18.0815   20.8063 C.ar    1  UNL1        0.0578
     12 CL          0.1917  -18.4730   20.1014 Cl      1  UNL1       -0.0822
     13 C          -2.0691  -19.1321   21.1989 C.ar    1  UNL1        0.0127
     14 C          -3.3339  -18.7406   21.9038 C.ar    1  UNL1        0.0158
     15 N          -8.2687  -17.1544   22.5314 N.pl3   1  UNL1       -0.3285
     16 H          -8.0564  -17.3095   21.5827 H       1  UNL1        0.1471
     17 C          -9.6439  -17.4533   23.0508 C.ar    1  UNL1        0.0449
     18 C         -10.8120  -16.6280   22.5989 C.ar    1  UNL1        0.0145
     19 C         -12.1871  -16.9268   23.1183 C.ar    1  UNL1        0.0058
     20 C         -12.3941  -18.0510   24.0896 C.ar    1  UNL1        0.0554
     21 C         -11.2259  -18.8764   24.5414 C.ar    1  UNL1        0.0058
     22 C          -9.8509  -18.5775   24.0221 C.ar    1  UNL1        0.0145
     23 C         -13.7692  -18.3499   24.6089 C.2     1  UNL1        0.2677
     24 O         -14.9260  -18.4431   23.6586 O.2     1  UNL1       -0.2681
     25 N         -13.9876  -18.5554   26.0786 N.am    1  UNL1       -0.1934
     26 O         -15.3627  -18.8543   26.5980 O.3     1  UNL1       -0.2949
     27 H         -13.2283  -18.4942   26.7024 H       1  UNL1        0.1825
     28 H         -15.9895  -18.8792   25.8581 H       1  UNL1        0.2414
@<TRIPOS>BOND
     1     2     1    1
     2     2    15    1
     3    15    17    1
     4    17    18   ar
     5    18    19   ar
     6    19    20   ar
     7    20    23    1
     8    23    24    2
     9    23    25   am
    10    25    26    1
    11    20    21   ar
    12    21    22   ar
    13     2     3    1
    14     3     4    1
    15     4     5    1
    16     5     8    1
    17     8     9   ar
    18     9    10   ar
    19    10    11   ar
    20    11    12    1
    21    11    13   ar
    22    13    14   ar
    23     5     6   am
    24     6     7    2
    25     6     2    1
    26    22    17   ar
    27    14     8   ar
    28    15    16    1
    29    25    27    1
    30    26    28    1
@<TRIPOS>MOLECULE
*****
 28 30 0 0 0
SMALL
GASTEIGER

@<TRIPOS>ATOM
      1 C           5.5991    0.2226   36.9162 C.3     1  UNL1        0.0290
      2 C           4.7561    1.3054   36.3104 C.3     1  UNL1        0.1259
      3 C           3.9192    1.1258   37.5422 C.3     1  UNL1        0.0487
      4 C           2.7708    2.0879   37.4667 C.3     1  UNL1        0.1004
      5 N           2.8980    2.8620   36.1882 N.am    1  UNL1       -0.2573
      6 C           4.1250    2.3784   35.4736 C.2     1  UNL1        0.2451
      7 O           4.6319    2.8798   34.1538 O.2     1  UNL1       -0.2728
      8 C           1.9625    3.9319   35.7085 C.ar    1  UNL1        0.0539
      9 C           1.5192    3.9535   34.2757 C.ar    1  UNL1        0.0158
     10 C           0.5836    5.0234   33.7961 C.ar    1  UNL1        0.0127
     11 C           0.0913    6.0718   34.7492 C.ar    1  UNL1        0.0578
     12 CL         -0.8442    7.1416   34.2696 Cl      1  UNL1       -0.0822
     13 C           0.5347    6.0502   36.1820 C.ar    1  UNL1        0.0127
     14 C           1.4702    4.9803   36.6617 C.ar    1  UNL1        0.0158
     15 N           5.7693    1.2586   35.2053 N.pl3   1  UNL1       -0.3285
     16 H           6.3365    2.0426   35.0240 H       1  UNL1        0.1471
     17 C           5.9182    0.0173   34.3763 C.ar    1  UNL1        0.0449
     18 C           4.7343   -0.8727   34.1393 C.ar    1  UNL1        0.0145
     19 C           4.8832   -2.1139   33.3104 C.ar    1  UNL1        0.0058
     20 C           6.2161   -2.4651   32.7185 C.ar    1  UNL1        0.0554
     21 C           7.3999   -1.5751   32.9556 C.ar    1  UNL1        0.0058
     22 C           7.2510   -0.3339   33.7845 C.ar    1  UNL1        0.0145
     23 C           6.3650   -3.7064   31.8896 C.2     1  UNL1        0.2677
     24 O           6.5015   -3.6013   30.3995 O.2     1  UNL1       -0.2681
     25 N           6.3774   -5.0528   32.5507 N.am    1  UNL1       -0.1934
     26 O           6.5263   -6.2941   31.7218 O.3     1  UNL1       -0.2949
     27 H           6.2878   -5.1218   33.5287 H       1  UNL1        0.1825
     28 H           6.6021   -6.0507   30.7859 H       1  UNL1        0.2414
@<TRIPOS>BOND
     1     2     1    1
     2     2    15    1
     3    15    17    1
     4    17    18   ar
     5    18    19   ar
     6    19    20   ar
     7    20    23    1
     8    23    24    2
     9    23    25   am
    10    25    26    1
    11    20    21   ar
    12    21    22   ar
    13     2     3    1
    14     3     4    1
    15     4     5    1
    16     5     8    1
    17     8     9   ar
    18     9    10   ar
    19    10    11   ar
    20    11    12    1
    21    11    13   ar
    22    13    14   ar
    23     5     6   am
    24     6     7    2
    25     6     2    1
    26    22    17   ar
    27    14     8   ar
    28    15    16    1
    29    25    27    1
    30    26    28    1
@<TRIPOS>MOLECULE
*****
 28 30 0 0 0
SMALL
GASTEIGER

@<TRIPOS>ATOM
      1 C           9.0813   -5.8930   21.6467 C.3     1  UNL1        0.0290
      2 C           8.7795   -5.6311   23.0925 C.3     1  UNL1        0.1259
      3 C           8.6443   -7.1229   23.1719 C.3     1  UNL1        0.0487
      4 C           8.3005   -7.4826   24.5870 C.3     1  UNL1        0.1004
      5 N           8.2232   -6.2130   25.3822 N.am    1  UNL1       -0.2573
      6 C           8.5193   -5.0688   24.4585 C.2     1  UNL1        0.2451
      7 O           8.5497   -3.6170   24.8349 O.2     1  UNL1       -0.2728
      8 C           7.9056   -6.1064   26.8443 C.ar    1  UNL1        0.0539
      9 C           8.8022   -6.7564   27.8559 C.ar    1  UNL1        0.0158
     10 C           8.4846   -6.6499   29.3180 C.ar    1  UNL1        0.0127
     11 C           7.2703   -5.8932   29.7685 C.ar    1  UNL1        0.0578
     12 CL          6.9527   -5.7867   31.2306 Cl      1  UNL1       -0.0822
     13 C           6.3737   -5.2432   28.7569 C.ar    1  UNL1        0.0127
     14 C           6.6913   -5.3498   27.2948 C.ar    1  UNL1        0.0158
     15 N           8.9778   -4.1941   22.7109 N.pl3   1  UNL1       -0.3285
     16 H           9.5926   -3.6272   23.2304 H       1  UNL1        0.1471
     17 C           8.2393   -3.6209   21.5378 C.ar    1  UNL1        0.0449
     18 C           6.7448   -3.7278   21.4674 C.ar    1  UNL1        0.0145
     19 C           6.0064   -3.1546   20.2944 C.ar    1  UNL1        0.0058
     20 C           6.7624   -2.4744   19.1918 C.ar    1  UNL1        0.0554
     21 C           8.2569   -2.3674   19.2622 C.ar    1  UNL1        0.0058
     22 C           8.9954   -2.9407   20.4352 C.ar    1  UNL1        0.0145
     23 C           6.0239   -1.9011   18.0187 C.2     1  UNL1        0.2677
     24 O           6.7177   -0.9527   17.0864 O.2     1  UNL1       -0.2681
     25 N           4.5917   -2.2763   17.7779 N.am    1  UNL1       -0.1934
     26 O           3.8532   -1.7030   16.6049 O.3     1  UNL1       -0.2949
     27 H           4.1364   -2.8988   18.3898 H       1  UNL1        0.1825
     28 H           4.4424   -1.1135   16.1086 H       1  UNL1        0.2414
@<TRIPOS>BOND
     1     2     1    1
     2     2    15    1
     3    15    17    1
     4    17    18   ar
     5    18    19   ar
     6    19    20   ar
     7    20    23    1
     8    23    24    2
     9    23    25   am
    10    25    26    1
    11    20    21   ar
    12    21    22   ar
    13     2     3    1
    14     3     4    1
    15     4     5    1
    16     5     8    1
    17     8     9   ar
    18     9    10   ar
    19    10    11   ar
    20    11    12    1
    21    11    13   ar
    22    13    14   ar
    23     5     6   am
    24     6     7    2
    25     6     2    1
    26    22    17   ar
    27    14     8   ar
    28    15    16    1
    29    25    27    1
    30    26    28    1
@<TRIPOS>MOLECULE
*****
 28 30 0 0 0
SMALL
GASTEIGER

@<TRIPOS>ATOM
      1 C           6.9164   -1.4803   18.4383 C.3     1  UNL1        0.0290
      2 C           6.9506   -2.5785   19.4594 C.3     1  UNL1        0.1259
      3 C           8.2702   -1.9730   19.8363 C.3     1  UNL1        0.0487
      4 C           8.8425   -2.7757   20.9669 C.3     1  UNL1        0.1004
      5 N           7.8766   -3.8773   21.2887 N.am    1  UNL1       -0.2573
      6 C           6.7073   -3.7554   20.3570 C.2     1  UNL1        0.2451
      7 O           5.5058   -4.6529   20.3281 O.2     1  UNL1       -0.2728
      8 C           8.0496   -4.9180   22.3550 C.ar    1  UNL1        0.0539
      9 C           7.4847   -4.6888   23.7255 C.ar    1  UNL1        0.0158
     10 C           7.6577   -5.7295   24.7918 C.ar    1  UNL1        0.0127
     11 C           8.3957   -6.9994   24.4876 C.ar    1  UNL1        0.0578
     12 CL          8.5687   -8.0401   25.5539 Cl      1  UNL1       -0.0822
     13 C           8.9606   -7.2286   23.1171 C.ar    1  UNL1        0.0127
     14 C           8.7876   -6.1879   22.0508 C.ar    1  UNL1        0.0158
     15 N           5.6239   -2.9545   18.8691 N.pl3   1  UNL1       -0.3285
     16 H           5.5207   -3.8118   18.3962 H       1  UNL1        0.1471
     17 C           4.4544   -2.0241   18.9992 C.ar    1  UNL1        0.0449
     18 C           3.9979   -1.2232   17.8160 C.ar    1  UNL1        0.0145
     19 C           2.8284   -0.2930   17.9462 C.ar    1  UNL1        0.0058
     20 C           2.1155   -0.1637   19.2596 C.ar    1  UNL1        0.0554
     21 C           2.5720   -0.9646   20.4428 C.ar    1  UNL1        0.0058
     22 C           3.7415   -1.8948   20.3126 C.ar    1  UNL1        0.0145
     23 C           0.9460    0.7667   19.3898 C.2     1  UNL1        0.2677
     24 O           0.5361    1.6231   18.2286 O.2     1  UNL1       -0.2681
     25 N           0.1865    0.8405   20.6811 N.am    1  UNL1       -0.1934
     26 O          -0.9830    1.7708   20.8113 O.3     1  UNL1       -0.2949
     27 H           0.4555    0.2783   21.4433 H       1  UNL1        0.1825
     28 H          -1.1121    2.2468   19.9760 H       1  UNL1        0.2414
@<TRIPOS>BOND
     1     2     1    1
     2     2    15    1
     3    15    17    1
     4    17    18   ar
     5    18    19   ar
     6    19    20   ar
     7    20    23    1
     8    23    24    2
     9    23    25   am
    10    25    26    1
    11    20    21   ar
    12    21    22   ar
    13     2     3    1
    14     3     4    1
    15     4     5    1
    16     5     8    1
    17     8     9   ar
    18     9    10   ar
    19    10    11   ar
    20    11    12    1
    21    11    13   ar
    22    13    14   ar
    23     5     6   am
    24     6     7    2
    25     6     2    1
    26    22    17   ar
    27    14     8   ar
    28    15    16    1
    29    25    27    1
    30    26    28    1
@<TRIPOS>MOLECULE
*****
 28 30 0 0 0
SMALL
GASTEIGER

@<TRIPOS>ATOM
      1 C           2.9907    0.6886   18.5217 C.3     1  UNL1        0.0290
      2 C           1.7478    1.0326   19.2878 C.3     1  UNL1        0.1259
      3 C           2.1481    2.4482   18.9947 C.3     1  UNL1        0.0487
      4 C           1.1232    3.3561   19.6074 C.3     1  UNL1        0.1004
      5 N           0.0895    2.5016   20.2793 N.am    1  UNL1       -0.2573
      6 C           0.4756    1.0656   20.0817 C.2     1  UNL1        0.2451
      7 O          -0.2783   -0.1279   20.5891 O.2     1  UNL1       -0.2728
      8 C          -1.1181    2.9962   21.0188 C.ar    1  UNL1        0.0539
      9 C          -1.0365    3.2677   22.4917 C.ar    1  UNL1        0.0158
     10 C          -2.2442    3.7623   23.2313 C.ar    1  UNL1        0.0127
     11 C          -3.5335    3.9855   22.4978 C.ar    1  UNL1        0.0578
     12 CL         -4.7411    4.4801   23.2374 Cl      1  UNL1       -0.0822
     13 C          -3.6151    3.7140   21.0249 C.ar    1  UNL1        0.0127
     14 C          -2.4074    3.2193   20.2854 C.ar    1  UNL1        0.0158
     15 N           1.6073   -0.4548   19.4208 N.pl3   1  UNL1       -0.3285
     16 H           0.8983   -0.9283   18.9285 H       1  UNL1        0.1471
     17 C           2.5472   -1.2210   20.3040 C.ar    1  UNL1        0.0449
     18 C           2.8034   -0.7574   21.7073 C.ar    1  UNL1        0.0145
     19 C           3.7431   -1.5235   22.5904 C.ar    1  UNL1        0.0058
     20 C           4.4267   -2.7532   22.0701 C.ar    1  UNL1        0.0554
     21 C           4.1705   -3.2167   20.6667 C.ar    1  UNL1        0.0058
     22 C           3.2308   -2.4506   19.7837 C.ar    1  UNL1        0.0145
     23 C           5.3666   -3.5193   22.9532 C.2     1  UNL1        0.2677
     24 O           6.3320   -4.4970   22.3515 O.2     1  UNL1       -0.2681
     25 N           5.3409   -3.3077   24.4380 N.am    1  UNL1       -0.1934
     26 O           6.2807   -4.0738   25.3211 O.3     1  UNL1       -0.2949
     27 H           4.7072   -2.6660   24.8329 H       1  UNL1        0.1825
     28 H           6.8322   -4.6576   24.7771 H       1  UNL1        0.2414
@<TRIPOS>BOND
     1     2     1    1
     2     2    15    1
     3    15    17    1
     4    17    18   ar
     5    18    19   ar
     6    19    20   ar
     7    20    23    1
     8    23    24    2
     9    23    25   am
    10    25    26    1
    11    20    21   ar
    12    21    22   ar
    13     2     3    1
    14     3     4    1
    15     4     5    1
    16     5     8    1
    17     8     9   ar
    18     9    10   ar
    19    10    11   ar
    20    11    12    1
    21    11    13   ar
    22    13    14   ar
    23     5     6   am
    24     6     7    2
    25     6     2    1
    26    22    17   ar
    27    14     8   ar
    28    15    16    1
    29    25    27    1
    30    26    28    1
