@<TRIPOS>MOLECULE
*****
 34 38 0 0 0
SMALL
GASTEIGER

@<TRIPOS>ATOM
      1 C          -7.5787  -16.2749   23.7542 C.ar    1  UNL1        0.0007
      2 C          -7.7914  -15.3412   24.9087 C.ar    1  UNL1       -0.0025
      3 C          -6.6346  -14.9501   25.7800 C.ar    1  UNL1        0.0010
      4 C          -5.2652  -15.4927   25.4966 C.ar    1  UNL1        0.0146
      5 C          -5.0526  -16.4264   24.3421 C.ar    1  UNL1        0.0481
      6 C          -6.2093  -16.8175   23.4709 C.ar    1  UNL1        0.0121
      7 N          -3.6832  -16.9691   24.0587 N.pl3   1  UNL1       -0.3125
      8 H          -3.0475  -17.1112   24.7970 H       1  UNL1        0.1522
      9 C          -3.2822  -17.2953   22.6505 C.ar    1  UNL1        0.0513
     10 C          -2.2042  -16.5010   21.9746 C.ar    1  UNL1        0.0353
     11 C          -1.8033  -16.8272   20.5665 C.ar    1  UNL1        0.1001
     12 N          -2.4805  -17.9476   19.8343 N.ar    1  UNL1       -0.2437
     13 C          -3.5585  -18.7419   20.5102 C.ar    1  UNL1        0.0833
     14 C          -4.2357  -19.8623   19.7781 C.ar    1  UNL1        0.0305
     15 C          -5.3138  -20.6565   20.4540 C.ar    1  UNL1        0.0592
     16 CL         -5.9910  -21.7769   19.7218 Cl      1  UNL1       -0.0822
     17 C          -5.7147  -20.3303   21.8622 C.ar    1  UNL1        0.0115
     18 C          -5.0375  -19.2099   22.5944 C.ar    1  UNL1        0.0036
     19 C          -3.9594  -18.4157   21.9184 C.ar    1  UNL1        0.0312
     20 C          -8.7355  -16.6660   22.8829 C.3     1  UNL1        0.1412
     21 N         -10.4508  -15.8298   21.0112 N.ar    1  UNL1       -0.2192
     22 N         -10.4179  -14.7897   19.9309 N.ar    1  UNL1       -0.0432
     23 N          -9.0816  -14.1103   19.9822 N.ar    1  UNL1       -0.0229
     24 N          -8.2886  -14.7304   21.0943 N.ar    1  UNL1       -0.1110
     25 C          -9.1349  -15.7932   21.7303 C.ar    1  UNL1        0.1794
     26 C         -12.0084  -15.8519   22.4512 C.3     1  UNL1        0.0245
     27 C         -11.5983  -16.7456   21.3186 C.3     1  UNL1        0.0896
     28 C         -11.1882  -17.6394   20.1859 C.3     1  UNL1        0.0245
     29 C         -12.7457  -17.6615   21.6258 C.3     1  UNL1        0.0245
     30 N          -9.4926  -17.9299   23.1643 N.3     1  UNL1       -0.2643
     31 C         -10.4335  -18.1575   24.3102 C.3     1  UNL1        0.0728
     32 C         -10.9643  -19.5563   24.2033 C.3     1  UNL1        0.0188
     33 C         -10.3514  -20.1933   22.9914 C.3     1  UNL1        0.0188
     34 C          -9.4419  -19.1881   22.3493 C.3     1  UNL1        0.0728
@<TRIPOS>BOND
     1    26    27    1
     2    27    28    1
     3    27    29    1
     4    27    21    1
     5    21    22   ar
     6    22    23   ar
     7    23    24   ar
     8    24    25   ar
     9    25    20    1
    10    20     1    1
    11     1     2   ar
    12     2     3   ar
    13     3     4   ar
    14     4     5   ar
    15     5     7    1
    16     7     9    1
    17     9    10   ar
    18    10    11   ar
    19    11    12   ar
    20    12    13   ar
    21    13    14   ar
    22    14    15   ar
    23    15    16    1
    24    15    17   ar
    25    17    18   ar
    26    18    19   ar
    27     5     6   ar
    28    20    30    1
    29    30    31    1
    30    31    32    1
    31    32    33    1
    32    33    34    1
    33    25    21   ar
    34     6     1   ar
    35    34    30    1
    36    19     9   ar
    37    19    13   ar
    38     7     8    1
@<TRIPOS>MOLECULE
*****
 34 38 0 0 0
SMALL
GASTEIGER

@<TRIPOS>ATOM
      1 C          -9.0389  -18.6327   20.5756 C.ar    1  UNL1        0.0007
      2 C          -9.6964  -19.4425   19.4977 C.ar    1  UNL1       -0.0025
      3 C          -8.9073  -20.4748   18.7481 C.ar    1  UNL1        0.0010
      4 C          -7.4607  -20.6972   19.0765 C.ar    1  UNL1        0.0146
      5 C          -6.8032  -19.8874   20.1544 C.ar    1  UNL1        0.0481
      6 C          -7.5923  -18.8552   20.9040 C.ar    1  UNL1        0.0121
      7 N          -5.3566  -20.1099   20.4828 N.pl3   1  UNL1       -0.3125
      8 H          -4.8854  -20.8959   20.1232 H       1  UNL1        0.1522
      9 C          -4.6278  -19.1346   21.3591 C.ar    1  UNL1        0.0513
     10 C          -5.2051  -18.7427   22.6869 C.ar    1  UNL1        0.0353
     11 C          -4.4764  -17.7675   23.5632 C.ar    1  UNL1        0.1001
     12 N          -3.1703  -17.1842   23.1116 N.ar    1  UNL1       -0.2437
     13 C          -2.5930  -17.5760   21.7838 C.ar    1  UNL1        0.0833
     14 C          -1.2870  -16.9926   21.3322 C.ar    1  UNL1        0.0305
     15 C          -0.7097  -17.3845   20.0044 C.ar    1  UNL1        0.0592
     16 CL          0.5964  -16.8011   19.5529 Cl      1  UNL1       -0.0822
     17 C          -1.4384  -18.3597   19.1281 C.ar    1  UNL1        0.0115
     18 C          -2.7445  -18.9431   19.5797 C.ar    1  UNL1        0.0036
     19 C          -3.3218  -18.5512   20.9076 C.ar    1  UNL1        0.0312
     20 C          -9.8279  -17.6004   21.3252 C.3     1  UNL1        0.1412
     21 N         -12.3217  -16.6609   21.1170 N.ar    1  UNL1       -0.2192
     22 N         -13.0610  -15.8280   20.1120 N.ar    1  UNL1       -0.0432
     23 N         -12.1102  -15.4876   19.0029 N.ar    1  UNL1       -0.0229
     24 N         -10.7833  -16.1101   19.3223 N.ar    1  UNL1       -0.1110
     25 C         -10.9141  -16.8353   20.6289 C.ar    1  UNL1        0.1794
     26 C         -13.0941  -18.5449   21.7119 C.3     1  UNL1        0.0245
     27 C         -12.8904  -17.2211   22.3869 C.3     1  UNL1        0.0896
     28 C         -12.6866  -15.8972   23.0620 C.3     1  UNL1        0.0245
     29 C         -13.4589  -17.7812   23.6569 C.3     1  UNL1        0.0245
     30 N          -9.5308  -17.3334   22.7710 N.3     1  UNL1       -0.2643
     31 C          -8.9113  -16.0860   23.3280 C.3     1  UNL1        0.0728
     32 C          -8.7987  -16.2484   24.8149 C.3     1  UNL1        0.0188
     33 C          -9.3486  -17.5963   25.1768 C.3     1  UNL1        0.0188
     34 C          -9.8011  -18.2668   23.9136 C.3     1  UNL1        0.0728
@<TRIPOS>BOND
     1    26    27    1
     2    27    28    1
     3    27    29    1
     4    27    21    1
     5    21    22   ar
     6    22    23   ar
     7    23    24   ar
     8    24    25   ar
     9    25    20    1
    10    20     1    1
    11     1     2   ar
    12     2     3   ar
    13     3     4   ar
    14     4     5   ar
    15     5     7    1
    16     7     9    1
    17     9    10   ar
    18    10    11   ar
    19    11    12   ar
    20    12    13   ar
    21    13    14   ar
    22    14    15   ar
    23    15    16    1
    24    15    17   ar
    25    17    18   ar
    26    18    19   ar
    27     5     6   ar
    28    20    30    1
    29    30    31    1
    30    31    32    1
    31    32    33    1
    32    33    34    1
    33    25    21   ar
    34     6     1   ar
    35    34    30    1
    36    19     9   ar
    37    19    13   ar
    38     7     8    1
@<TRIPOS>MOLECULE
*****
 34 38 0 0 0
SMALL
GASTEIGER

@<TRIPOS>ATOM
      1 C          -7.9238  -16.2971   23.7740 C.ar    1  UNL1        0.0007
      2 C          -8.2078  -15.6065   25.0749 C.ar    1  UNL1       -0.0025
      3 C          -7.0755  -15.1983   25.9702 C.ar    1  UNL1        0.0010
      4 C          -5.6593  -15.4808   25.5645 C.ar    1  UNL1        0.0146
      5 C          -5.3754  -16.1715   24.2636 C.ar    1  UNL1        0.0481
      6 C          -6.5076  -16.5796   23.3684 C.ar    1  UNL1        0.0121
      7 N          -3.9592  -16.4540   23.8579 N.pl3   1  UNL1       -0.3125
      8 H          -3.2326  -15.8641   24.1635 H       1  UNL1        0.1522
      9 C          -3.6500  -17.6353   22.9866 C.ar    1  UNL1        0.0513
     10 C          -4.4355  -18.9042   23.1371 C.ar    1  UNL1        0.0353
     11 C          -4.1264  -20.0855   22.2659 C.ar    1  UNL1        0.1001
     12 N          -3.0317  -19.9977   21.2442 N.ar    1  UNL1       -0.2437
     13 C          -2.2461  -18.7288   21.0937 C.ar    1  UNL1        0.0833
     14 C          -1.1514  -18.6411   20.0719 C.ar    1  UNL1        0.0305
     15 C          -0.3659  -17.3721   19.9214 C.ar    1  UNL1        0.0592
     16 CL          0.7288  -17.2844   18.8997 Cl      1  UNL1       -0.0822
     17 C          -0.6751  -16.1908   20.7927 C.ar    1  UNL1        0.0115
     18 C          -1.7698  -16.2786   21.8144 C.ar    1  UNL1        0.0036
     19 C          -2.5553  -17.5476   21.9649 C.ar    1  UNL1        0.0312
     20 C          -9.0560  -16.7052   22.8787 C.3     1  UNL1        0.1412
     21 N         -10.7238  -15.9005   20.9510 N.ar    1  UNL1       -0.2192
     22 N         -10.6625  -14.8804   19.8530 N.ar    1  UNL1       -0.0432
     23 N          -9.3264  -14.2023   19.9245 N.ar    1  UNL1       -0.0229
     24 N          -8.5620  -14.8033   21.0666 N.ar    1  UNL1       -0.1110
     25 C          -9.4257  -15.8529   21.7010 C.ar    1  UNL1        0.1794
     26 C         -11.4406  -17.7275   20.1458 C.3     1  UNL1        0.0245
     27 C         -11.8803  -16.8089   21.2469 C.3     1  UNL1        0.0896
     28 C         -12.3199  -15.8901   22.3482 C.3     1  UNL1        0.0245
     29 C         -13.0367  -17.7171   21.5430 C.3     1  UNL1        0.0245
     30 N          -9.8186  -17.9657   23.1611 N.3     1  UNL1       -0.2643
     31 C         -10.7967  -18.1726   24.2794 C.3     1  UNL1        0.0728
     32 C         -11.3196  -19.5753   24.1843 C.3     1  UNL1        0.0188
     33 C         -10.6646  -20.2353   23.0072 C.3     1  UNL1        0.0188
     34 C          -9.7370  -19.2404   22.3749 C.3     1  UNL1        0.0728
@<TRIPOS>BOND
     1    26    27    1
     2    27    28    1
     3    27    29    1
     4    27    21    1
     5    21    22   ar
     6    22    23   ar
     7    23    24   ar
     8    24    25   ar
     9    25    20    1
    10    20     1    1
    11     1     2   ar
    12     2     3   ar
    13     3     4   ar
    14     4     5   ar
    15     5     7    1
    16     7     9    1
    17     9    10   ar
    18    10    11   ar
    19    11    12   ar
    20    12    13   ar
    21    13    14   ar
    22    14    15   ar
    23    15    16    1
    24    15    17   ar
    25    17    18   ar
    26    18    19   ar
    27     5     6   ar
    28    20    30    1
    29    30    31    1
    30    31    32    1
    31    32    33    1
    32    33    34    1
    33    25    21   ar
    34     6     1   ar
    35    34    30    1
    36    19     9   ar
    37    19    13   ar
    38     7     8    1
@<TRIPOS>MOLECULE
*****
 34 38 0 0 0
SMALL
GASTEIGER

@<TRIPOS>ATOM
      1 C          -9.0115  -18.1381   21.3668 C.ar    1  UNL1        0.0007
      2 C          -9.9267  -18.6255   20.2830 C.ar    1  UNL1       -0.0025
      3 C          -9.3774  -19.4326   19.1441 C.ar    1  UNL1        0.0010
      4 C          -7.9129  -19.7522   19.0892 C.ar    1  UNL1        0.0146
      5 C          -6.9977  -19.2647   20.1731 C.ar    1  UNL1        0.0481
      6 C          -7.5470  -18.4576   21.3119 C.ar    1  UNL1        0.0121
      7 N          -5.5331  -19.5843   20.1182 N.pl3   1  UNL1       -0.3125
      8 H          -5.1869  -20.1883   19.4222 H       1  UNL1        0.1522
      9 C          -4.5961  -18.9835   21.1238 C.ar    1  UNL1        0.0513
     10 C          -5.0109  -18.8692   22.5607 C.ar    1  UNL1        0.0353
     11 C          -4.0739  -18.2684   23.5662 C.ar    1  UNL1        0.1001
     12 N          -2.7222  -17.7819   23.1348 N.ar    1  UNL1       -0.2437
     13 C          -2.3074  -17.8961   21.6978 C.ar    1  UNL1        0.0833
     14 C          -0.9557  -17.4096   21.2664 C.ar    1  UNL1        0.0305
     15 C          -0.5410  -17.5239   19.8294 C.ar    1  UNL1        0.0592
     16 CL          0.8107  -17.0374   19.3980 Cl      1  UNL1       -0.0822
     17 C          -1.4780  -18.1247   18.8238 C.ar    1  UNL1        0.0115
     18 C          -2.8297  -18.6112   19.2553 C.ar    1  UNL1        0.0036
     19 C          -3.2444  -18.4969   20.6923 C.ar    1  UNL1        0.0312
     20 C          -9.5609  -17.3310   22.5057 C.3     1  UNL1        0.1412
     21 N         -11.4981  -18.6798   23.7597 N.ar    1  UNL1       -0.2192
     22 N         -12.9686  -18.4729   23.9716 N.ar    1  UNL1       -0.0432
     23 N         -13.3594  -17.1940   23.2920 N.ar    1  UNL1       -0.0229
     24 N         -12.1304  -16.6105   22.6601 N.ar    1  UNL1       -0.1110
     25 C         -10.9800  -17.5289   22.9492 C.ar    1  UNL1        0.1794
     26 C         -10.3462  -19.0518   25.5017 C.3     1  UNL1        0.0245
     27 C         -10.6880  -19.8350   24.2690 C.3     1  UNL1        0.0896
     28 C         -11.0299  -20.6181   23.0361 C.3     1  UNL1        0.0245
     29 C          -9.8779  -20.9901   24.7781 C.3     1  UNL1        0.0245
     30 N          -8.6910  -16.3260   23.2009 N.3     1  UNL1       -0.2643
     31 C          -7.7123  -15.4005   22.5409 C.3     1  UNL1        0.0728
     32 C          -7.0635  -14.5726   23.6103 C.3     1  UNL1        0.0188
     33 C          -7.6413  -14.9865   24.9314 C.3     1  UNL1        0.0188
     34 C          -8.6471  -16.0702   24.6783 C.3     1  UNL1        0.0728
@<TRIPOS>BOND
     1    26    27    1
     2    27    28    1
     3    27    29    1
     4    27    21    1
     5    21    22   ar
     6    22    23   ar
     7    23    24   ar
     8    24    25   ar
     9    25    20    1
    10    20     1    1
    11     1     2   ar
    12     2     3   ar
    13     3     4   ar
    14     4     5   ar
    15     5     7    1
    16     7     9    1
    17     9    10   ar
    18    10    11   ar
    19    11    12   ar
    20    12    13   ar
    21    13    14   ar
    22    14    15   ar
    23    15    16    1
    24    15    17   ar
    25    17    18   ar
    26    18    19   ar
    27     5     6   ar
    28    20    30    1
    29    30    31    1
    30    31    32    1
    31    32    33    1
    32    33    34    1
    33    25    21   ar
    34     6     1   ar
    35    34    30    1
    36    19     9   ar
    37    19    13   ar
    38     7     8    1
@<TRIPOS>MOLECULE
*****
 34 38 0 0 0
SMALL
GASTEIGER

@<TRIPOS>ATOM
      1 C          -9.1524  -18.8787   20.4755 C.ar    1  UNL1        0.0007
      2 C          -9.7655  -19.4866   19.2489 C.ar    1  UNL1       -0.0025
      3 C          -9.0104  -20.5197   18.4661 C.ar    1  UNL1        0.0010
      4 C          -7.6421  -20.9449   18.9101 C.ar    1  UNL1        0.0146
      5 C          -7.0290  -20.3370   20.1367 C.ar    1  UNL1        0.0481
      6 C          -7.7841  -19.3039   20.9194 C.ar    1  UNL1        0.0121
      7 N          -5.6607  -20.7622   20.5807 N.pl3   1  UNL1       -0.3125
      8 H          -5.4947  -21.6986   20.8352 H       1  UNL1        0.1522
      9 C          -4.5455  -19.7606   20.6368 C.ar    1  UNL1        0.0513
     10 C          -3.4078  -19.8495   19.6633 C.ar    1  UNL1        0.0353
     11 C          -2.2927  -18.8480   19.7195 C.ar    1  UNL1        0.1001
     12 N          -2.3151  -17.7574   20.7492 N.ar    1  UNL1       -0.2437
     13 C          -3.4528  -17.6685   21.7227 C.ar    1  UNL1        0.0833
     14 C          -3.4753  -16.5780   22.7523 C.ar    1  UNL1        0.0305
     15 C          -4.6130  -16.4890   23.7258 C.ar    1  UNL1        0.0592
     16 CL         -4.6355  -15.3985   24.7555 Cl      1  UNL1       -0.0822
     17 C          -5.7282  -17.4906   23.6697 C.ar    1  UNL1        0.0115
     18 C          -5.7057  -18.5811   22.6400 C.ar    1  UNL1        0.0036
     19 C          -4.5680  -18.6701   21.6665 C.ar    1  UNL1        0.0312
     20 C          -9.9075  -17.8456   21.2582 C.3     1  UNL1        0.1412
     21 N         -12.3167  -16.7002   21.0891 N.ar    1  UNL1       -0.2192
     22 N         -13.0009  -15.8110   20.0934 N.ar    1  UNL1       -0.0432
     23 N         -12.0446  -15.5552   18.9664 N.ar    1  UNL1       -0.0229
     24 N         -10.7694  -16.2862   19.2655 N.ar    1  UNL1       -0.1110
     25 C         -10.9376  -16.9939   20.5775 C.ar    1  UNL1        0.1794
     26 C         -13.1887  -18.5282   21.7197 C.3     1  UNL1        0.0245
     27 C         -12.9079  -17.2067   22.3712 C.3     1  UNL1        0.0896
     28 C         -12.6271  -15.8850   23.0227 C.3     1  UNL1        0.0245
     29 C         -13.4990  -17.7131   23.6534 C.3     1  UNL1        0.0245
     30 N          -9.6325  -17.6644   22.7215 N.3     1  UNL1       -0.2643
     31 C          -9.8536  -18.6897   23.7939 C.3     1  UNL1        0.0728
     32 C          -9.4459  -18.0850   25.1046 C.3     1  UNL1        0.0188
     33 C          -8.9727  -16.6859   24.8423 C.3     1  UNL1        0.0188
     34 C          -9.0881  -16.4260   23.3695 C.3     1  UNL1        0.0728
@<TRIPOS>BOND
     1    26    27    1
     2    27    28    1
     3    27    29    1
     4    27    21    1
     5    21    22   ar
     6    22    23   ar
     7    23    24   ar
     8    24    25   ar
     9    25    20    1
    10    20     1    1
    11     1     2   ar
    12     2     3   ar
    13     3     4   ar
    14     4     5   ar
    15     5     7    1
    16     7     9    1
    17     9    10   ar
    18    10    11   ar
    19    11    12   ar
    20    12    13   ar
    21    13    14   ar
    22    14    15   ar
    23    15    16    1
    24    15    17   ar
    25    17    18   ar
    26    18    19   ar
    27     5     6   ar
    28    20    30    1
    29    30    31    1
    30    31    32    1
    31    32    33    1
    32    33    34    1
    33    25    21   ar
    34     6     1   ar
    35    34    30    1
    36    19     9   ar
    37    19    13   ar
    38     7     8    1
@<TRIPOS>MOLECULE
*****
 34 38 0 0 0
SMALL
GASTEIGER

@<TRIPOS>ATOM
      1 C          -8.3969  -16.8710   22.7364 C.ar    1  UNL1        0.0007
      2 C          -8.7160  -15.5342   23.3373 C.ar    1  UNL1       -0.0025
      3 C          -7.6427  -14.7477   24.0298 C.ar    1  UNL1        0.0010
      4 C          -6.2503  -15.2979   24.1213 C.ar    1  UNL1        0.0146
      5 C          -5.9312  -16.6348   23.5204 C.ar    1  UNL1        0.0481
      6 C          -7.0044  -17.4213   22.8280 C.ar    1  UNL1        0.0121
      7 N          -4.5388  -17.1851   23.6119 N.pl3   1  UNL1       -0.3125
      8 H          -3.9434  -16.8990   24.3419 H       1  UNL1        0.1522
      9 C          -4.0535  -18.1713   22.5911 C.ar    1  UNL1        0.0513
     10 C          -4.7884  -19.4629   22.3874 C.ar    1  UNL1        0.0353
     11 C          -4.3031  -20.4490   21.3667 C.ar    1  UNL1        0.1001
     12 N          -3.0829  -20.1435   20.5496 N.ar    1  UNL1       -0.2437
     13 C          -2.3479  -18.8519   20.7533 C.ar    1  UNL1        0.0833
     14 C          -1.1276  -18.5465   19.9362 C.ar    1  UNL1        0.0305
     15 C          -0.3926  -17.2549   20.1399 C.ar    1  UNL1        0.0592
     16 CL          0.8276  -16.9494   19.3228 Cl      1  UNL1       -0.0822
     17 C          -0.8779  -16.2686   21.1607 C.ar    1  UNL1        0.0115
     18 C          -2.0982  -16.5741   21.9777 C.ar    1  UNL1        0.0036
     19 C          -2.8332  -17.8658   21.7740 C.ar    1  UNL1        0.0312
     20 C          -9.4701  -17.6576   22.0440 C.3     1  UNL1        0.1412
     21 N         -11.4170  -18.5919   23.6194 N.ar    1  UNL1       -0.2192
     22 N         -12.8528  -18.2300   23.8594 N.ar    1  UNL1       -0.0432
     23 N         -13.1925  -17.0687   22.9728 N.ar    1  UNL1       -0.0229
     24 N         -11.9668  -16.7129   22.1848 N.ar    1  UNL1       -0.1110
     25 C         -10.8694  -17.6543   22.5844 C.ar    1  UNL1        0.1794
     26 C         -10.3011  -18.7663   25.4150 C.3     1  UNL1        0.0245
     27 C         -10.6615  -19.6973   24.2956 C.3     1  UNL1        0.0896
     28 C         -11.0220  -20.6284   23.1761 C.3     1  UNL1        0.0245
     29 C          -9.9061  -20.8028   24.9717 C.3     1  UNL1        0.0245
     30 N          -9.1442  -18.4473   20.8111 N.3     1  UNL1       -0.2643
     31 C         -10.1263  -18.9154   19.7785 C.3     1  UNL1        0.0728
     32 C          -9.3680  -19.6650   18.7236 C.3     1  UNL1        0.0188
     33 C          -7.9170  -19.6603   19.1042 C.3     1  UNL1        0.0188
     34 C          -7.7787  -18.9077   20.3944 C.3     1  UNL1        0.0728
@<TRIPOS>BOND
     1    26    27    1
     2    27    28    1
     3    27    29    1
     4    27    21    1
     5    21    22   ar
     6    22    23   ar
     7    23    24   ar
     8    24    25   ar
     9    25    20    1
    10    20     1    1
    11     1     2   ar
    12     2     3   ar
    13     3     4   ar
    14     4     5   ar
    15     5     7    1
    16     7     9    1
    17     9    10   ar
    18    10    11   ar
    19    11    12   ar
    20    12    13   ar
    21    13    14   ar
    22    14    15   ar
    23    15    16    1
    24    15    17   ar
    25    17    18   ar
    26    18    19   ar
    27     5     6   ar
    28    20    30    1
    29    30    31    1
    30    31    32    1
    31    32    33    1
    32    33    34    1
    33    25    21   ar
    34     6     1   ar
    35    34    30    1
    36    19     9   ar
    37    19    13   ar
    38     7     8    1
@<TRIPOS>MOLECULE
*****
 34 38 0 0 0
SMALL
GASTEIGER

@<TRIPOS>ATOM
      1 C          -8.3343  -16.5760   24.1475 C.ar    1  UNL1        0.0007
      2 C          -8.5430  -15.6707   25.3252 C.ar    1  UNL1       -0.0025
      3 C          -7.3881  -14.8993   25.8921 C.ar    1  UNL1        0.0010
      4 C          -6.0246  -15.0334   25.2814 C.ar    1  UNL1        0.0146
      5 C          -5.8160  -15.9387   24.1038 C.ar    1  UNL1        0.0481
      6 C          -6.9709  -16.7100   23.5368 C.ar    1  UNL1        0.0121
      7 N          -4.4526  -16.0728   23.4931 N.pl3   1  UNL1       -0.3125
      8 H          -3.8113  -15.3281   23.5522 H       1  UNL1        0.1522
      9 C          -4.0661  -17.3415   22.7923 C.ar    1  UNL1        0.0513
     10 C          -4.8997  -18.5767   22.9633 C.ar    1  UNL1        0.0353
     11 C          -4.5132  -19.8453   22.2625 C.ar    1  UNL1        0.1001
     12 N          -3.2930  -19.8788   21.3907 N.ar    1  UNL1       -0.2437
     13 C          -2.4594  -18.6436   21.2197 C.ar    1  UNL1        0.0833
     14 C          -1.2392  -18.6771   20.3479 C.ar    1  UNL1        0.0305
     15 C          -0.4055  -17.4419   20.1769 C.ar    1  UNL1        0.0592
     16 CL          0.8147  -17.4754   19.3051 Cl      1  UNL1       -0.0822
     17 C          -0.7920  -16.1732   20.8777 C.ar    1  UNL1        0.0115
     18 C          -2.0122  -16.1397   21.7495 C.ar    1  UNL1        0.0036
     19 C          -2.8459  -17.3750   21.9205 C.ar    1  UNL1        0.0312
     20 C          -9.4892  -17.3473   23.5806 C.3     1  UNL1        0.1412
     21 N          -9.9046  -19.9361   23.0603 N.ar    1  UNL1       -0.2192
     22 N         -10.0911  -21.1690   23.8941 N.ar    1  UNL1       -0.0432
     23 N         -10.0127  -20.7685   25.3375 N.ar    1  UNL1       -0.0229
     24 N          -9.7777  -19.2882   25.3958 N.ar    1  UNL1       -0.1110
     25 C          -9.7108  -18.7737   23.9883 C.ar    1  UNL1        0.1794
     26 C          -8.4191  -19.7178   21.5617 C.3     1  UNL1        0.0245
     27 C          -9.9107  -19.8762   21.5615 C.3     1  UNL1        0.0896
     28 C         -11.4023  -20.0346   21.5613 C.3     1  UNL1        0.0245
     29 C          -9.9169  -19.8163   20.0627 C.3     1  UNL1        0.0245
     30 N         -10.4224  -16.6923   22.6059 N.3     1  UNL1       -0.2643
     31 C         -10.0364  -16.0748   21.2945 C.3     1  UNL1        0.0728
     32 C         -11.2808  -15.5405   20.6495 C.3     1  UNL1        0.0188
     33 C         -12.4359  -15.8279   21.5624 C.3     1  UNL1        0.0188
     34 C         -11.9054  -16.5397   22.7714 C.3     1  UNL1        0.0728
@<TRIPOS>BOND
     1    26    27    1
     2    27    28    1
     3    27    29    1
     4    27    21    1
     5    21    22   ar
     6    22    23   ar
     7    23    24   ar
     8    24    25   ar
     9    25    20    1
    10    20     1    1
    11     1     2   ar
    12     2     3   ar
    13     3     4   ar
    14     4     5   ar
    15     5     7    1
    16     7     9    1
    17     9    10   ar
    18    10    11   ar
    19    11    12   ar
    20    12    13   ar
    21    13    14   ar
    22    14    15   ar
    23    15    16    1
    24    15    17   ar
    25    17    18   ar
    26    18    19   ar
    27     5     6   ar
    28    20    30    1
    29    30    31    1
    30    31    32    1
    31    32    33    1
    32    33    34    1
    33    25    21   ar
    34     6     1   ar
    35    34    30    1
    36    19     9   ar
    37    19    13   ar
    38     7     8    1
@<TRIPOS>MOLECULE
*****
 34 38 0 0 0
SMALL
GASTEIGER

@<TRIPOS>ATOM
      1 C          -9.0466  -18.4460   21.8343 C.ar    1  UNL1        0.0007
      2 C          -9.9943  -18.9358   20.7799 C.ar    1  UNL1       -0.0025
      3 C          -9.4667  -19.6457   19.5684 C.ar    1  UNL1        0.0010
      4 C          -7.9912  -19.8658   19.4114 C.ar    1  UNL1        0.0146
      5 C          -7.0435  -19.3759   20.4658 C.ar    1  UNL1        0.0481
      6 C          -7.5711  -18.6660   21.6773 C.ar    1  UNL1        0.0121
      7 N          -5.5680  -19.5960   20.3088 N.pl3   1  UNL1       -0.3125
      8 H          -5.2300  -20.1641   19.5793 H       1  UNL1        0.1522
      9 C          -4.6077  -18.9504   21.2633 C.ar    1  UNL1        0.0513
     10 C          -4.9890  -18.7683   22.7025 C.ar    1  UNL1        0.0353
     11 C          -4.0287  -18.1227   23.6569 C.ar    1  UNL1        0.1001
     12 N          -2.6870  -17.6592   23.1721 N.ar    1  UNL1       -0.2437
     13 C          -2.3056  -17.8413   21.7329 C.ar    1  UNL1        0.0833
     14 C          -0.9639  -17.3778   21.2481 C.ar    1  UNL1        0.0305
     15 C          -0.5826  -17.5599   19.8089 C.ar    1  UNL1        0.0592
     16 CL          0.7591  -17.0964   19.3241 Cl      1  UNL1       -0.0822
     17 C          -1.5430  -18.2055   18.8544 C.ar    1  UNL1        0.0115
     18 C          -2.8846  -18.6690   19.3392 C.ar    1  UNL1        0.0036
     19 C          -3.2660  -18.4869   20.7785 C.ar    1  UNL1        0.0312
     20 C          -9.5742  -17.7361   23.0458 C.3     1  UNL1        0.1412
     21 N         -12.2421  -17.5909   22.9647 N.ar    1  UNL1       -0.2192
     22 N         -13.3601  -18.1400   23.8005 N.ar    1  UNL1       -0.0432
     23 N         -12.7553  -18.9414   24.9149 N.ar    1  UNL1       -0.0229
     24 N         -11.2635  -18.8877   24.7679 N.ar    1  UNL1       -0.1110
     25 C         -10.9463  -18.0530   23.5625 C.ar    1  UNL1        0.1794
     26 C         -12.7468  -17.9422   20.9345 C.3     1  UNL1        0.0245
     27 C         -12.3933  -16.7307   21.7452 C.3     1  UNL1        0.0896
     28 C         -12.0398  -15.5192   22.5560 C.3     1  UNL1        0.0245
     29 C         -12.5446  -15.8705   20.5258 C.3     1  UNL1        0.0245
     30 N          -8.7299  -16.7093   23.7405 N.3     1  UNL1       -0.2643
     31 C          -7.8479  -15.6955   23.0739 C.3     1  UNL1        0.0728
     32 C          -7.1921  -14.8756   24.1452 C.3     1  UNL1        0.0188
     33 C          -7.6688  -15.3828   25.4740 C.3     1  UNL1        0.0188
     34 C          -8.6191  -16.5160   25.2239 C.3     1  UNL1        0.0728
@<TRIPOS>BOND
     1    26    27    1
     2    27    28    1
     3    27    29    1
     4    27    21    1
     5    21    22   ar
     6    22    23   ar
     7    23    24   ar
     8    24    25   ar
     9    25    20    1
    10    20     1    1
    11     1     2   ar
    12     2     3   ar
    13     3     4   ar
    14     4     5   ar
    15     5     7    1
    16     7     9    1
    17     9    10   ar
    18    10    11   ar
    19    11    12   ar
    20    12    13   ar
    21    13    14   ar
    22    14    15   ar
    23    15    16    1
    24    15    17   ar
    25    17    18   ar
    26    18    19   ar
    27     5     6   ar
    28    20    30    1
    29    30    31    1
    30    31    32    1
    31    32    33    1
    32    33    34    1
    33    25    21   ar
    34     6     1   ar
    35    34    30    1
    36    19     9   ar
    37    19    13   ar
    38     7     8    1
@<TRIPOS>MOLECULE
*****
 34 38 0 0 0
SMALL
GASTEIGER

@<TRIPOS>ATOM
      1 C          -8.9058  -18.5462   20.5546 C.ar    1  UNL1        0.0007
      2 C          -9.6224  -19.3841   19.5375 C.ar    1  UNL1       -0.0025
      3 C          -8.8887  -20.4722   18.8109 C.ar    1  UNL1        0.0010
      4 C          -7.4386  -20.7223   19.1014 C.ar    1  UNL1        0.0146
      5 C          -6.7220  -19.8844   20.1185 C.ar    1  UNL1        0.0481
      6 C          -7.4556  -18.7963   20.8451 C.ar    1  UNL1        0.0121
      7 N          -5.2718  -20.1345   20.4090 N.pl3   1  UNL1       -0.3125
      8 H          -4.8126  -20.9020   19.9976 H       1  UNL1        0.1522
      9 C          -4.5212  -19.2152   21.3264 C.ar    1  UNL1        0.0513
     10 C          -5.0602  -18.9160   22.6939 C.ar    1  UNL1        0.0353
     11 C          -4.3096  -17.9967   23.6112 C.ar    1  UNL1        0.1001
     12 N          -3.0201  -17.3766   23.1610 N.ar    1  UNL1       -0.2437
     13 C          -2.4812  -17.6757   21.7936 C.ar    1  UNL1        0.0833
     14 C          -1.1917  -17.0556   21.3434 C.ar    1  UNL1        0.0305
     15 C          -0.6528  -17.3547   19.9760 C.ar    1  UNL1        0.0592
     16 CL          0.6367  -16.7346   19.5258 Cl      1  UNL1       -0.0822
     17 C          -1.4033  -18.2741   19.0586 C.ar    1  UNL1        0.0115
     18 C          -2.6928  -18.8942   19.5087 C.ar    1  UNL1        0.0036
     19 C          -3.2318  -18.5950   20.8763 C.ar    1  UNL1        0.0312
     20 C          -9.6394  -17.4581   21.2812 C.3     1  UNL1        0.1412
     21 N          -9.5307  -17.8357   23.9252 N.ar    1  UNL1       -0.2192
     22 N          -8.9272  -17.0911   25.0790 N.ar    1  UNL1       -0.0432
     23 N          -8.2488  -15.8678   24.5374 N.ar    1  UNL1       -0.0229
     24 N          -8.4330  -15.8563   23.0487 N.ar    1  UNL1       -0.1110
     25 C          -9.2253  -17.0726   22.6704 C.ar    1  UNL1        0.1794
     26 C          -9.0353  -19.8957   23.8212 C.3     1  UNL1        0.0245
     27 C         -10.3038  -19.1182   24.0111 C.3     1  UNL1        0.0896
     28 C         -11.5724  -18.3406   24.2009 C.3     1  UNL1        0.0245
     29 C         -11.0771  -20.4006   24.0970 C.3     1  UNL1        0.0245
     30 N         -10.7871  -16.7555   20.6186 N.3     1  UNL1       -0.2643
     31 C         -10.6873  -15.7825   19.4813 C.3     1  UNL1        0.0728
     32 C         -12.0747  -15.3282   19.1367 C.3     1  UNL1        0.0188
     33 C         -13.0320  -16.0204   20.0611 C.3     1  UNL1        0.0188
     34 C         -12.2363  -16.9025   20.9769 C.3     1  UNL1        0.0728
@<TRIPOS>BOND
     1    26    27    1
     2    27    28    1
     3    27    29    1
     4    27    21    1
     5    21    22   ar
     6    22    23   ar
     7    23    24   ar
     8    24    25   ar
     9    25    20    1
    10    20     1    1
    11     1     2   ar
    12     2     3   ar
    13     3     4   ar
    14     4     5   ar
    15     5     7    1
    16     7     9    1
    17     9    10   ar
    18    10    11   ar
    19    11    12   ar
    20    12    13   ar
    21    13    14   ar
    22    14    15   ar
    23    15    16    1
    24    15    17   ar
    25    17    18   ar
    26    18    19   ar
    27     5     6   ar
    28    20    30    1
    29    30    31    1
    30    31    32    1
    31    32    33    1
    32    33    34    1
    33    25    21   ar
    34     6     1   ar
    35    34    30    1
    36    19     9   ar
    37    19    13   ar
    38     7     8    1
