@<TRIPOS>MOLECULE
*****
 30 32 0 0 0
SMALL
GASTEIGER

@<TRIPOS>ATOM
      1 C           6.2363   -3.5646   20.6934 C.ar    1  UNL1       -0.0138
      2 C           7.1446   -4.4479   21.4962 C.ar    1  UNL1        0.0303
      3 C           8.6207   -4.4462   21.2293 C.ar    1  UNL1        0.1319
      4 N           9.1884   -3.5612   20.1595 N.ar    1  UNL1       -0.2290
      5 C           8.2800   -2.6779   19.3567 C.ar    1  UNL1        0.1045
      6 C           6.8039   -2.6796   19.6236 C.ar    1  UNL1        0.0686
      7 C           5.8956   -1.7962   18.8207 C.2     1  UNL1        0.2471
      8 O           5.4323   -2.2334   17.4627 O.2     1  UNL1       -0.2701
      9 N           5.4505   -0.4757   19.3758 N.am    1  UNL1       -0.3008
     10 H           5.7546   -0.1888   20.2672 H       1  UNL1        0.1497
     11 C           4.5422    0.4077   18.5729 C.3     1  UNL1        0.0898
     12 C           3.0814    0.4815   18.9056 C.3     1  UNL1        0.0246
     13 C           2.2499    1.6158   18.3843 C.3     1  UNL1        0.0338
     14 C           0.7891    1.6897   18.7169 C.3     1  UNL1        0.1422
     15 O           0.1598    0.6291   19.5708 O.3     1  UNL1       -0.3538
     16 C           0.9914   -0.5053   20.0921 C.3     1  UNL1        0.1422
     17 C           2.4521   -0.5791   19.7595 C.3     1  UNL1        0.0338
     18 C           4.2069   -2.7927   22.1202 C.3     1  UNL1        0.0047
     19 C           4.7602   -3.5663   20.9603 C.3     1  UNL1        0.0226
     20 C           3.8374   -4.3415   20.0674 C.3     1  UNL1        0.0047
     21 N           9.5291   -5.3296   22.0322 N.pl3   1  UNL1       -0.2973
     22 H          10.3992   -5.6058   21.6636 H       1  UNL1        0.1536
     23 C           9.1117   -5.7921   23.3967 C.ar    1  UNL1        0.0601
     24 C           8.6908   -7.2161   23.6097 C.ar    1  UNL1        0.0164
     25 C           8.2734   -7.6786   24.9742 C.ar    1  UNL1        0.0127
     26 C           8.2769   -6.7172   26.1257 C.ar    1  UNL1        0.0586
     27 CL          7.8595   -7.1797   27.4902 Cl      1  UNL1       -0.0822
     28 C           8.6977   -5.2933   25.9126 C.ar    1  UNL1        0.0240
     29 C           9.1151   -4.8308   24.5481 C.ar    1  UNL1        0.0719
     30 CL          9.5359   -3.4068   24.3350 Cl      1  UNL1       -0.0809
@<TRIPOS>BOND
     1    18    19    1
     2    19    20    1
     3    19     1    1
     4     1     2   ar
     5     2     3   ar
     6     3    21    1
     7    21    23    1
     8    23    24   ar
     9    24    25   ar
    10    25    26   ar
    11    26    27    1
    12    26    28   ar
    13    28    29   ar
    14    29    30    1
    15     3     4   ar
    16     4     5   ar
    17     5     6   ar
    18     6     7    1
    19     7     8    2
    20     7     9   am
    21     9    11    1
    22    11    12    1
    23    12    13    1
    24    13    14    1
    25    14    15    1
    26    15    16    1
    27    16    17    1
    28     6     1   ar
    29    17    12    1
    30    29    23   ar
    31    21    22    1
    32     9    10    1
@<TRIPOS>MOLECULE
*****
 30 32 0 0 0
SMALL
GASTEIGER

@<TRIPOS>ATOM
      1 C           6.1475   -3.2633   20.2275 C.ar    1  UNL1       -0.0138
      2 C           6.7291   -4.1987   21.2457 C.ar    1  UNL1        0.0303
      3 C           8.1058   -3.9542   21.7888 C.ar    1  UNL1        0.1319
      4 N           8.9009   -2.7744   21.3137 N.ar    1  UNL1       -0.2290
      5 C           8.3193   -1.8391   20.2954 C.ar    1  UNL1        0.1045
      6 C           6.9426   -2.0835   19.7523 C.ar    1  UNL1        0.0686
      7 C           6.3611   -1.1481   18.7340 C.2     1  UNL1        0.2471
      8 O           6.4561   -1.4764   17.2734 O.2     1  UNL1       -0.2701
      9 N           5.6845    0.1154   19.1763 N.am    1  UNL1       -0.3008
     10 H           5.6221    0.3308   20.1349 H       1  UNL1        0.1497
     11 C           5.1029    1.0508   18.1580 C.3     1  UNL1        0.0898
     12 C           3.6603    1.4521   18.2457 C.3     1  UNL1        0.0246
     13 C           2.5875    0.4041   18.2195 C.3     1  UNL1        0.0338
     14 C           1.1447    0.8053   18.3072 C.3     1  UNL1        0.1422
     15 O           0.7749    2.2546   18.4211 O.3     1  UNL1       -0.3538
     16 C           1.8478    3.3026   18.4472 C.3     1  UNL1        0.1422
     17 C           3.2905    2.9013   18.3595 C.3     1  UNL1        0.0338
     18 C           3.6222   -2.6589   20.1425 C.3     1  UNL1        0.0047
     19 C           4.7708   -3.5078   19.6844 C.3     1  UNL1        0.0226
     20 C           4.5428   -4.6012   18.6832 C.3     1  UNL1        0.0047
     21 N           8.6874   -4.8896   22.8071 N.pl3   1  UNL1       -0.2973
     22 H           9.4912   -5.4150   22.5905 H       1  UNL1        0.1536
     23 C           8.0441   -5.0243   24.1555 C.ar    1  UNL1        0.0601
     24 C           7.5121   -3.8101   24.8574 C.ar    1  UNL1        0.0164
     25 C           6.8689   -3.9448   26.2058 C.ar    1  UNL1        0.0127
     26 C           6.7576   -5.2938   26.8522 C.ar    1  UNL1        0.0586
     27 CL          6.1144   -5.4286   28.2006 Cl      1  UNL1       -0.0822
     28 C           7.2896   -6.5080   26.1503 C.ar    1  UNL1        0.0240
     29 C           7.9328   -6.3733   24.8019 C.ar    1  UNL1        0.0719
     30 CL          8.4648   -7.5875   24.1000 Cl      1  UNL1       -0.0809
@<TRIPOS>BOND
     1    18    19    1
     2    19    20    1
     3    19     1    1
     4     1     2   ar
     5     2     3   ar
     6     3    21    1
     7    21    23    1
     8    23    24   ar
     9    24    25   ar
    10    25    26   ar
    11    26    27    1
    12    26    28   ar
    13    28    29   ar
    14    29    30    1
    15     3     4   ar
    16     4     5   ar
    17     5     6   ar
    18     6     7    1
    19     7     8    2
    20     7     9   am
    21     9    11    1
    22    11    12    1
    23    12    13    1
    24    13    14    1
    25    14    15    1
    26    15    16    1
    27    16    17    1
    28     6     1   ar
    29    17    12    1
    30    29    23   ar
    31    21    22    1
    32     9    10    1
@<TRIPOS>MOLECULE
*****
 30 32 0 0 0
SMALL
GASTEIGER

@<TRIPOS>ATOM
      1 C           4.0339   -2.4360   20.0805 C.ar    1  UNL1       -0.0138
      2 C           2.7062   -1.8530   19.6966 C.ar    1  UNL1        0.0303
      3 C           1.9787   -0.9523   20.6502 C.ar    1  UNL1        0.1319
      4 N           2.5787   -0.6346   21.9877 N.ar    1  UNL1       -0.2290
      5 C           3.9064   -1.2177   22.3716 C.ar    1  UNL1        0.1045
      6 C           4.6339   -2.1184   21.4180 C.ar    1  UNL1        0.0686
      7 C           5.9616   -2.7014   21.8019 C.2     1  UNL1        0.2471
      8 O           7.2298   -2.0535   21.3307 O.2     1  UNL1       -0.2701
      9 N           6.0212   -3.9323   22.6571 N.am    1  UNL1       -0.3008
     10 H           5.1889   -4.3576   22.9663 H       1  UNL1        0.1497
     11 C           7.3489   -4.5154   23.0410 C.3     1  UNL1        0.0898
     12 C           7.4539   -5.4220   24.2313 C.3     1  UNL1        0.0246
     13 C           6.8958   -4.9898   25.5548 C.3     1  UNL1        0.0338
     14 C           7.0008   -5.8964   26.7452 C.3     1  UNL1        0.1422
     15 O           7.6639   -7.2353   26.6121 O.3     1  UNL1       -0.3538
     16 C           8.2219   -7.6676   25.2885 C.3     1  UNL1        0.1422
     17 C           8.1169   -6.7609   24.0981 C.3     1  UNL1        0.0338
     18 C           4.4619   -4.8063   19.1067 C.3     1  UNL1        0.0047
     19 C           4.7614   -3.3367   19.1269 C.3     1  UNL1        0.0226
     20 C           5.7885   -2.7678   18.1934 C.3     1  UNL1        0.0047
     21 N           0.6510   -0.3693   20.2663 N.pl3   1  UNL1       -0.2973
     22 H          -0.1516   -0.9394   20.2526 H       1  UNL1        0.1536
     23 C           0.5461    1.0824   19.9033 C.ar    1  UNL1        0.0601
     24 C           0.7086    1.5120   18.4753 C.ar    1  UNL1        0.0164
     25 C           0.6037    2.9637   18.1124 C.ar    1  UNL1        0.0127
     26 C           0.3363    3.9856   19.1774 C.ar    1  UNL1        0.0586
     27 CL          0.2314    5.4373   18.8144 Cl      1  UNL1       -0.0822
     28 C           0.1737    3.5559   20.6053 C.ar    1  UNL1        0.0240
     29 C           0.2786    2.1043   20.9682 C.ar    1  UNL1        0.0719
     30 CL          0.1161    1.6746   22.3962 Cl      1  UNL1       -0.0809
@<TRIPOS>BOND
     1    18    19    1
     2    19    20    1
     3    19     1    1
     4     1     2   ar
     5     2     3   ar
     6     3    21    1
     7    21    23    1
     8    23    24   ar
     9    24    25   ar
    10    25    26   ar
    11    26    27    1
    12    26    28   ar
    13    28    29   ar
    14    29    30    1
    15     3     4   ar
    16     4     5   ar
    17     5     6   ar
    18     6     7    1
    19     7     8    2
    20     7     9   am
    21     9    11    1
    22    11    12    1
    23    12    13    1
    24    13    14    1
    25    14    15    1
    26    15    16    1
    27    16    17    1
    28     6     1   ar
    29    17    12    1
    30    29    23   ar
    31    21    22    1
    32     9    10    1
@<TRIPOS>MOLECULE
*****
 30 32 0 0 0
SMALL
GASTEIGER

@<TRIPOS>ATOM
      1 C          -6.8194  -19.0689   21.2135 C.ar    1  UNL1       -0.0138
      2 C          -8.2953  -19.1396   20.9557 C.ar    1  UNL1        0.0303
      3 C          -9.2442  -18.3503   21.8081 C.ar    1  UNL1        0.1319
      4 N          -8.7172  -17.4903   22.9183 N.ar    1  UNL1       -0.2290
      5 C          -7.2413  -17.4197   23.1762 C.ar    1  UNL1        0.1045
      6 C          -6.2923  -18.2090   22.3238 C.ar    1  UNL1        0.0686
      7 C          -4.8163  -18.1382   22.5817 C.2     1  UNL1        0.2471
      8 O          -4.0898  -19.3374   23.1147 O.2     1  UNL1       -0.2701
      9 N          -4.0669  -16.8684   22.3065 N.am    1  UNL1       -0.3008
     10 H          -4.5437  -16.0813   21.9567 H       1  UNL1        0.1497
     11 C          -2.5908  -16.7977   22.5644 C.3     1  UNL1        0.0898
     12 C          -1.6263  -17.3513   21.5579 C.3     1  UNL1        0.0246
     13 C          -1.6446  -18.8143   21.2274 C.3     1  UNL1        0.0338
     14 C          -0.6800  -19.3680   20.2209 C.3     1  UNL1        0.1422
     15 O           0.3029  -18.4586   19.5449 O.3     1  UNL1       -0.3538
     16 C           0.3212  -16.9955   19.8755 C.3     1  UNL1        0.1422
     17 C          -0.6433  -16.4419   20.8820 C.3     1  UNL1        0.0338
     18 C          -5.9569  -21.3554   20.3314 C.3     1  UNL1        0.0047
     19 C          -5.8704  -19.8582   20.3611 C.3     1  UNL1        0.0226
     20 C          -4.8351  -19.1503   19.5385 C.3     1  UNL1        0.0047
     21 N         -10.7203  -18.4210   21.5502 N.pl3   1  UNL1       -0.2973
     22 H         -11.0573  -18.4580   20.6259 H       1  UNL1        0.1536
     23 C         -11.6828  -18.4353   22.7006 C.ar    1  UNL1        0.0601
     24 C         -11.3158  -19.1328   23.9769 C.ar    1  UNL1        0.0164
     25 C         -12.2783  -19.1471   25.1273 C.ar    1  UNL1        0.0127
     26 C         -13.6077  -18.4639   25.0014 C.ar    1  UNL1        0.0586
     27 CL        -14.5702  -18.4782   26.1517 Cl      1  UNL1       -0.0822
     28 C         -13.9747  -17.7664   23.7251 C.ar    1  UNL1        0.0240
     29 C         -13.0122  -17.7521   22.5747 C.ar    1  UNL1        0.0719
     30 CL        -13.3791  -17.0546   21.2984 Cl      1  UNL1       -0.0809
@<TRIPOS>BOND
     1    18    19    1
     2    19    20    1
     3    19     1    1
     4     1     2   ar
     5     2     3   ar
     6     3    21    1
     7    21    23    1
     8    23    24   ar
     9    24    25   ar
    10    25    26   ar
    11    26    27    1
    12    26    28   ar
    13    28    29   ar
    14    29    30    1
    15     3     4   ar
    16     4     5   ar
    17     5     6   ar
    18     6     7    1
    19     7     8    2
    20     7     9   am
    21     9    11    1
    22    11    12    1
    23    12    13    1
    24    13    14    1
    25    14    15    1
    26    15    16    1
    27    16    17    1
    28     6     1   ar
    29    17    12    1
    30    29    23   ar
    31    21    22    1
    32     9    10    1
@<TRIPOS>MOLECULE
*****
 30 32 0 0 0
SMALL
GASTEIGER

@<TRIPOS>ATOM
      1 C           3.4361    1.7622   18.5759 C.ar    1  UNL1       -0.0138
      2 C           2.5752    2.9607   18.8449 C.ar    1  UNL1        0.0303
      3 C           1.0836    2.8543   18.7275 C.ar    1  UNL1        0.1319
      4 N           0.4529    1.5494   18.3411 N.ar    1  UNL1       -0.2290
      5 C           1.3138    0.3509   18.0721 C.ar    1  UNL1        0.1045
      6 C           2.8054    0.4573   18.1894 C.ar    1  UNL1        0.0686
      7 C           3.6663   -0.7413   17.9204 C.2     1  UNL1        0.2471
      8 O           4.3414   -0.8963   16.5899 O.2     1  UNL1       -0.2701
      9 N           3.8521   -1.7847   18.9818 N.am    1  UNL1       -0.3008
     10 H           3.4090   -1.6829   19.8550 H       1  UNL1        0.1497
     11 C           4.7130   -2.9833   18.7127 C.3     1  UNL1        0.0898
     12 C           6.1271   -3.0182   19.2117 C.3     1  UNL1        0.0246
     13 C           7.1793   -2.1844   18.5427 C.3     1  UNL1        0.0338
     14 C           8.5935   -2.2193   19.0417 C.3     1  UNL1        0.1422
     15 O           8.9554   -3.0881   20.2097 O.3     1  UNL1       -0.3538
     16 C           7.9032   -3.9219   20.8787 C.3     1  UNL1        0.1422
     17 C           6.4891   -3.8870   20.3797 C.3     1  UNL1        0.0338
     18 C           5.7388    2.3556   17.5293 C.3     1  UNL1        0.0047
     19 C           4.9277    1.8687   18.6933 C.3     1  UNL1        0.0226
     20 C           5.6082    1.4881   19.9746 C.3     1  UNL1        0.0047
     21 N           0.2227    4.0529   18.9966 N.pl3   1  UNL1       -0.2973
     22 H           0.6383    4.9222   19.1986 H       1  UNL1        0.1536
     23 C          -1.2715    3.9269   18.9579 C.ar    1  UNL1        0.0601
     24 C          -2.0232    3.5321   20.1946 C.ar    1  UNL1        0.0164
     25 C          -3.5174    3.4061   20.1559 C.ar    1  UNL1        0.0127
     26 C          -4.2599    3.6750   18.8806 C.ar    1  UNL1        0.0586
     27 CL         -5.7541    3.5490   18.8419 Cl      1  UNL1       -0.0822
     28 C          -3.5083    4.0698   17.6440 C.ar    1  UNL1        0.0240
     29 C          -2.0141    4.1958   17.6827 C.ar    1  UNL1        0.0719
     30 CL         -1.2625    4.5906   16.4460 Cl      1  UNL1       -0.0809
@<TRIPOS>BOND
     1    18    19    1
     2    19    20    1
     3    19     1    1
     4     1     2   ar
     5     2     3   ar
     6     3    21    1
     7    21    23    1
     8    23    24   ar
     9    24    25   ar
    10    25    26   ar
    11    26    27    1
    12    26    28   ar
    13    28    29   ar
    14    29    30    1
    15     3     4   ar
    16     4     5   ar
    17     5     6   ar
    18     6     7    1
    19     7     8    2
    20     7     9   am
    21     9    11    1
    22    11    12    1
    23    12    13    1
    24    13    14    1
    25    14    15    1
    26    15    16    1
    27    16    17    1
    28     6     1   ar
    29    17    12    1
    30    29    23   ar
    31    21    22    1
    32     9    10    1
@<TRIPOS>MOLECULE
*****
 30 32 0 0 0
SMALL
GASTEIGER

@<TRIPOS>ATOM
      1 C          -7.8488  -18.0221   22.0044 C.ar    1  UNL1       -0.0138
      2 C          -6.5104  -18.6796   21.8421 C.ar    1  UNL1        0.0303
      3 C          -6.2773  -19.6372   20.7113 C.ar    1  UNL1        0.1319
      4 N          -7.3827  -19.9373   19.7428 N.ar    1  UNL1       -0.2290
      5 C          -8.7210  -19.2798   19.9050 C.ar    1  UNL1        0.1045
      6 C          -8.9541  -18.3222   21.0358 C.ar    1  UNL1        0.0686
      7 C         -10.2926  -17.6647   21.1980 C.2     1  UNL1        0.2471
      8 O         -10.5234  -16.2880   20.6488 O.2     1  UNL1       -0.2701
      9 N         -11.4002  -18.3838   21.9093 N.am    1  UNL1       -0.3008
     10 H         -11.2487  -19.2873   22.2697 H       1  UNL1        0.1497
     11 C         -12.7387  -17.7263   22.0715 C.3     1  UNL1        0.0898
     12 C         -13.6238  -18.1011   23.2230 C.3     1  UNL1        0.0246
     13 C         -15.0765  -18.3917   22.9886 C.3     1  UNL1        0.0338
     14 C         -15.9618  -18.7666   24.1402 C.3     1  UNL1        0.1422
     15 O         -15.3941  -18.8508   25.5261 O.3     1  UNL1       -0.3538
     16 C         -13.9413  -18.5602   25.7604 C.3     1  UNL1        0.1422
     17 C         -13.0561  -18.1853   24.6089 C.3     1  UNL1        0.0338
     18 C          -8.9237  -17.4772   24.3060 C.3     1  UNL1        0.0047
     19 C          -8.0819  -17.0645   23.1352 C.3     1  UNL1        0.0226
     20 C          -7.4731  -15.6942   23.0951 C.3     1  UNL1        0.0047
     21 N          -4.9389  -20.2947   20.5491 N.pl3   1  UNL1       -0.2973
     22 H          -4.8729  -21.2766   20.5218 H       1  UNL1        0.1536
     23 C          -3.7010  -19.4561   20.4286 C.ar    1  UNL1        0.0601
     24 C          -3.1868  -19.0684   19.0738 C.ar    1  UNL1        0.0164
     25 C          -1.9489  -18.2298   18.9532 C.ar    1  UNL1        0.0127
     26 C          -1.2253  -17.7790   20.1874 C.ar    1  UNL1        0.0586
     27 CL          0.0125  -16.9404   20.0669 Cl      1  UNL1       -0.0822
     28 C          -1.7396  -18.1667   21.5421 C.ar    1  UNL1        0.0240
     29 C          -2.9774  -19.0053   21.6627 C.ar    1  UNL1        0.0719
     30 CL         -3.4917  -19.3930   23.0174 Cl      1  UNL1       -0.0809
@<TRIPOS>BOND
     1    18    19    1
     2    19    20    1
     3    19     1    1
     4     1     2   ar
     5     2     3   ar
     6     3    21    1
     7    21    23    1
     8    23    24   ar
     9    24    25   ar
    10    25    26   ar
    11    26    27    1
    12    26    28   ar
    13    28    29   ar
    14    29    30    1
    15     3     4   ar
    16     4     5   ar
    17     5     6   ar
    18     6     7    1
    19     7     8    2
    20     7     9   am
    21     9    11    1
    22    11    12    1
    23    12    13    1
    24    13    14    1
    25    14    15    1
    26    15    16    1
    27    16    17    1
    28     6     1   ar
    29    17    12    1
    30    29    23   ar
    31    21    22    1
    32     9    10    1
@<TRIPOS>MOLECULE
*****
 30 32 0 0 0
SMALL
GASTEIGER

@<TRIPOS>ATOM
      1 C           1.3768    2.4243   21.1639 C.ar    1  UNL1       -0.0138
      2 C           2.6515    1.7518   20.7481 C.ar    1  UNL1        0.0303
      3 C           2.9079    1.4610   19.2991 C.ar    1  UNL1        0.1319
      4 N           1.8897    1.8425   18.2659 N.ar    1  UNL1       -0.2290
      5 C           0.6150    2.5149   18.6817 C.ar    1  UNL1        0.1045
      6 C           0.3585    2.8058   20.1307 C.ar    1  UNL1        0.0686
      7 C          -0.9163    3.4782   20.5464 C.2     1  UNL1        0.2471
      8 O          -0.9790    4.9740   20.6407 O.2     1  UNL1       -0.2701
      9 N          -2.1282    2.6550   20.8680 N.am    1  UNL1       -0.3008
     10 H          -2.0870    1.6733   20.8061 H       1  UNL1        0.1497
     11 C          -3.4030    3.3274   21.2838 C.3     1  UNL1        0.0898
     12 C          -3.7119    3.5147   22.7396 C.3     1  UNL1        0.0246
     13 C          -5.1371    3.5412   23.2065 C.3     1  UNL1        0.0338
     14 C          -5.4461    3.7285   24.6623 C.3     1  UNL1        0.1422
     15 O          -4.3297    3.8894   25.6513 O.3     1  UNL1       -0.3538
     16 C          -2.9045    3.8629   25.1843 C.3     1  UNL1        0.1422
     17 C          -2.5956    3.6756   23.7285 C.3     1  UNL1        0.0338
     18 C           1.4370    4.0699   23.1734 C.3     1  UNL1        0.0047
     19 C           1.1203    2.7151   22.6129 C.3     1  UNL1        0.0226
     20 C           0.5471    1.6512   23.5014 C.3     1  UNL1        0.0047
     21 N           4.1827    0.7885   18.8833 N.pl3   1  UNL1       -0.2973
     22 H           4.9613    1.3299   18.6189 H       1  UNL1        0.1536
     23 C           4.2711   -0.7088   18.8703 C.ar    1  UNL1        0.0601
     24 C           3.2243   -1.5280   19.5655 C.ar    1  UNL1        0.0164
     25 C           3.3127   -3.0253   19.5525 C.ar    1  UNL1        0.0127
     26 C           4.4480   -3.7035   18.8444 C.ar    1  UNL1        0.0586
     27 CL          4.5364   -5.2008   18.8314 Cl      1  UNL1       -0.0822
     28 C           5.4947   -2.8843   18.1492 C.ar    1  UNL1        0.0240
     29 C           5.4063   -1.3870   18.1622 C.ar    1  UNL1        0.0719
     30 CL          6.4531   -0.5678   17.4670 Cl      1  UNL1       -0.0809
@<TRIPOS>BOND
     1    18    19    1
     2    19    20    1
     3    19     1    1
     4     1     2   ar
     5     2     3   ar
     6     3    21    1
     7    21    23    1
     8    23    24   ar
     9    24    25   ar
    10    25    26   ar
    11    26    27    1
    12    26    28   ar
    13    28    29   ar
    14    29    30    1
    15     3     4   ar
    16     4     5   ar
    17     5     6   ar
    18     6     7    1
    19     7     8    2
    20     7     9   am
    21     9    11    1
    22    11    12    1
    23    12    13    1
    24    13    14    1
    25    14    15    1
    26    15    16    1
    27    16    17    1
    28     6     1   ar
    29    17    12    1
    30    29    23   ar
    31    21    22    1
    32     9    10    1
@<TRIPOS>MOLECULE
*****
 30 32 0 0 0
SMALL
GASTEIGER

@<TRIPOS>ATOM
      1 C           4.1191   -0.6940   31.8702 C.ar    1  UNL1       -0.0138
      2 C           3.3144   -1.0076   30.6439 C.ar    1  UNL1        0.0303
      3 C           2.0916   -0.2005   30.3225 C.ar    1  UNL1        0.1319
      4 N           1.6735    0.9202   31.2276 N.ar    1  UNL1       -0.2290
      5 C           2.4782    1.2338   32.4540 C.ar    1  UNL1        0.1045
      6 C           3.7010    0.4267   32.7753 C.ar    1  UNL1        0.0686
      7 C           4.5058    0.7403   34.0018 C.2     1  UNL1        0.2471
      8 O           5.4550    1.9017   33.9992 O.2     1  UNL1       -0.2701
      9 N           4.3612   -0.1075   35.2307 N.am    1  UNL1       -0.3008
     10 H           3.7382   -0.8698   35.2323 H       1  UNL1        0.1497
     11 C           5.1660    0.2061   36.4571 C.3     1  UNL1        0.0898
     12 C           4.5995    1.1044   37.5164 C.3     1  UNL1        0.0246
     13 C           3.1321    1.0676   37.8248 C.3     1  UNL1        0.0338
     14 C           2.5655    1.9660   38.8841 C.3     1  UNL1        0.1422
     15 O           3.4665    2.9011   39.6350 O.3     1  UNL1       -0.3538
     16 C           4.9341    2.9379   39.3265 C.3     1  UNL1        0.1422
     17 C           5.5005    2.0395   38.2672 C.3     1  UNL1        0.0338
     18 C           6.6936   -1.0227   31.7510 C.3     1  UNL1        0.0047
     19 C           5.3420   -1.5012   32.1916 C.3     1  UNL1        0.0226
     20 C           5.2132   -2.7868   32.9535 C.3     1  UNL1        0.0047
     21 N           1.2869   -0.5141   29.0961 N.pl3   1  UNL1       -0.2973
     22 H           1.0872   -1.4498   28.8643 H       1  UNL1        0.1536
     23 C           0.7864    0.5981   28.2228 C.ar    1  UNL1        0.0601
     24 C           1.7463    1.3678   27.3647 C.ar    1  UNL1        0.0164
     25 C           1.2459    2.4800   26.4914 C.ar    1  UNL1        0.0127
     26 C          -0.2145    2.8224   26.4762 C.ar    1  UNL1        0.0586
     27 CL         -0.7149    3.9346   25.6029 Cl      1  UNL1       -0.0822
     28 C          -1.1743    2.0527   27.3342 C.ar    1  UNL1        0.0240
     29 C          -0.6738    0.9406   28.2075 C.ar    1  UNL1        0.0719
     30 CL         -1.6337    0.1708   29.0656 Cl      1  UNL1       -0.0809
@<TRIPOS>BOND
     1    18    19    1
     2    19    20    1
     3    19     1    1
     4     1     2   ar
     5     2     3   ar
     6     3    21    1
     7    21    23    1
     8    23    24   ar
     9    24    25   ar
    10    25    26   ar
    11    26    27    1
    12    26    28   ar
    13    28    29   ar
    14    29    30    1
    15     3     4   ar
    16     4     5   ar
    17     5     6   ar
    18     6     7    1
    19     7     8    2
    20     7     9   am
    21     9    11    1
    22    11    12    1
    23    12    13    1
    24    13    14    1
    25    14    15    1
    26    15    16    1
    27    16    17    1
    28     6     1   ar
    29    17    12    1
    30    29    23   ar
    31    21    22    1
    32     9    10    1
@<TRIPOS>MOLECULE
*****
 30 32 0 0 0
SMALL
GASTEIGER

@<TRIPOS>ATOM
      1 C           6.1669   -2.4896   20.6635 C.ar    1  UNL1       -0.0138
      2 C           7.3340   -2.8475   21.5351 C.ar    1  UNL1        0.0303
      3 C           7.1302   -3.7122   22.7437 C.ar    1  UNL1        0.1319
      4 N           5.7592   -4.2190   23.0807 N.ar    1  UNL1       -0.2290
      5 C           4.5921   -3.8611   22.2091 C.ar    1  UNL1        0.1045
      6 C           4.7960   -2.9964   21.0005 C.ar    1  UNL1        0.0686
      7 C           3.6288   -2.6385   20.1288 C.2     1  UNL1        0.2471
      8 O           3.2833   -3.4971   18.9484 O.2     1  UNL1       -0.2701
      9 N           2.8072   -1.4222   20.4377 N.am    1  UNL1       -0.3008
     10 H           3.0340   -0.8587   21.2125 H       1  UNL1        0.1497
     11 C           1.6401   -1.0643   19.5660 C.3     1  UNL1        0.0898
     12 C           1.0264    0.3014   19.6577 C.3     1  UNL1        0.0246
     13 C           0.4316    0.7709   20.9521 C.3     1  UNL1        0.0338
     14 C          -0.1821    2.1366   21.0439 C.3     1  UNL1        0.1422
     15 O          -0.2008    3.0327   19.8411 O.3     1  UNL1       -0.3538
     16 C           0.3941    2.5631   18.5466 C.3     1  UNL1        0.1422
     17 C           1.0077    1.1975   18.4549 C.3     1  UNL1        0.0338
     18 C           6.2437   -0.1347   19.5688 C.3     1  UNL1        0.0047
     19 C           6.3708   -1.6249   19.4549 C.3     1  UNL1        0.0226
     20 C           6.7018   -2.2504   18.1324 C.3     1  UNL1        0.0047
     21 N           8.2973   -4.0700   23.6154 N.pl3   1  UNL1       -0.2973
     22 H           9.1141   -3.5208   23.5944 H       1  UNL1        0.1536
     23 C           8.2200   -5.2648   24.5191 C.ar    1  UNL1        0.0601
     24 C           8.6180   -6.6181   24.0088 C.ar    1  UNL1        0.0164
     25 C           8.5407   -7.8128   24.9125 C.ar    1  UNL1        0.0127
     26 C           8.0654   -7.6543   26.3264 C.ar    1  UNL1        0.0586
     27 CL          7.9880   -8.8490   27.2300 Cl      1  UNL1       -0.0822
     28 C           7.6674   -6.3010   26.8365 C.ar    1  UNL1        0.0240
     29 C           7.7448   -5.1063   25.9329 C.ar    1  UNL1        0.0719
     30 CL          7.3468   -3.7530   26.4431 Cl      1  UNL1       -0.0809
@<TRIPOS>BOND
     1    18    19    1
     2    19    20    1
     3    19     1    1
     4     1     2   ar
     5     2     3   ar
     6     3    21    1
     7    21    23    1
     8    23    24   ar
     9    24    25   ar
    10    25    26   ar
    11    26    27    1
    12    26    28   ar
    13    28    29   ar
    14    29    30    1
    15     3     4   ar
    16     4     5   ar
    17     5     6   ar
    18     6     7    1
    19     7     8    2
    20     7     9   am
    21     9    11    1
    22    11    12    1
    23    12    13    1
    24    13    14    1
    25    14    15    1
    26    15    16    1
    27    16    17    1
    28     6     1   ar
    29    17    12    1
    30    29    23   ar
    31    21    22    1
    32     9    10    1
