@<TRIPOS>MOLECULE
*****
 42 45 0 0 0
SMALL
GASTEIGER

@<TRIPOS>ATOM
      1 C           0.5713    3.2422   18.8351 C.3     1  UNL1        0.0959
      2 C          -0.5381    3.2714   17.8260 C.3     1  UNL1        0.1163
      3 N          -1.7252    3.9328   18.4612 N.am    1  UNL1       -0.2442
      4 C          -3.0546    4.1726   17.8092 C.2     1  UNL1        0.4047
      5 O          -3.2851    3.7354   16.3929 O.2     1  UNL1       -0.2262
      6 C          -1.3494    4.3123   19.8629 C.3     1  UNL1        0.0998
      7 C           0.0699    3.8854   20.0940 C.3     1  UNL1        0.0556
      8 N           3.6146    0.6949   18.8457 N.am    1  UNL1       -0.2485
      9 C           2.2444    1.2670   19.0582 C.2     1  UNL1        0.3059
     10 O           1.1769    0.4360   19.7063 O.2     1  UNL1       -0.2524
     11 N           1.9415    2.6701   18.6226 N.am    1  UNL1       -0.2885
     12 H           4.3152    1.2402   18.4204 H       1  UNL1        0.1583
     13 H           2.6421    3.2155   18.1973 H       1  UNL1        0.1510
     14 C           4.7065   -2.6040   20.5752 C.ar    1  UNL1        0.0803
     15 S           4.6182   -1.1068   20.5462 S.2     1  UNL1       -0.0488
     16 C           3.9174   -0.7081   19.2813 C.ar    1  UNL1        0.1664
     17 N           3.5725   -1.9589   18.5285 N.ar    1  UNL1       -0.2282
     18 C           4.0602   -3.1306   19.3282 C.ar    1  UNL1        0.0701
     19 C           3.9253   -4.5752   18.9476 C.3     1  UNL1        0.0528
     20 C           4.8002   -3.3525   23.0613 C.3     1  UNL1        0.0779
     21 C           5.3313   -3.4294   21.6605 C.2     1  UNL1        0.1807
     22 O           6.4872   -4.3319   21.3453 O.2     1  UNL1       -0.2908
     23 O          -4.1535    4.8496   18.5733 O.3     1  UNL1       -0.4418
     24 C          -5.5049    4.2061   18.6722 C.3     1  UNL1        0.1378
     25 C          -4.9936    3.2982   19.7513 C.3     1  UNL1        0.0437
     26 C          -6.0161    5.1140   17.5931 C.3     1  UNL1        0.0437
     27 C          -6.8562    3.5627   18.7711 C.3     1  UNL1        0.0437
     28 C           0.8507    4.0696   21.3614 C.3     1  UNL1        0.0755
     29 N           0.4986    3.2717   22.5819 N.3     1  UNL1       -0.2726
     30 C           1.1598    1.9483   22.8293 C.3     1  UNL1        0.0721
     31 C           0.8077    1.1505   24.0498 C.3     1  UNL1        0.0174
     32 C          -0.2057    1.6762   25.0228 C.3     1  UNL1        0.0031
     33 C          -0.8670    2.9996   24.7753 C.3     1  UNL1        0.0204
     34 C          -0.5148    3.7974   23.5549 C.3     1  UNL1        0.0724
     35 C          -1.8804    3.5253   25.7483 C.3     1  UNL1        0.0277
     36 C          -3.2884    3.7821   25.2994 C.ar    1  UNL1       -0.0220
     37 C          -4.2221    4.5680   26.1715 C.ar    1  UNL1       -0.0020
     38 C          -5.6301    4.8247   25.7225 C.ar    1  UNL1        0.0293
     39 C          -6.1044    4.2957   24.4015 C.ar    1  UNL1        0.1401
     40 F          -7.5125    4.5525   23.9526 F       1  UNL1       -0.2042
     41 C          -5.1707    3.5098   23.5294 C.ar    1  UNL1        0.0293
     42 C          -3.7626    3.2530   23.9783 C.ar    1  UNL1       -0.0020
@<TRIPOS>BOND
     1    20    21    1
     2    21    22    2
     3    21    14    1
     4    14    15   ar
     5    15    16   ar
     6    16     8    1
     7     8     9   am
     8     9    10    2
     9     9    11   am
    10     1    11    1
    11     1     2    1
    12     2     3    1
    13     3     4   am
    14     4     5    2
    15     4    23    1
    16    23    24    1
    17    24    25    1
    18    24    26    1
    19    24    27    1
    20     3     6    1
    21     6     7    1
    22     7    28    1
    23    28    29    1
    24    29    30    1
    25    30    31    1
    26    31    32    1
    27    32    33    1
    28    33    35    1
    29    35    36    1
    30    36    37   ar
    31    37    38   ar
    32    38    39   ar
    33    39    40    1
    34    39    41   ar
    35    41    42   ar
    36    33    34    1
    37    16    17   ar
    38    17    18   ar
    39    18    19    1
    40    18    14   ar
    41     7     1    1
    42    34    29    1
    43    42    36   ar
    44     8    12    1
    45    11    13    1
@<TRIPOS>MOLECULE
*****
 42 45 0 0 0
SMALL
GASTEIGER

@<TRIPOS>ATOM
      1 C           3.8460   -0.8277   26.3623 C.3     1  UNL1        0.0959
      2 C           2.7721    0.1113   26.8259 C.3     1  UNL1        0.1163
      3 N           3.2454    0.7702   28.0876 N.am    1  UNL1       -0.2442
      4 C           2.4857    1.7831   28.8919 C.2     1  UNL1        0.4047
      5 O           1.1211    2.2215   28.4495 O.2     1  UNL1       -0.2262
      6 C           4.6118    0.2384   28.4038 C.3     1  UNL1        0.0998
      7 C           4.9830   -0.7492   27.3375 C.3     1  UNL1        0.0556
      8 N           3.5353   -1.9372   22.5645 N.am    1  UNL1       -0.2485
      9 C           3.5890   -1.0717   23.7884 C.2     1  UNL1        0.3059
     10 O           3.4395    0.4155   23.6624 O.2     1  UNL1       -0.2524
     11 N           3.7923   -1.6933   25.1384 N.am    1  UNL1       -0.2885
     12 H           3.6334   -2.9133   22.6473 H       1  UNL1        0.1583
     13 H           3.8904   -2.6694   25.2211 H       1  UNL1        0.1510
     14 C           3.7100   -0.5707   18.9359 C.ar    1  UNL1        0.0803
     15 S           4.3302   -1.2927   20.0952 S.2     1  UNL1       -0.0488
     16 C           3.3320   -1.3157   21.2147 C.ar    1  UNL1        0.1664
     17 N           2.0949   -0.6078   20.7472 N.ar    1  UNL1       -0.2282
     18 C           2.3285   -0.1475   19.3388 C.ar    1  UNL1        0.0701
     19 C           1.3520    0.6042   18.4835 C.3     1  UNL1        0.0528
     20 C           5.5138    0.6335   17.5056 C.3     1  UNL1        0.0779
     21 C           4.3575   -0.3166   17.6070 C.2     1  UNL1        0.1807
     22 O           3.8489   -1.0126   16.3795 O.2     1  UNL1       -0.2908
     23 O           3.0904    2.3575   30.1385 O.3     1  UNL1       -0.4418
     24 C           2.3396    2.2919   31.4354 C.3     1  UNL1        0.1378
     25 C           2.5459    0.8068   31.4797 C.3     1  UNL1        0.0437
     26 C           2.1334    3.7770   31.3911 C.3     1  UNL1        0.0437
     27 C           1.5888    2.2264   32.7323 C.3     1  UNL1        0.0437
     28 C           6.2660   -1.5225   27.2599 C.3     1  UNL1        0.0755
     29 N           6.4276   -2.7882   28.0486 N.3     1  UNL1       -0.2726
     30 C           6.5030   -4.1085   27.3407 C.3     1  UNL1        0.0721
     31 C           6.6646   -5.3741   28.1293 C.3     1  UNL1        0.0174
     32 C           6.7510   -5.3195   29.6258 C.3     1  UNL1        0.0031
     33 C           6.6756   -3.9992   30.3337 C.3     1  UNL1        0.0204
     34 C           6.5140   -2.7336   29.5451 C.3     1  UNL1        0.0724
     35 C           6.7620   -3.9446   31.8302 C.3     1  UNL1        0.0277
     36 C           6.2296   -2.7528   32.5692 C.ar    1  UNL1       -0.0220
     37 C           4.8002   -2.7289   33.0233 C.ar    1  UNL1       -0.0020
     38 C           4.2678   -1.5371   33.7623 C.ar    1  UNL1        0.0293
     39 C           5.1648   -0.3691   34.0471 C.ar    1  UNL1        0.1401
     40 F           4.6323    0.8228   34.7861 F       1  UNL1       -0.2042
     41 C           6.5942   -0.3929   33.5930 C.ar    1  UNL1        0.0293
     42 C           7.1266   -1.5848   32.8540 C.ar    1  UNL1       -0.0020
@<TRIPOS>BOND
     1    20    21    1
     2    21    22    2
     3    21    14    1
     4    14    15   ar
     5    15    16   ar
     6    16     8    1
     7     8     9   am
     8     9    10    2
     9     9    11   am
    10     1    11    1
    11     1     2    1
    12     2     3    1
    13     3     4   am
    14     4     5    2
    15     4    23    1
    16    23    24    1
    17    24    25    1
    18    24    26    1
    19    24    27    1
    20     3     6    1
    21     6     7    1
    22     7    28    1
    23    28    29    1
    24    29    30    1
    25    30    31    1
    26    31    32    1
    27    32    33    1
    28    33    35    1
    29    35    36    1
    30    36    37   ar
    31    37    38   ar
    32    38    39   ar
    33    39    40    1
    34    39    41   ar
    35    41    42   ar
    36    33    34    1
    37    16    17   ar
    38    17    18   ar
    39    18    19    1
    40    18    14   ar
    41     7     1    1
    42    34    29    1
    43    42    36   ar
    44     8    12    1
    45    11    13    1
@<TRIPOS>MOLECULE
*****
 42 45 0 0 0
SMALL
GASTEIGER

@<TRIPOS>ATOM
      1 C           0.9526    3.1555   18.7934 C.3     1  UNL1        0.0959
      2 C          -0.2112    3.1755   17.8472 C.3     1  UNL1        0.1163
      3 N          -1.3595    3.8485   18.5390 N.am    1  UNL1       -0.2442
      4 C          -2.7226    4.0841   17.9590 C.2     1  UNL1        0.4047
      5 O          -3.0326    3.6298   16.5634 O.2     1  UNL1       -0.2262
      6 C          -0.9053    4.2445   19.9127 C.3     1  UNL1        0.0998
      7 C           0.5236    3.8162   20.0699 C.3     1  UNL1        0.0556
      8 N           3.9778    0.5910   18.6461 N.am    1  UNL1       -0.2485
      9 C           2.6229    1.1700   18.9272 C.2     1  UNL1        0.3059
     10 O           1.5834    0.3424   19.6231 O.2     1  UNL1       -0.2524
     11 N           2.3075    2.5766   18.5123 N.am    1  UNL1       -0.2885
     12 H           4.6601    1.1342   18.1893 H       1  UNL1        0.1583
     13 H           2.9898    3.1198   18.0555 H       1  UNL1        0.1510
     14 C           5.3006   -2.7234   20.1727 C.ar    1  UNL1        0.0803
     15 S           5.3234   -1.2270   20.0706 S.2     1  UNL1       -0.0488
     16 C           4.2932   -0.8155   19.0609 C.ar    1  UNL1        0.1664
     17 N           3.6337   -2.0576   18.5390 N.ar    1  UNL1       -0.2282
     18 C           4.2564   -3.2367   19.2261 C.ar    1  UNL1        0.0701
     19 C           3.8977   -4.6764   19.0053 C.3     1  UNL1        0.0528
     20 C           7.6335   -3.6988   20.7691 C.3     1  UNL1        0.0779
     21 C           6.1696   -3.5595   21.0647 C.2     1  UNL1        0.1807
     22 O           5.5746   -4.2564   22.2522 O.2     1  UNL1       -0.2908
     23 O          -3.7756    4.7741   18.7743 O.3     1  UNL1       -0.4418
     24 C          -5.1419    4.1683   18.9021 C.3     1  UNL1        0.1378
     25 C          -4.6489    3.2910   20.0146 C.3     1  UNL1        0.0437
     26 C          -5.6349    5.0455   17.7897 C.3     1  UNL1        0.0437
     27 C          -6.5082    3.5625   19.0299 C.3     1  UNL1        0.0437
     28 C           1.3742    4.0139   21.2894 C.3     1  UNL1        0.0755
     29 N           1.3514    2.9976   22.3925 N.3     1  UNL1       -0.2726
     30 C           2.3958    1.9222   22.4432 C.3     1  UNL1        0.0721
     31 C           2.3730    0.9060   23.5463 C.3     1  UNL1        0.0174
     32 C           1.3058    0.9653   24.5987 C.3     1  UNL1        0.0031
     33 C           0.2614    2.0407   24.5480 C.3     1  UNL1        0.0204
     34 C           0.2842    3.0569   23.4449 C.3     1  UNL1        0.0724
     35 C          -0.8058    2.0999   25.6004 C.3     1  UNL1        0.0277
     36 C          -0.4354    2.0023   27.0506 C.ar    1  UNL1       -0.0220
     37 C          -0.8388    0.7976   27.8483 C.ar    1  UNL1       -0.0020
     38 C          -0.4683    0.6999   29.2985 C.ar    1  UNL1        0.0293
     39 C           0.3056    1.8068   29.9511 C.ar    1  UNL1        0.1401
     40 F           0.6761    1.7091   31.4014 F       1  UNL1       -0.2042
     41 C           0.7090    3.0114   29.1535 C.ar    1  UNL1        0.0293
     42 C           0.3385    3.1091   27.7032 C.ar    1  UNL1       -0.0020
@<TRIPOS>BOND
     1    20    21    1
     2    21    22    2
     3    21    14    1
     4    14    15   ar
     5    15    16   ar
     6    16     8    1
     7     8     9   am
     8     9    10    2
     9     9    11   am
    10     1    11    1
    11     1     2    1
    12     2     3    1
    13     3     4   am
    14     4     5    2
    15     4    23    1
    16    23    24    1
    17    24    25    1
    18    24    26    1
    19    24    27    1
    20     3     6    1
    21     6     7    1
    22     7    28    1
    23    28    29    1
    24    29    30    1
    25    30    31    1
    26    31    32    1
    27    32    33    1
    28    33    35    1
    29    35    36    1
    30    36    37   ar
    31    37    38   ar
    32    38    39   ar
    33    39    40    1
    34    39    41   ar
    35    41    42   ar
    36    33    34    1
    37    16    17   ar
    38    17    18   ar
    39    18    19    1
    40    18    14   ar
    41     7     1    1
    42    34    29    1
    43    42    36   ar
    44     8    12    1
    45    11    13    1
@<TRIPOS>MOLECULE
*****
 42 45 0 0 0
SMALL
GASTEIGER

@<TRIPOS>ATOM
      1 C           4.3719   -1.5705   26.6633 C.3     1  UNL1        0.0959
      2 C           3.3857   -1.3002   27.7607 C.3     1  UNL1        0.1163
      3 N           4.1522   -0.8804   28.9798 N.am    1  UNL1       -0.2442
      4 C           3.5623   -0.5141   30.3094 C.2     1  UNL1        0.4047
      5 O           2.0756   -0.5499   30.5058 O.2     1  UNL1       -0.2262
      6 C           5.6122   -0.8912   28.6359 C.3     1  UNL1        0.0998
      7 C           5.7480   -1.3177   27.2042 C.3     1  UNL1        0.0556
      8 N           3.4963   -1.4430   22.7945 N.am    1  UNL1       -0.2485
      9 C           3.8279   -0.9981   24.1881 C.2     1  UNL1        0.3059
     10 O           3.9470    0.4642   24.5001 O.2     1  UNL1       -0.2524
     11 N           4.0403   -2.0154   25.2697 N.am    1  UNL1       -0.2885
     12 H           3.4181   -2.4028   22.5898 H       1  UNL1        0.1583
     13 H           3.9621   -2.9752   25.0650 H       1  UNL1        0.1510
     14 C           2.2146    1.0592   20.1185 C.ar    1  UNL1        0.0803
     15 S           1.9578    0.0418   21.1904 S.2     1  UNL1       -0.0488
     16 C           3.2838   -0.4257   21.7130 C.ar    1  UNL1        0.1664
     17 N           4.3602    0.3028   20.9641 N.ar    1  UNL1       -0.2282
     18 C           3.6993    1.2205   19.9787 C.ar    1  UNL1        0.0701
     19 C           4.4001    2.1385   19.0214 C.3     1  UNL1        0.0528
     20 C           0.6802    3.1289   19.7844 C.3     1  UNL1        0.0779
     21 C           1.1700    1.7874   19.3257 C.2     1  UNL1        0.1807
     22 O           0.6152    1.1741   18.0743 O.2     1  UNL1       -0.2908
     23 O           4.4589   -0.1120   31.4426 O.3     1  UNL1       -0.4418
     24 C           4.3656   -0.8214   32.7609 C.3     1  UNL1        0.1378
     25 C           3.7028    0.3826   33.3619 C.3     1  UNL1        0.0437
     26 C           5.0284   -2.0254   32.1599 C.3     1  UNL1        0.0437
     27 C           4.2723   -1.5309   34.0792 C.3     1  UNL1        0.0437
     28 C           7.0340   -1.4655   26.4465 C.3     1  UNL1        0.0755
     29 N           7.2326   -2.6336   25.5265 N.3     1  UNL1       -0.2726
     30 C           7.0839   -4.0323   26.0476 C.3     1  UNL1        0.0721
     31 C           7.2825   -5.2003   25.1277 C.3     1  UNL1        0.0174
     32 C           7.6298   -4.9696   23.6868 C.3     1  UNL1        0.0031
     33 C           7.7784   -3.5709   23.1657 C.3     1  UNL1        0.0204
     34 C           7.5798   -2.4029   24.0856 C.3     1  UNL1        0.0724
     35 C           8.1257   -3.3402   21.7248 C.3     1  UNL1        0.0277
     36 C           7.0453   -3.0191   20.7351 C.ar    1  UNL1       -0.0220
     37 C           5.6958   -3.6617   20.8630 C.ar    1  UNL1       -0.0020
     38 C           4.6154   -3.3405   19.8733 C.ar    1  UNL1        0.0293
     39 C           4.8844   -2.3769   18.7557 C.ar    1  UNL1        0.1401
     40 F           3.8039   -2.0558   17.7659 F       1  UNL1       -0.2042
     41 C           6.2337   -1.7344   18.6277 C.ar    1  UNL1        0.0293
     42 C           7.3142   -2.0555   19.6175 C.ar    1  UNL1       -0.0020
@<TRIPOS>BOND
     1    20    21    1
     2    21    22    2
     3    21    14    1
     4    14    15   ar
     5    15    16   ar
     6    16     8    1
     7     8     9   am
     8     9    10    2
     9     9    11   am
    10     1    11    1
    11     1     2    1
    12     2     3    1
    13     3     4   am
    14     4     5    2
    15     4    23    1
    16    23    24    1
    17    24    25    1
    18    24    26    1
    19    24    27    1
    20     3     6    1
    21     6     7    1
    22     7    28    1
    23    28    29    1
    24    29    30    1
    25    30    31    1
    26    31    32    1
    27    32    33    1
    28    33    35    1
    29    35    36    1
    30    36    37   ar
    31    37    38   ar
    32    38    39   ar
    33    39    40    1
    34    39    41   ar
    35    41    42   ar
    36    33    34    1
    37    16    17   ar
    38    17    18   ar
    39    18    19    1
    40    18    14   ar
    41     7     1    1
    42    34    29    1
    43    42    36   ar
    44     8    12    1
    45    11    13    1
@<TRIPOS>MOLECULE
*****
 42 45 0 0 0
SMALL
GASTEIGER

@<TRIPOS>ATOM
      1 C           3.6959   -0.4952   26.1987 C.3     1  UNL1        0.0959
      2 C           4.4171   -1.6428   26.8412 C.3     1  UNL1        0.1163
      3 N           5.0097   -1.1548   28.1299 N.am    1  UNL1       -0.2442
      4 C           5.8158   -1.9724   29.0952 C.2     1  UNL1        0.4047
      5 O           6.0918   -3.4181   28.8056 O.2     1  UNL1       -0.2262
      6 C           4.6546    0.2944   28.2839 C.3     1  UNL1        0.0998
      7 C           3.8426    0.7021   27.0903 C.3     1  UNL1        0.0556
      8 N           2.9090   -1.0750   22.3522 N.am    1  UNL1       -0.2485
      9 C           3.6474   -1.0327   23.6572 C.2     1  UNL1        0.3059
     10 O           5.0758   -1.4855   23.7258 O.2     1  UNL1       -0.2524
     11 N           2.9575   -0.5375   24.8937 N.am    1  UNL1       -0.2885
     12 H           1.9715   -0.7778   22.3072 H       1  UNL1        0.1583
     13 H           2.0200   -0.2403   24.8488 H       1  UNL1        0.1510
     14 C           4.8245   -1.6257   19.0217 C.ar    1  UNL1        0.0803
     15 S           4.2696   -0.7182   20.0792 S.2     1  UNL1       -0.0488
     16 C           3.5989   -1.5701   21.1159 C.ar    1  UNL1        0.1664
     17 N           3.7394   -3.0042   20.6989 N.ar    1  UNL1       -0.2282
     18 C           4.4968   -3.0385   19.4046 C.ar    1  UNL1        0.0701
     19 C           4.8624   -4.2695   18.6294 C.3     1  UNL1        0.0528
     20 C           5.0523   -0.0715   16.9523 C.3     1  UNL1        0.0779
     21 C           5.5753   -1.1959   17.7963 C.2     1  UNL1        0.1807
     22 O           6.8490   -1.8903   17.4150 O.2     1  UNL1       -0.2908
     23 O           6.3459   -1.3444   30.3499 O.3     1  UNL1       -0.4418
     24 C           5.9279   -1.8756   31.6890 C.3     1  UNL1        0.1378
     25 C           4.5932   -1.2081   31.5371 C.3     1  UNL1        0.0437
     26 C           7.2626   -2.5430   31.8408 C.3     1  UNL1        0.0437
     27 C           5.5100   -2.4068   33.0280 C.3     1  UNL1        0.0437
     28 C           3.2767    2.0672   26.8335 C.3     1  UNL1        0.0755
     29 N           1.9363    2.2120   26.1758 N.3     1  UNL1       -0.2726
     30 C           0.7023    1.7196   26.8719 C.3     1  UNL1        0.0721
     31 C          -0.6380    1.8643   26.2142 C.3     1  UNL1        0.0174
     32 C          -0.7443    2.5015   24.8604 C.3     1  UNL1        0.0031
     33 C           0.4898    2.9939   24.1643 C.3     1  UNL1        0.0204
     34 C           1.8301    2.8491   24.8220 C.3     1  UNL1        0.0724
     35 C           0.3835    3.6311   22.8106 C.3     1  UNL1        0.0277
     36 C           0.5834    2.8046   21.5749 C.ar    1  UNL1       -0.0220
     37 C           1.0850    3.4473   20.3157 C.ar    1  UNL1       -0.0020
     38 C           1.2849    2.6208   19.0800 C.ar    1  UNL1        0.0293
     39 C           0.9832    1.1517   19.1034 C.ar    1  UNL1        0.1401
     40 F           1.1831    0.3252   17.8676 F       1  UNL1       -0.2042
     41 C           0.4816    0.5090   20.3625 C.ar    1  UNL1        0.0293
     42 C           0.2817    1.3354   21.5983 C.ar    1  UNL1       -0.0020
@<TRIPOS>BOND
     1    20    21    1
     2    21    22    2
     3    21    14    1
     4    14    15   ar
     5    15    16   ar
     6    16     8    1
     7     8     9   am
     8     9    10    2
     9     9    11   am
    10     1    11    1
    11     1     2    1
    12     2     3    1
    13     3     4   am
    14     4     5    2
    15     4    23    1
    16    23    24    1
    17    24    25    1
    18    24    26    1
    19    24    27    1
    20     3     6    1
    21     6     7    1
    22     7    28    1
    23    28    29    1
    24    29    30    1
    25    30    31    1
    26    31    32    1
    27    32    33    1
    28    33    35    1
    29    35    36    1
    30    36    37   ar
    31    37    38   ar
    32    38    39   ar
    33    39    40    1
    34    39    41   ar
    35    41    42   ar
    36    33    34    1
    37    16    17   ar
    38    17    18   ar
    39    18    19    1
    40    18    14   ar
    41     7     1    1
    42    34    29    1
    43    42    36   ar
    44     8    12    1
    45    11    13    1
@<TRIPOS>MOLECULE
*****
 42 45 0 0 0
SMALL
GASTEIGER

@<TRIPOS>ATOM
      1 C          -0.5452    1.3534   26.9420 C.3     1  UNL1        0.0959
      2 C          -1.7779    2.1094   27.3406 C.3     1  UNL1        0.1163
      3 N          -2.1167    3.0613   26.2318 N.am    1  UNL1       -0.2442
      4 C          -3.2753    4.0137   26.2106 C.2     1  UNL1        0.4047
      5 O          -4.2211    4.0703   27.3735 O.2     1  UNL1       -0.2262
      6 C          -1.0933    2.8934   25.1480 C.3     1  UNL1        0.0998
      7 C          -0.1221    1.8379   25.5869 C.3     1  UNL1        0.0556
      8 N           1.6493   -0.3679   29.7654 N.am    1  UNL1       -0.2485
      9 C           0.9607    0.6874   28.9517 C.2     1  UNL1        0.3059
     10 O           1.0892    2.1321   29.3341 O.2     1  UNL1       -0.2524
     11 N           0.1434    0.2980   27.7556 N.am    1  UNL1       -0.2885
     12 H           1.5649   -1.3162   29.5144 H       1  UNL1        0.1583
     13 H           0.0590   -0.6502   27.5047 H       1  UNL1        0.1510
     14 C           4.2674    0.1523   32.5832 C.ar    1  UNL1        0.0803
     15 S           3.8261   -0.5075   31.3105 S.2     1  UNL1       -0.0488
     16 C           2.4665    0.0214   30.9614 C.ar    1  UNL1        0.1664
     17 N           2.0676    1.0082   32.0185 N.ar    1  UNL1       -0.2282
     18 C           3.1806    1.0890   33.0208 C.ar    1  UNL1        0.0701
     19 C           3.2030    1.9546   34.2456 C.3     1  UNL1        0.0528
     20 C           5.5953   -0.8885   34.5588 C.3     1  UNL1        0.0779
     21 C           5.5673   -0.0833   33.2936 C.2     1  UNL1        0.1807
     22 O           6.8392    0.4863   32.7387 O.2     1  UNL1       -0.2908
     23 O          -3.4882    4.9095   25.0265 O.3     1  UNL1       -0.4418
     24 C          -4.8283    4.9583   24.3544 C.3     1  UNL1        0.1378
     25 C          -5.0051    6.3766   24.8100 C.3     1  UNL1        0.0437
     26 C          -4.6515    3.5402   23.8988 C.3     1  UNL1        0.0437
     27 C          -6.1684    5.0072   23.6822 C.3     1  UNL1        0.0437
     28 C           1.0639    1.3522   24.8076 C.3     1  UNL1        0.0755
     29 N           1.3240    1.8830   23.4289 N.3     1  UNL1       -0.2726
     30 C           1.8219    3.2861   23.2471 C.3     1  UNL1        0.0721
     31 C           2.0819    3.8168   21.8684 C.3     1  UNL1        0.0174
     32 C           1.8440    2.9444   20.6717 C.3     1  UNL1        0.0031
     33 C           1.3461    1.5412   20.8535 C.3     1  UNL1        0.0204
     34 C           1.0860    1.0105   22.2322 C.3     1  UNL1        0.0724
     35 C           1.1082    0.6688   19.6568 C.3     1  UNL1        0.0277
     36 C           2.1884   -0.2531   19.1741 C.ar    1  UNL1       -0.0220
     37 C           2.9092    0.0424   17.8921 C.ar    1  UNL1       -0.0020
     38 C           3.9895   -0.8795   17.4094 C.ar    1  UNL1        0.0293
     39 C           4.3491   -2.0969   18.2085 C.ar    1  UNL1        0.1401
     40 F           5.4294   -3.0188   17.7257 F       1  UNL1       -0.2042
     41 C           3.6284   -2.3924   19.4904 C.ar    1  UNL1        0.0293
     42 C           2.5480   -1.4705   19.9732 C.ar    1  UNL1       -0.0020
@<TRIPOS>BOND
     1    20    21    1
     2    21    22    2
     3    21    14    1
     4    14    15   ar
     5    15    16   ar
     6    16     8    1
     7     8     9   am
     8     9    10    2
     9     9    11   am
    10     1    11    1
    11     1     2    1
    12     2     3    1
    13     3     4   am
    14     4     5    2
    15     4    23    1
    16    23    24    1
    17    24    25    1
    18    24    26    1
    19    24    27    1
    20     3     6    1
    21     6     7    1
    22     7    28    1
    23    28    29    1
    24    29    30    1
    25    30    31    1
    26    31    32    1
    27    32    33    1
    28    33    35    1
    29    35    36    1
    30    36    37   ar
    31    37    38   ar
    32    38    39   ar
    33    39    40    1
    34    39    41   ar
    35    41    42   ar
    36    33    34    1
    37    16    17   ar
    38    17    18   ar
    39    18    19    1
    40    18    14   ar
    41     7     1    1
    42    34    29    1
    43    42    36   ar
    44     8    12    1
    45    11    13    1
@<TRIPOS>MOLECULE
*****
 42 45 0 0 0
SMALL
GASTEIGER

@<TRIPOS>ATOM
      1 C           2.2525   -0.1137   29.3654 C.3     1  UNL1        0.0959
      2 C           2.0273    0.5184   30.7069 C.3     1  UNL1        0.1163
      3 N           3.3136    0.4461   31.4752 N.am    1  UNL1       -0.2442
      4 C           3.5399    0.9603   32.8660 C.2     1  UNL1        0.4047
      5 O           2.4186    1.6184   33.6141 O.2     1  UNL1       -0.2262
      6 C           4.3337   -0.2307   30.6085 C.3     1  UNL1        0.0998
      7 C           3.6780   -0.5767   29.3046 C.3     1  UNL1        0.0556
      8 N           0.0159    0.7030   26.1903 N.am    1  UNL1       -0.2485
      9 C           1.0369    0.8469   27.2797 C.2     1  UNL1        0.3059
     10 O           1.8633    2.0952   27.3730 O.2     1  UNL1       -0.2524
     11 N           1.2315   -0.2576   28.2759 N.am    1  UNL1       -0.2885
     12 H          -0.5265   -0.1163   26.1291 H       1  UNL1        0.1583
     13 H           0.6891   -1.0769   28.2147 H       1  UNL1        0.1510
     14 C          -1.0489    3.7737   24.0684 C.ar    1  UNL1        0.0803
     15 S          -1.2165    2.8880   25.2673 S.2     1  UNL1       -0.0488
     16 C          -0.1787    1.8074   25.1942 C.ar    1  UNL1        0.1664
     17 N           0.6303    2.0252   23.9500 N.ar    1  UNL1       -0.2282
     18 C           0.0925    3.2404   23.2542 C.ar    1  UNL1        0.0701
     19 C           0.6060    3.8205   21.9697 C.3     1  UNL1        0.0528
     20 C          -3.3134    4.8181   23.3398 C.3     1  UNL1        0.0779
     21 C          -1.8772    4.9806   23.7411 C.2     1  UNL1        0.1807
     22 O          -1.2694    6.3499   23.8150 O.2     1  UNL1       -0.2908
     23 O           4.8875    0.8165   33.5088 O.3     1  UNL1       -0.4418
     24 C           4.9981    0.2919   34.9097 C.3     1  UNL1        0.1378
     25 C           4.5930   -1.0709   34.4313 C.3     1  UNL1        0.0437
     26 C           5.4033    1.6546   35.3880 C.3     1  UNL1        0.0437
     27 C           5.1088   -0.2327   36.3106 C.3     1  UNL1        0.0437
     28 C           4.3327   -1.2649   28.1437 C.3     1  UNL1        0.0755
     29 N           4.4720   -0.5525   26.8309 N.3     1  UNL1       -0.2726
     30 C           5.4492    0.5767   26.6904 C.3     1  UNL1        0.0721
     31 C           5.5885    1.2890   25.3777 C.3     1  UNL1        0.0174
     32 C           4.7506    0.8720   24.2055 C.3     1  UNL1        0.0031
     33 C           3.7734   -0.2573   24.3460 C.3     1  UNL1        0.0204
     34 C           3.6341   -0.9695   25.6587 C.3     1  UNL1        0.0724
     35 C           2.9355   -0.6743   23.1738 C.3     1  UNL1        0.0277
     36 C           3.4789   -1.6502   22.1728 C.ar    1  UNL1       -0.0220
     37 C           3.1521   -1.4920   20.7173 C.ar    1  UNL1       -0.0020
     38 C           3.6956   -2.4680   19.7163 C.ar    1  UNL1        0.0293
     39 C           4.5658   -3.6022   20.1707 C.ar    1  UNL1        0.1401
     40 F           5.1092   -4.5782   19.1695 F       1  UNL1       -0.2042
     41 C           4.8925   -3.7604   21.6260 C.ar    1  UNL1        0.0293
     42 C           4.3491   -2.7844   22.6272 C.ar    1  UNL1       -0.0020
@<TRIPOS>BOND
     1    20    21    1
     2    21    22    2
     3    21    14    1
     4    14    15   ar
     5    15    16   ar
     6    16     8    1
     7     8     9   am
     8     9    10    2
     9     9    11   am
    10     1    11    1
    11     1     2    1
    12     2     3    1
    13     3     4   am
    14     4     5    2
    15     4    23    1
    16    23    24    1
    17    24    25    1
    18    24    26    1
    19    24    27    1
    20     3     6    1
    21     6     7    1
    22     7    28    1
    23    28    29    1
    24    29    30    1
    25    30    31    1
    26    31    32    1
    27    32    33    1
    28    33    35    1
    29    35    36    1
    30    36    37   ar
    31    37    38   ar
    32    38    39   ar
    33    39    40    1
    34    39    41   ar
    35    41    42   ar
    36    33    34    1
    37    16    17   ar
    38    17    18   ar
    39    18    19    1
    40    18    14   ar
    41     7     1    1
    42    34    29    1
    43    42    36   ar
    44     8    12    1
    45    11    13    1
@<TRIPOS>MOLECULE
*****
 42 45 0 0 0
SMALL
GASTEIGER

@<TRIPOS>ATOM
      1 C           2.2597    1.5242   21.8036 C.3     1  UNL1        0.0959
      2 C           3.6378    0.9596   21.6247 C.3     1  UNL1        0.1163
      3 N           3.6275    0.0902   20.4023 N.am    1  UNL1       -0.2442
      4 C           4.7964   -0.6726   19.8530 C.2     1  UNL1        0.4047
      5 O           6.1275   -0.6032   20.5411 O.2     1  UNL1       -0.2262
      6 C           2.2430    0.1175   19.8258 C.3     1  UNL1        0.0998
      7 C           1.3976    1.0038   20.6918 C.3     1  UNL1        0.0556
      8 N           0.9833    2.8125   25.3337 N.am    1  UNL1       -0.2485
      9 C           1.4222    1.8895   24.2358 C.2     1  UNL1        0.3059
     10 O           1.4626    0.4088   24.4721 O.2     1  UNL1       -0.2524
     11 N           1.8207    2.4472   22.9015 N.am    1  UNL1       -0.2885
     12 H           0.9567    3.7843   25.1786 H       1  UNL1        0.1583
     13 H           1.7942    3.4190   22.7464 H       1  UNL1        0.1510
     14 C           0.5729    1.7168   29.0345 C.ar    1  UNL1        0.0803
     15 S           1.3236    2.4451   27.9593 S.2     1  UNL1       -0.0488
     16 C           0.5848    2.2548   26.6678 C.ar    1  UNL1        0.1664
     17 N          -0.6227    1.4089   26.9449 N.ar    1  UNL1       -0.2282
     18 C          -0.6299    1.0764   28.4076 C.ar    1  UNL1        0.0701
     19 C          -1.6593    0.2488   29.1185 C.3     1  UNL1        0.0528
     20 C           0.5252    2.7215   31.4299 C.3     1  UNL1        0.0779
     21 C           0.9576    1.6420   30.4824 C.2     1  UNL1        0.1807
     22 O           1.7745    0.4878   30.9828 O.2     1  UNL1       -0.2908
     23 O           4.6344   -1.5046   18.6156 O.3     1  UNL1       -0.4418
     24 C           4.8057   -2.9932   18.6849 C.3     1  UNL1        0.1378
     25 C           3.4232   -3.1258   19.2519 C.3     1  UNL1        0.0437
     26 C           6.1880   -2.8605   18.1180 C.3     1  UNL1        0.0437
     27 C           4.9770   -4.4817   18.7543 C.3     1  UNL1        0.0437
     28 C          -0.0547    1.3149   20.4828 C.3     1  UNL1        0.0755
     29 N          -0.5084    2.7407   20.3754 N.3     1  UNL1       -0.2726
     30 C           0.3254    3.7388   19.6282 C.3     1  UNL1        0.0721
     31 C          -0.1283    5.1645   19.5208 C.3     1  UNL1        0.0174
     32 C          -1.4158    5.5920   20.1607 C.3     1  UNL1        0.0031
     33 C          -2.2497    4.5939   20.9079 C.3     1  UNL1        0.0204
     34 C          -1.7960    3.1683   21.0153 C.3     1  UNL1        0.0724
     35 C          -3.5372    5.0215   21.5478 C.3     1  UNL1        0.0277
     36 C          -3.7723    4.7620   23.0064 C.ar    1  UNL1       -0.0220
     37 C          -3.1173    5.6319   24.0381 C.ar    1  UNL1       -0.0020
     38 C          -3.3524    5.3724   25.4966 C.ar    1  UNL1        0.0293
     39 C          -4.2424    4.2429   25.9235 C.ar    1  UNL1        0.1401
     40 F          -4.4775    3.9834   27.3821 F       1  UNL1       -0.2042
     41 C          -4.8974    3.3730   24.8919 C.ar    1  UNL1        0.0293
     42 C          -4.6623    3.6325   23.4333 C.ar    1  UNL1       -0.0020
@<TRIPOS>BOND
     1    20    21    1
     2    21    22    2
     3    21    14    1
     4    14    15   ar
     5    15    16   ar
     6    16     8    1
     7     8     9   am
     8     9    10    2
     9     9    11   am
    10     1    11    1
    11     1     2    1
    12     2     3    1
    13     3     4   am
    14     4     5    2
    15     4    23    1
    16    23    24    1
    17    24    25    1
    18    24    26    1
    19    24    27    1
    20     3     6    1
    21     6     7    1
    22     7    28    1
    23    28    29    1
    24    29    30    1
    25    30    31    1
    26    31    32    1
    27    32    33    1
    28    33    35    1
    29    35    36    1
    30    36    37   ar
    31    37    38   ar
    32    38    39   ar
    33    39    40    1
    34    39    41   ar
    35    41    42   ar
    36    33    34    1
    37    16    17   ar
    38    17    18   ar
    39    18    19    1
    40    18    14   ar
    41     7     1    1
    42    34    29    1
    43    42    36   ar
    44     8    12    1
    45    11    13    1
@<TRIPOS>MOLECULE
*****
 42 45 0 0 0
SMALL
GASTEIGER

@<TRIPOS>ATOM
      1 C           0.6838    1.1950   26.2613 C.3     1  UNL1        0.0959
      2 C          -0.6539    1.8013   25.9566 C.3     1  UNL1        0.1163
      3 N          -0.4852    2.7377   24.7969 N.am    1  UNL1       -0.2442
      4 C          -1.5683    3.5577   24.1609 C.2     1  UNL1        0.4047
      5 O          -2.9720    3.4813   24.6841 O.2     1  UNL1       -0.2262
      6 C           0.9568    2.7100   24.3849 C.3     1  UNL1        0.0998
      7 C           1.6793    1.7566   25.2900 C.3     1  UNL1        0.0556
      8 N           1.8618   -0.3322   29.7298 N.am    1  UNL1       -0.2485
      9 C           1.5708    0.6612   28.6443 C.2     1  UNL1        0.3059
     10 O           1.8757    2.1145   28.8563 O.2     1  UNL1       -0.2524
     11 N           0.9748    0.2015   27.3468 N.am    1  UNL1       -0.2885
     12 H           1.6617   -1.2861   29.5906 H       1  UNL1        0.1583
     13 H           0.7747   -0.7523   27.2076 H       1  UNL1        0.1510
     14 C           3.9445    0.3561   32.9319 C.ar    1  UNL1        0.0803
     15 S           3.7299   -0.3771   31.6411 S.2     1  UNL1       -0.0488
     16 C           2.4577    0.1275   31.0272 C.ar    1  UNL1        0.1664
     17 N           1.8860    1.1728   31.9387 N.ar    1  UNL1       -0.2282
     18 C           2.8050    1.3140   33.1158 C.ar    1  UNL1        0.0701
     19 C           2.6173    2.2490   34.2737 C.3     1  UNL1        0.0528
     20 C           6.3440    0.9811   33.7074 C.3     1  UNL1        0.0779
     21 C           5.0964    0.1651   33.8734 C.2     1  UNL1        0.1807
     22 O           5.0008   -0.8421   34.9809 O.2     1  UNL1       -0.2908
     23 O          -1.2477    4.4540   23.0018 O.3     1  UNL1       -0.4418
     24 C          -1.9847    4.2956   21.7049 C.3     1  UNL1        0.1378
     25 C          -1.1982    3.0527   21.4099 C.3     1  UNL1        0.0437
     26 C          -2.7711    5.5383   22.0000 C.3     1  UNL1        0.0437
     27 C          -2.7216    4.1371   20.4081 C.3     1  UNL1        0.0437
     28 C           3.1407    1.4233   25.2336 C.3     1  UNL1        0.0755
     29 N           3.5913    0.1252   24.6318 N.3     1  UNL1       -0.2726
     30 C           4.2208   -0.9248   25.4984 C.3     1  UNL1        0.0721
     31 C           4.6714   -2.2227   24.8966 C.3     1  UNL1        0.0174
     32 C           4.4923   -2.4707   23.4281 C.3     1  UNL1        0.0031
     33 C           3.8627   -1.4208   22.5615 C.3     1  UNL1        0.0204
     34 C           3.4122   -0.1228   23.1633 C.3     1  UNL1        0.0724
     35 C           3.6836   -1.6688   21.0930 C.3     1  UNL1        0.0277
     36 C           2.8377   -0.7402   20.2732 C.ar    1  UNL1       -0.0220
     37 C           1.3691   -0.6191   20.5535 C.ar    1  UNL1       -0.0020
     38 C           0.5232    0.3096   19.7337 C.ar    1  UNL1        0.0293
     39 C           1.1458    1.1171   18.6336 C.ar    1  UNL1        0.1401
     40 F           0.2998    2.0457   17.8138 F       1  UNL1       -0.2042
     41 C           2.6144    0.9960   18.3533 C.ar    1  UNL1        0.0293
     42 C           3.4604    0.0673   19.1731 C.ar    1  UNL1       -0.0020
@<TRIPOS>BOND
     1    20    21    1
     2    21    22    2
     3    21    14    1
     4    14    15   ar
     5    15    16   ar
     6    16     8    1
     7     8     9   am
     8     9    10    2
     9     9    11   am
    10     1    11    1
    11     1     2    1
    12     2     3    1
    13     3     4   am
    14     4     5    2
    15     4    23    1
    16    23    24    1
    17    24    25    1
    18    24    26    1
    19    24    27    1
    20     3     6    1
    21     6     7    1
    22     7    28    1
    23    28    29    1
    24    29    30    1
    25    30    31    1
    26    31    32    1
    27    32    33    1
    28    33    35    1
    29    35    36    1
    30    36    37   ar
    31    37    38   ar
    32    38    39   ar
    33    39    40    1
    34    39    41   ar
    35    41    42   ar
    36    33    34    1
    37    16    17   ar
    38    17    18   ar
    39    18    19    1
    40    18    14   ar
    41     7     1    1
    42    34    29    1
    43    42    36   ar
    44     8    12    1
    45    11    13    1
