@<TRIPOS>MOLECULE
*****
 40 45 0 0 0
SMALL
GASTEIGER

@<TRIPOS>ATOM
      1 C           3.6861   -1.4299   22.4826 C.ar    1  UNL1        0.2400
      2 N           4.5560   -2.4403   21.7954 N.ar    1  UNL1       -0.2090
      3 C           5.4374   -3.3451   22.6046 C.ar    1  UNL1        0.1021
      4 C           5.6921   -3.5054   24.1177 C.ar    1  UNL1        0.0207
      5 C           4.6929   -2.4322   23.8020 C.ar    1  UNL1        0.0221
      6 C           3.6974   -1.3241   23.9787 C.ar    1  UNL1        0.1178
      7 N           2.8136   -0.3013   24.6289 N.pl3   1  UNL1       -0.2104
      8 S           2.1372    0.5255   25.6820 S.O2    1  UNL1        0.0737
      9 O           1.7207    0.8727   24.2835 O.2     1  UNL1       -0.1499
     10 O           1.1262    1.6312   25.6115 O.2     1  UNL1       -0.1499
     11 C           1.7643    1.0699   27.3842 C.ar    1  UNL1        0.1253
     12 C           0.7577    2.1806   27.4375 C.ar    1  UNL1        0.0202
     13 C           0.3365    2.7481   28.7606 C.ar    1  UNL1        0.0015
     14 C           0.9220    2.2049   30.0303 C.ar    1  UNL1        0.0046
     15 C           1.9287    1.0942   29.9770 C.ar    1  UNL1        0.0547
     16 C           2.3498    0.5267   28.6539 C.ar    1  UNL1        0.0247
     17 C           2.4912    0.5780   31.2680 C.2     1  UNL1        0.2459
     18 O           1.7551    1.4631   32.2296 O.2     1  UNL1       -0.2701
     19 N           3.2961   -0.2296   32.2427 N.am    1  UNL1       -0.3009
     20 C           4.2561   -1.2412   32.7951 C.3     1  UNL1        0.0898
     21 C           5.2673   -2.3470   32.8656 C.3     1  UNL1        0.0230
     22 C           6.2199   -3.4272   32.4464 C.3     1  UNL1        0.0232
     23 C           7.0107   -4.3647   31.5830 C.3     1  UNL1        0.0908
     24 N           7.5542   -5.0580   30.3690 N.pl3   1  UNL1       -0.3074
     25 C           6.6016   -3.9778   30.7881 C.3     1  UNL1        0.0908
     26 C           5.8107   -3.0403   31.6515 C.3     1  UNL1        0.0232
     27 C           7.7914   -5.4320   28.9358 C.ar    1  UNL1        0.0508
     28 C           8.7107   -6.3869   29.6381 C.ar    1  UNL1        0.0352
     29 C           9.5351   -7.3558   28.8434 C.ar    1  UNL1        0.1001
     30 N           9.4402   -7.3699   27.3464 N.ar    1  UNL1       -0.2438
     31 C           8.5209   -6.4150   26.6442 C.ar    1  UNL1        0.0825
     32 C           8.3378   -6.3439   24.9977 C.ar    1  UNL1        0.0191
     33 C           7.4534   -5.4352   24.1965 C.ar    1  UNL1        0.0016
     34 C           6.5867   -4.4276   24.8918 C.ar    1  UNL1        0.0017
     35 C           7.2800   -5.0988   26.0403 C.ar    1  UNL1        0.0028
     36 C           7.6965   -5.4461   27.4389 C.ar    1  UNL1        0.0310
     37 H           2.4001    0.0897   23.8256 H       1  UNL1        0.1739
     38 H           2.9868    0.1768   33.0843 H       1  UNL1        0.1497
     39 C           2.3214   -0.9611   20.3220 C.3     1  UNL1        0.2543
     40 O           2.8047   -0.5251   21.6734 O.3     1  UNL1       -0.4553
@<TRIPOS>BOND
     1    39    40    1
     2    40     1    1
     3     1     2   ar
     4     2     3   ar
     5     3     4   ar
     6     4     5   ar
     7     5     6   ar
     8     6     7    1
     9     7     8    1
    10     8     9    2
    11     8    10    2
    12     8    11    1
    13    11    12   ar
    14    12    13   ar
    15    13    14   ar
    16    14    15   ar
    17    15    16   ar
    18    15    17    1
    19    17    18    2
    20    17    19   am
    21    19    20    1
    22    20    21    1
    23    21    22    1
    24    22    23    1
    25    23    24    1
    26    24    25    1
    27    25    26    1
    28    24    27    1
    29    27    28   ar
    30    28    29   ar
    31    29    30   ar
    32    30    31   ar
    33    31    32   ar
    34    32    33   ar
    35    33    34   ar
    36    34    35   ar
    37    35    36   ar
    38     6     1   ar
    39    16    11   ar
    40    26    21    1
    41    36    27   ar
    42    34     4    1
    43    36    31   ar
    44     7    37    1
    45    19    38    1
@<TRIPOS>MOLECULE
*****
 40 45 0 0 0
SMALL
GASTEIGER

@<TRIPOS>ATOM
      1 C           4.0477   -1.5789   22.3160 C.ar    1  UNL1        0.2400
      2 N           3.1001   -0.4219   22.4315 N.ar    1  UNL1       -0.2090
      3 C           2.7443    0.1242   23.7826 C.ar    1  UNL1        0.1021
      4 C           3.1551   -0.2501   25.2218 C.ar    1  UNL1        0.0207
      5 C           3.8000   -1.1194   24.1833 C.ar    1  UNL1        0.0221
      6 C           4.6396   -2.1898   23.5515 C.ar    1  UNL1        0.1178
      7 N           5.5831   -3.3454   23.3949 N.pl3   1  UNL1       -0.2104
      8 S           6.5282   -4.4608   23.7304 S.O2    1  UNL1        0.0737
      9 O           6.2884   -4.2963   22.2589 O.2     1  UNL1       -0.1499
     10 O           7.2806   -5.4441   22.8837 O.2     1  UNL1       -0.1499
     11 C           7.4995   -5.5423   24.8349 C.ar    1  UNL1        0.1253
     12 C           8.2983   -6.5726   24.0931 C.ar    1  UNL1        0.0202
     13 C           9.1547   -7.5447   24.8491 C.ar    1  UNL1        0.0015
     14 C           9.2123   -7.4865   26.3468 C.ar    1  UNL1        0.0046
     15 C           8.4135   -6.4562   27.0886 C.ar    1  UNL1        0.0547
     16 C           7.5571   -5.4840   26.3326 C.ar    1  UNL1        0.0247
     17 C           8.4974   -6.4298   28.5860 C.2     1  UNL1        0.2459
     18 O           9.4519   -7.5670   28.7999 O.2     1  UNL1       -0.2701
     19 N           8.2672   -6.0291   30.0130 N.am    1  UNL1       -0.3009
     20 C           7.7476   -5.2974   31.2151 C.3     1  UNL1        0.0898
     21 C           6.9951   -4.3141   32.0618 C.3     1  UNL1        0.0230
     22 C           6.0912   -3.1858   32.4615 C.3     1  UNL1        0.0232
     23 C           5.1339   -2.0346   32.3707 C.3     1  UNL1        0.0908
     24 N           4.2268   -0.9854   31.7996 N.pl3   1  UNL1       -0.3074
     25 C           5.1307   -2.1137   31.3999 C.3     1  UNL1        0.0908
     26 C           6.0881   -3.2649   31.4905 C.3     1  UNL1        0.0232
     27 C           3.4683   -0.1517   30.8097 C.ar    1  UNL1        0.0508
     28 C           3.0404    0.4768   32.1027 C.ar    1  UNL1        0.0352
     29 C           2.0848    1.6330   32.0945 C.ar    1  UNL1        0.1001
     30 N           1.5570    2.1606   30.7933 N.ar    1  UNL1       -0.2438
     31 C           1.9850    1.5321   29.5003 C.ar    1  UNL1        0.0825
     32 C           1.4654    2.0336   28.0077 C.ar    1  UNL1        0.0191
     33 C           1.8266    1.4811   26.6608 C.ar    1  UNL1        0.0016
     34 C           2.7750    0.3239   26.5545 C.ar    1  UNL1        0.0017
     35 C           2.7008    0.5405   28.0369 C.ar    1  UNL1        0.0028
     36 C           2.9406    0.3759   29.5085 C.ar    1  UNL1        0.0310
     37 H           5.5799   -3.4253   22.4136 H       1  UNL1        0.1739
     38 H           8.8439   -6.6889   30.4617 H       1  UNL1        0.1497
     39 C           3.3898   -2.1102   19.8594 C.3     1  UNL1        0.2543
     40 O           4.4034   -2.1250   20.9650 O.3     1  UNL1       -0.4553
@<TRIPOS>BOND
     1    39    40    1
     2    40     1    1
     3     1     2   ar
     4     2     3   ar
     5     3     4   ar
     6     4     5   ar
     7     5     6   ar
     8     6     7    1
     9     7     8    1
    10     8     9    2
    11     8    10    2
    12     8    11    1
    13    11    12   ar
    14    12    13   ar
    15    13    14   ar
    16    14    15   ar
    17    15    16   ar
    18    15    17    1
    19    17    18    2
    20    17    19   am
    21    19    20    1
    22    20    21    1
    23    21    22    1
    24    22    23    1
    25    23    24    1
    26    24    25    1
    27    25    26    1
    28    24    27    1
    29    27    28   ar
    30    28    29   ar
    31    29    30   ar
    32    30    31   ar
    33    31    32   ar
    34    32    33   ar
    35    33    34   ar
    36    34    35   ar
    37    35    36   ar
    38     6     1   ar
    39    16    11   ar
    40    26    21    1
    41    36    27   ar
    42    34     4    1
    43    36    31   ar
    44     7    37    1
    45    19    38    1
@<TRIPOS>MOLECULE
*****
 40 45 0 0 0
SMALL
GASTEIGER

@<TRIPOS>ATOM
      1 C           5.3023   -3.3042   21.8870 C.ar    1  UNL1        0.2400
      2 N           4.4199   -2.4111   21.0661 N.ar    1  UNL1       -0.2090
      3 C           3.5345   -1.4059   21.7411 C.ar    1  UNL1        0.1021
      4 C           3.2859   -1.0300   23.2167 C.ar    1  UNL1        0.0207
      5 C           4.2931   -2.1295   23.0535 C.ar    1  UNL1        0.0221
      6 C           5.2993   -3.1921   23.3827 C.ar    1  UNL1        0.1178
      7 N           6.1955   -4.1027   24.1687 N.pl3   1  UNL1       -0.2104
      8 S           6.8846   -4.7625   25.3262 S.O2    1  UNL1        0.0737
      9 O           7.2972   -5.3054   23.9903 O.2     1  UNL1       -0.1499
     10 O           7.9052   -5.8585   25.4104 O.2     1  UNL1       -0.1499
     11 C           7.2708   -5.0514   27.0870 C.ar    1  UNL1        0.1253
     12 C           8.2877   -6.1344   27.2944 C.ar    1  UNL1        0.0202
     13 C           8.7205   -6.5008   28.6830 C.ar    1  UNL1        0.0015
     14 C           8.1365   -5.7841   29.8643 C.ar    1  UNL1        0.0046
     15 C           7.1196   -4.7012   29.6569 C.ar    1  UNL1        0.0547
     16 C           6.6867   -4.3348   28.2682 C.ar    1  UNL1        0.0247
     17 C           6.5588   -4.0079   30.8630 C.2     1  UNL1        0.2459
     18 O           7.3077   -4.7383   31.9381 O.2     1  UNL1       -0.2701
     19 N           5.7516   -3.0741   31.7154 N.am    1  UNL1       -0.3009
     20 C           4.7852   -2.0011   32.1214 C.3     1  UNL1        0.0898
     21 C           3.7646   -0.9051   32.0372 C.3     1  UNL1        0.0230
     22 C           2.8002    0.0952   31.4720 C.3     1  UNL1        0.0232
     23 C           1.9967    0.8912   30.4867 C.3     1  UNL1        0.0908
     24 N           1.4409    1.3968   29.1885 N.pl3   1  UNL1       -0.3074
     25 C           2.4053    0.3965   29.7538 C.3     1  UNL1        0.0908
     26 C           3.2089   -0.3995   30.7389 C.3     1  UNL1        0.0232
     27 C           1.1933    1.5571   27.7177 C.ar    1  UNL1        0.0508
     28 C           0.2690    2.5962   28.2800 C.ar    1  UNL1        0.0352
     29 C          -0.5680    3.4330   27.3585 C.ar    1  UNL1        0.1001
     30 N          -0.4807    3.2307   25.8747 N.ar    1  UNL1       -0.2438
     31 C           0.4436    2.1917   25.3125 C.ar    1  UNL1        0.0825
     32 C           0.6191    1.8843   23.6926 C.ar    1  UNL1        0.0191
     33 C           1.5076    0.8763   23.0260 C.ar    1  UNL1        0.0016
     34 C           2.3868   -0.0128   23.8545 C.ar    1  UNL1        0.0017
     35 C           1.6933    0.8120   24.8980 C.ar    1  UNL1        0.0028
     36 C           1.2806    1.3549   26.2340 C.ar    1  UNL1        0.0310
     37 H           6.6085   -4.6026   23.4279 H       1  UNL1        0.1739
     38 H           6.0687   -3.3518   32.6051 H       1  UNL1        0.1497
     39 C           7.5513   -3.9068   20.7343 C.3     1  UNL1        0.2543
     40 O           6.1877   -4.3094   21.2119 O.3     1  UNL1       -0.4553
@<TRIPOS>BOND
     1    39    40    1
     2    40     1    1
     3     1     2   ar
     4     2     3   ar
     5     3     4   ar
     6     4     5   ar
     7     5     6   ar
     8     6     7    1
     9     7     8    1
    10     8     9    2
    11     8    10    2
    12     8    11    1
    13    11    12   ar
    14    12    13   ar
    15    13    14   ar
    16    14    15   ar
    17    15    16   ar
    18    15    17    1
    19    17    18    2
    20    17    19   am
    21    19    20    1
    22    20    21    1
    23    21    22    1
    24    22    23    1
    25    23    24    1
    26    24    25    1
    27    25    26    1
    28    24    27    1
    29    27    28   ar
    30    28    29   ar
    31    29    30   ar
    32    30    31   ar
    33    31    32   ar
    34    32    33   ar
    35    33    34   ar
    36    34    35   ar
    37    35    36   ar
    38     6     1   ar
    39    16    11   ar
    40    26    21    1
    41    36    27   ar
    42    34     4    1
    43    36    31   ar
    44     7    37    1
    45    19    38    1
@<TRIPOS>MOLECULE
*****
 40 45 0 0 0
SMALL
GASTEIGER

@<TRIPOS>ATOM
      1 C           8.1924   -5.4753   27.5353 C.ar    1  UNL1        0.2400
      2 N           8.4112   -5.8870   26.1096 N.ar    1  UNL1       -0.2090
      3 C           7.6285   -5.2307   25.0110 C.ar    1  UNL1        0.1021
      4 C           6.5489   -4.1289   24.9875 C.ar    1  UNL1        0.0207
      5 C           7.0347   -4.4440   26.3712 C.ar    1  UNL1        0.0221
      6 C           7.1910   -4.4076   27.8625 C.ar    1  UNL1        0.1178
      7 N           7.0007   -4.0236   29.3000 N.pl3   1  UNL1       -0.2104
      8 S           6.4845   -3.3337   30.5278 S.O2    1  UNL1        0.0737
      9 O           7.5322   -4.3682   30.8136 O.2     1  UNL1       -0.1499
     10 O           6.8100   -3.4750   31.9852 O.2     1  UNL1       -0.1499
     11 C           5.4515   -2.1536   31.4624 C.ar    1  UNL1        0.1253
     12 C           5.6932   -2.2062   32.9418 C.ar    1  UNL1        0.0202
     13 C           4.9266   -1.3008   33.8596 C.ar    1  UNL1        0.0015
     14 C           3.9182   -0.3428   33.2980 C.ar    1  UNL1        0.0046
     15 C           3.6764   -0.2902   31.8186 C.ar    1  UNL1        0.0547
     16 C           4.4431   -1.1956   30.9008 C.ar    1  UNL1        0.0247
     17 C           2.6601    0.6809   31.2954 C.2     1  UNL1        0.2459
     18 O           2.2213    1.3003   32.5892 O.2     1  UNL1       -0.2701
     19 N           1.7881    1.4483   30.3463 N.am    1  UNL1       -0.3009
     20 C           1.1551    1.9286   29.0740 C.3     1  UNL1        0.0898
     21 C           0.8296    2.0699   27.6165 C.3     1  UNL1        0.0230
     22 C           0.8468    1.8568   26.1318 C.3     1  UNL1        0.0232
     23 C           1.2050    1.3124   24.7808 C.3     1  UNL1        0.0908
     24 N           1.8652    0.4958   23.7098 N.pl3   1  UNL1       -0.3074
     25 C           1.8480    0.7089   25.1945 C.3     1  UNL1        0.0908
     26 C           1.4899    1.2532   26.5456 C.3     1  UNL1        0.0232
     27 C           2.7561   -0.5047   23.0349 C.ar    1  UNL1        0.0508
     28 C           2.0343    0.0788   21.8564 C.ar    1  UNL1        0.0352
     29 C           2.3374   -0.4136   20.4723 C.ar    1  UNL1        0.1001
     30 N           3.3623   -1.4894   20.2667 N.ar    1  UNL1       -0.2438
     31 C           4.0840   -2.0729   21.4450 C.ar    1  UNL1        0.0825
     32 C           5.2329   -3.2633   21.3336 C.ar    1  UNL1        0.0191
     33 C           6.0111   -3.9142   22.4385 C.ar    1  UNL1        0.0016
     34 C           5.7859   -3.4964   23.8614 C.ar    1  UNL1        0.0017
     35 C           4.8287   -2.6152   23.1150 C.ar    1  UNL1        0.0028
     36 C           3.7809   -1.5805   22.8291 C.ar    1  UNL1        0.0310
     37 H           7.6506   -4.6336   29.7181 H       1  UNL1        0.1739
     38 H           1.3118    2.0205   30.9904 H       1  UNL1        0.1497
     39 C           9.0213   -7.6277   28.7313 C.3     1  UNL1        0.2543
     40 O           8.9750   -6.1316   28.6339 O.3     1  UNL1       -0.4553
@<TRIPOS>BOND
     1    39    40    1
     2    40     1    1
     3     1     2   ar
     4     2     3   ar
     5     3     4   ar
     6     4     5   ar
     7     5     6   ar
     8     6     7    1
     9     7     8    1
    10     8     9    2
    11     8    10    2
    12     8    11    1
    13    11    12   ar
    14    12    13   ar
    15    13    14   ar
    16    14    15   ar
    17    15    16   ar
    18    15    17    1
    19    17    18    2
    20    17    19   am
    21    19    20    1
    22    20    21    1
    23    21    22    1
    24    22    23    1
    25    23    24    1
    26    24    25    1
    27    25    26    1
    28    24    27    1
    29    27    28   ar
    30    28    29   ar
    31    29    30   ar
    32    30    31   ar
    33    31    32   ar
    34    32    33   ar
    35    33    34   ar
    36    34    35   ar
    37    35    36   ar
    38     6     1   ar
    39    16    11   ar
    40    26    21    1
    41    36    27   ar
    42    34     4    1
    43    36    31   ar
    44     7    37    1
    45    19    38    1
@<TRIPOS>MOLECULE
*****
 40 45 0 0 0
SMALL
GASTEIGER

@<TRIPOS>ATOM
      1 C           7.9436   -5.7012   25.7424 C.ar    1  UNL1        0.2400
      2 N           8.5114   -6.1028   27.0714 N.ar    1  UNL1       -0.2090
      3 C           8.0465   -5.4193   28.3231 C.ar    1  UNL1        0.1021
      4 C           7.0281   -4.2951   28.6043 C.ar    1  UNL1        0.0207
      5 C           7.1394   -4.6342   27.1474 C.ar    1  UNL1        0.0221
      6 C           6.9109   -4.6161   25.6650 C.ar    1  UNL1        0.1178
      7 N           6.3671   -4.2427   24.3179 N.pl3   1  UNL1       -0.2104
      8 S           5.5670   -3.5546   23.2518 S.O2    1  UNL1        0.0737
      9 O           6.4889   -4.6137   22.7242 O.2     1  UNL1       -0.1499
     10 O           5.5076   -3.7173   21.7619 O.2     1  UNL1       -0.1499
     11 C           4.3508   -2.3627   22.5936 C.ar    1  UNL1        0.1253
     12 C           4.2064   -2.4353   21.1024 C.ar    1  UNL1        0.0202
     13 C           3.2471   -1.5234   20.3966 C.ar    1  UNL1        0.0015
     14 C           2.4322   -0.5390   21.1820 C.ar    1  UNL1        0.0046
     15 C           2.5767   -0.4664   22.6733 C.ar    1  UNL1        0.0547
     16 C           3.5360   -1.3783   23.3790 C.ar    1  UNL1        0.0247
     17 C           1.7447    0.5310   23.4235 C.2     1  UNL1        0.2459
     18 O           1.0014    1.1462   22.2749 O.2     1  UNL1       -0.2701
     19 N           1.1572    1.3259   24.5517 N.am    1  UNL1       -0.3009
     20 C           0.8781    1.8321   25.9359 C.3     1  UNL1        0.0898
     21 C           0.9375    1.9948   27.4259 C.3     1  UNL1        0.0230
     22 C           1.3290    1.7964   28.8602 C.3     1  UNL1        0.0232
     23 C           2.0102    1.2583   30.0835 C.3     1  UNL1        0.0908
     24 N           2.9073    0.4390   30.9631 N.pl3   1  UNL1       -0.3074
     25 C           2.5158    0.6374   29.5288 C.3     1  UNL1        0.0908
     26 C           1.8346    1.1754   28.3055 C.3     1  UNL1        0.0232
     27 C           3.9230   -0.5731   31.4039 C.ar    1  UNL1        0.0508
     28 C           3.5360    0.0372   32.7183 C.ar    1  UNL1        0.0352
     29 C           4.1733   -0.4474   33.9868 C.ar    1  UNL1        0.1001
     30 N           5.1976   -1.5422   33.9408 N.ar    1  UNL1       -0.2438
     31 C           5.5846   -2.1525   32.6264 C.ar    1  UNL1        0.0825
     32 C           6.7028   -3.3654   32.4594 C.ar    1  UNL1        0.0191
     33 C           7.1620   -4.0435   31.2027 C.ar    1  UNL1        0.0016
     34 C           6.5888   -3.6355   29.8779 C.ar    1  UNL1        0.0017
     35 C           5.8692   -2.7270   30.8302 C.ar    1  UNL1        0.0028
     36 C           4.9473   -1.6679   31.3579 C.ar    1  UNL1        0.0310
     37 H           6.8780   -4.8704   23.7573 H       1  UNL1        0.1739
     38 H           0.5425    1.9014   24.0416 H       1  UNL1        0.1497
     39 C           9.1866   -7.6640   24.5795 C.3     1  UNL1        0.2543
     40 O           8.4086   -6.3847   24.4907 O.3     1  UNL1       -0.4553
@<TRIPOS>BOND
     1    39    40    1
     2    40     1    1
     3     1     2   ar
     4     2     3   ar
     5     3     4   ar
     6     4     5   ar
     7     5     6   ar
     8     6     7    1
     9     7     8    1
    10     8     9    2
    11     8    10    2
    12     8    11    1
    13    11    12   ar
    14    12    13   ar
    15    13    14   ar
    16    14    15   ar
    17    15    16   ar
    18    15    17    1
    19    17    18    2
    20    17    19   am
    21    19    20    1
    22    20    21    1
    23    21    22    1
    24    22    23    1
    25    23    24    1
    26    24    25    1
    27    25    26    1
    28    24    27    1
    29    27    28   ar
    30    28    29   ar
    31    29    30   ar
    32    30    31   ar
    33    31    32   ar
    34    32    33   ar
    35    33    34   ar
    36    34    35   ar
    37    35    36   ar
    38     6     1   ar
    39    16    11   ar
    40    26    21    1
    41    36    27   ar
    42    34     4    1
    43    36    31   ar
    44     7    37    1
    45    19    38    1
@<TRIPOS>MOLECULE
*****
 40 45 0 0 0
SMALL
GASTEIGER

@<TRIPOS>ATOM
      1 C           0.4392    2.4702   27.2681 C.ar    1  UNL1        0.2400
      2 N           0.0601    2.6912   25.8337 N.ar    1  UNL1       -0.2090
      3 C           0.7133    1.8827   24.7521 C.ar    1  UNL1        0.1021
      4 C           1.7837    0.7717   24.7555 C.ar    1  UNL1        0.0207
      5 C           1.4577    1.2756   26.1302 C.ar    1  UNL1        0.0221
      6 C           1.4715    1.4407   27.6210 C.ar    1  UNL1        0.1178
      7 N           1.8236    1.2490   29.0664 N.pl3   1  UNL1       -0.2104
      8 S           2.4759    0.7213   30.3098 S.O2    1  UNL1        0.0737
      9 O           1.4670    1.8003   30.5701 O.2     1  UNL1       -0.1499
     10 O           2.3176    1.0605   31.7623 O.2     1  UNL1       -0.1499
     11 C           3.6085   -0.3389   31.2722 C.ar    1  UNL1        0.1253
     12 C           3.5360   -0.0859   32.7489 C.ar    1  UNL1        0.0202
     13 C           4.4020   -0.8722   33.6878 C.ar    1  UNL1        0.0015
     14 C           5.3405   -1.9115   33.1501 C.ar    1  UNL1        0.0046
     15 C           5.4130   -2.1645   31.6734 C.ar    1  UNL1        0.0547
     16 C           4.5470   -1.3782   30.7344 C.ar    1  UNL1        0.0247
     17 C           6.3637   -3.2118   31.1743 C.2     1  UNL1        0.2459
     18 O           6.9465   -3.6596   32.4820 O.2     1  UNL1       -0.2701
     19 N           7.1227   -4.1118   30.2449 N.am    1  UNL1       -0.3009
     20 C           7.6076   -4.7668   28.9855 C.3     1  UNL1        0.0898
     21 C           7.7658   -5.1060   27.5329 C.3     1  UNL1        0.0230
     22 C           7.5804   -5.0925   26.0445 C.3     1  UNL1        0.0232
     23 C           7.0712   -4.7278   24.6815 C.3     1  UNL1        0.0908
     24 N           6.2936   -4.0515   23.5917 N.pl3   1  UNL1       -0.3074
     25 C           6.4790   -4.0650   25.0801 C.3     1  UNL1        0.0908
     26 C           6.9882   -4.4296   26.4431 C.3     1  UNL1        0.0232
     27 C           5.3316   -3.1367   22.8930 C.ar    1  UNL1        0.0508
     28 C           5.9154   -3.8828   21.7300 C.ar    1  UNL1        0.0352
     29 C           5.4572   -3.5749   20.3352 C.ar    1  UNL1        0.1001
     30 N           4.4153   -2.5209   20.1036 N.ar    1  UNL1       -0.2438
     31 C           3.8317   -1.7749   21.2666 C.ar    1  UNL1        0.0825
     32 C           2.6772   -0.5929   21.1263 C.ar    1  UNL1        0.0191
     33 C           2.0291    0.2110   22.2142 C.ar    1  UNL1        0.0016
     34 C           2.4142   -0.0166   23.6459 C.ar    1  UNL1        0.0017
     35 C           3.2809   -1.0037   22.9217 C.ar    1  UNL1        0.0028
     36 C           4.2898   -2.0828   22.6613 C.ar    1  UNL1        0.0310
     37 H           1.2251    1.9190   29.4692 H       1  UNL1        0.1739
     38 H           7.6691   -4.6001   30.9023 H       1  UNL1        0.1497
     39 C           0.3182    4.6377   28.6954 C.3     1  UNL1        0.2543
     40 O          -0.2141    3.2787   28.3496 O.3     1  UNL1       -0.4553
@<TRIPOS>BOND
     1    39    40    1
     2    40     1    1
     3     1     2   ar
     4     2     3   ar
     5     3     4   ar
     6     4     5   ar
     7     5     6   ar
     8     6     7    1
     9     7     8    1
    10     8     9    2
    11     8    10    2
    12     8    11    1
    13    11    12   ar
    14    12    13   ar
    15    13    14   ar
    16    14    15   ar
    17    15    16   ar
    18    15    17    1
    19    17    18    2
    20    17    19   am
    21    19    20    1
    22    20    21    1
    23    21    22    1
    24    22    23    1
    25    23    24    1
    26    24    25    1
    27    25    26    1
    28    24    27    1
    29    27    28   ar
    30    28    29   ar
    31    29    30   ar
    32    30    31   ar
    33    31    32   ar
    34    32    33   ar
    35    33    34   ar
    36    34    35   ar
    37    35    36   ar
    38     6     1   ar
    39    16    11   ar
    40    26    21    1
    41    36    27   ar
    42    34     4    1
    43    36    31   ar
    44     7    37    1
    45    19    38    1
@<TRIPOS>MOLECULE
*****
 40 45 0 0 0
SMALL
GASTEIGER

@<TRIPOS>ATOM
      1 C           4.2859   -0.7626   33.0710 C.ar    1  UNL1        0.2400
      2 N           3.2911    0.3465   33.2452 N.ar    1  UNL1       -0.2090
      3 C           2.6010    0.9299   32.0479 C.ar    1  UNL1        0.1021
      4 C           2.6716    0.6392   30.5344 C.ar    1  UNL1        0.0207
      5 C           3.5809   -0.2381   31.3427 C.ar    1  UNL1        0.0221
      6 C           4.5905   -1.2884   31.6997 C.ar    1  UNL1        0.1178
      7 N           5.5911   -2.3980   31.5665 N.pl3   1  UNL1       -0.2104
      8 S           6.4741   -3.4466   30.9576 S.O2    1  UNL1        0.0737
      9 O           6.5858   -3.3576   32.4507 O.2     1  UNL1       -0.1499
     10 O           7.4468   -4.4237   31.5483 O.2     1  UNL1       -0.1499
     11 C           7.1976   -4.4273   29.5983 C.ar    1  UNL1        0.1253
     12 C           8.1921   -5.4445   30.0737 C.ar    1  UNL1        0.0202
     13 C           8.8828   -6.3369   29.0856 C.ar    1  UNL1        0.0015
     14 C           8.5789   -6.2122   27.6220 C.ar    1  UNL1        0.0046
     15 C           7.5843   -5.1950   27.1465 C.ar    1  UNL1        0.0547
     16 C           6.8937   -4.3025   28.1347 C.ar    1  UNL1        0.0247
     17 C           7.3073   -5.1007   25.6754 C.2     1  UNL1        0.2459
     18 O           8.2293   -6.1757   25.1811 O.2     1  UNL1       -0.2701
     19 N           6.7269   -4.6525   24.3669 N.am    1  UNL1       -0.3009
     20 C           5.9057   -3.8990   23.3628 C.3     1  UNL1        0.0898
     21 C           4.9329   -2.9218   22.7722 C.3     1  UNL1        0.0230
     22 C           3.9140   -1.8269   22.6587 C.3     1  UNL1        0.0232
     23 C           2.9592   -0.7329   23.0349 C.3     1  UNL1        0.0908
     24 N           2.1721    0.2416   23.8599 N.pl3   1  UNL1       -0.3074
     25 C           3.1911   -0.8533   23.9733 C.3     1  UNL1        0.0908
     26 C           4.1459   -1.9473   23.5972 C.3     1  UNL1        0.0232
     27 C           1.6380    0.9912   25.0444 C.ar    1  UNL1        0.0508
     28 C           0.8883    1.6505   23.9248 C.ar    1  UNL1        0.0352
     29 C          -0.0847    2.7531   24.2208 C.ar    1  UNL1        0.1001
     30 N          -0.3080    3.1964   25.6364 N.ar    1  UNL1       -0.2438
     31 C           0.4417    2.5370   26.7559 C.ar    1  UNL1        0.0825
     32 C           0.2730    2.9465   28.3538 C.ar    1  UNL1        0.0191
     33 C           0.9677    2.3573   29.5455 C.ar    1  UNL1        0.0016
     34 C           1.9611    1.2484   29.3621 C.ar    1  UNL1        0.0017
     35 C           1.5264    1.5234   27.9531 C.ar    1  UNL1        0.0028
     36 C           1.4146    1.4345   26.4599 C.ar    1  UNL1        0.0310
     37 H           5.8254   -2.5196   32.5149 H       1  UNL1        0.1739
     38 H           7.2066   -5.2613   23.7598 H       1  UNL1        0.1497
     39 C           5.0629   -0.5580   35.5417 C.3     1  UNL1        0.2543
     40 O           4.9759   -1.3460   34.2684 O.3     1  UNL1       -0.4553
@<TRIPOS>BOND
     1    39    40    1
     2    40     1    1
     3     1     2   ar
     4     2     3   ar
     5     3     4   ar
     6     4     5   ar
     7     5     6   ar
     8     6     7    1
     9     7     8    1
    10     8     9    2
    11     8    10    2
    12     8    11    1
    13    11    12   ar
    14    12    13   ar
    15    13    14   ar
    16    14    15   ar
    17    15    16   ar
    18    15    17    1
    19    17    18    2
    20    17    19   am
    21    19    20    1
    22    20    21    1
    23    21    22    1
    24    22    23    1
    25    23    24    1
    26    24    25    1
    27    25    26    1
    28    24    27    1
    29    27    28   ar
    30    28    29   ar
    31    29    30   ar
    32    30    31   ar
    33    31    32   ar
    34    32    33   ar
    35    33    34   ar
    36    34    35   ar
    37    35    36   ar
    38     6     1   ar
    39    16    11   ar
    40    26    21    1
    41    36    27   ar
    42    34     4    1
    43    36    31   ar
    44     7    37    1
    45    19    38    1
@<TRIPOS>MOLECULE
*****
 40 45 0 0 0
SMALL
GASTEIGER

@<TRIPOS>ATOM
      1 C           8.1197   -5.1004   25.8700 C.ar    1  UNL1        0.2400
      2 N           8.4523   -5.1306   27.3323 N.ar    1  UNL1       -0.2090
      3 C           7.6980   -4.2577   28.2912 C.ar    1  UNL1        0.1021
      4 C           6.5527   -3.2377   28.1239 C.ar    1  UNL1        0.0207
      5 C           6.9717   -3.8661   26.8280 C.ar    1  UNL1        0.0221
      6 C           7.0331   -4.1974   25.3663 C.ar    1  UNL1        0.1178
      7 N           6.7300   -4.1955   23.8973 N.pl3   1  UNL1       -0.2104
      8 S           6.0954   -3.8607   22.5800 S.O2    1  UNL1        0.0737
      9 O           7.1884   -4.8830   22.4797 O.2     1  UNL1       -0.1499
     10 O           6.3389   -4.3472   21.1822 O.2     1  UNL1       -0.1499
     11 C           4.9325   -3.0029   21.4643 C.ar    1  UNL1        0.1253
     12 C           5.0855   -3.4132   20.0297 C.ar    1  UNL1        0.0202
     13 C           4.2066   -2.8042   18.9777 C.ar    1  UNL1        0.0015
     14 C           3.1748   -1.7849   19.3604 C.ar    1  UNL1        0.0046
     15 C           3.0218   -1.3746   20.7950 C.ar    1  UNL1        0.0547
     16 C           3.9007   -1.9836   21.8470 C.ar    1  UNL1        0.0247
     17 C           1.9789   -0.3526   21.1380 C.2     1  UNL1        0.2459
     18 O           1.4220   -0.0989   19.7685 O.2     1  UNL1       -0.2701
     19 N           1.1192    0.5860   21.9317 N.am    1  UNL1       -0.3009
     20 C           0.5360    1.3394   23.0903 C.3     1  UNL1        0.0898
     21 C           0.2925    1.8259   24.4882 C.3     1  UNL1        0.0230
     22 C           0.4150    1.9929   25.9739 C.3     1  UNL1        0.0232
     23 C           0.8904    1.8221   27.3863 C.3     1  UNL1        0.0908
     24 N           1.6669    1.3323   28.5724 N.pl3   1  UNL1       -0.3074
     25 C           1.5444    1.1653   27.0867 C.3     1  UNL1        0.0908
     26 C           1.0691    1.3360   25.6743 C.3     1  UNL1        0.0232
     27 C           2.6606    0.5763   29.4038 C.ar    1  UNL1        0.0508
     28 C           1.9766    1.4017   30.4530 C.ar    1  UNL1        0.0352
     29 C           2.3957    1.2870   31.8887 C.ar    1  UNL1        0.1001
     30 N           3.4989    0.3469   32.2751 N.ar    1  UNL1       -0.2438
     31 C           4.1828   -0.4785   31.2259 C.ar    1  UNL1        0.0825
     32 C           5.4112   -1.5471   31.5401 C.ar    1  UNL1        0.0191
     33 C           6.1603   -2.4165   30.5743 C.ar    1  UNL1        0.0016
     34 C           5.8212   -2.3800   29.1136 C.ar    1  UNL1        0.0017
     35 C           4.8568   -1.3861   29.6899 C.ar    1  UNL1        0.0028
     36 C           3.7637   -0.3638   29.7902 C.ar    1  UNL1        0.0310
     37 H           7.3910   -4.8593   23.5946 H       1  UNL1        0.1739
     38 H           0.5680    0.9552   21.2043 H       1  UNL1        0.1497
     39 C           8.4137   -7.3774   24.6540 C.3     1  UNL1        0.2543
     40 O           8.8741   -5.9733   24.9112 O.3     1  UNL1       -0.4553
@<TRIPOS>BOND
     1    39    40    1
     2    40     1    1
     3     1     2   ar
     4     2     3   ar
     5     3     4   ar
     6     4     5   ar
     7     5     6   ar
     8     6     7    1
     9     7     8    1
    10     8     9    2
    11     8    10    2
    12     8    11    1
    13    11    12   ar
    14    12    13   ar
    15    13    14   ar
    16    14    15   ar
    17    15    16   ar
    18    15    17    1
    19    17    18    2
    20    17    19   am
    21    19    20    1
    22    20    21    1
    23    21    22    1
    24    22    23    1
    25    23    24    1
    26    24    25    1
    27    25    26    1
    28    24    27    1
    29    27    28   ar
    30    28    29   ar
    31    29    30   ar
    32    30    31   ar
    33    31    32   ar
    34    32    33   ar
    35    33    34   ar
    36    34    35   ar
    37    35    36   ar
    38     6     1   ar
    39    16    11   ar
    40    26    21    1
    41    36    27   ar
    42    34     4    1
    43    36    31   ar
    44     7    37    1
    45    19    38    1
@<TRIPOS>MOLECULE
*****
 40 45 0 0 0
SMALL
GASTEIGER

@<TRIPOS>ATOM
      1 C          -1.3837    3.2164   21.9836 C.ar    1  UNL1        0.2400
      2 N          -2.0388    3.6743   23.2530 N.ar    1  UNL1       -0.2090
      3 C          -1.5030    3.2218   24.5790 C.ar    1  UNL1        0.1021
      4 C          -0.3287    2.3122   24.9962 C.ar    1  UNL1        0.0207
      5 C          -0.4568    2.4589   23.5089 C.ar    1  UNL1        0.0221
      6 C          -0.1929    2.3061   22.0402 C.ar    1  UNL1        0.1178
      7 N           0.4345    1.8701   20.7493 N.pl3   1  UNL1       -0.2104
      8 S           1.3572    1.1982   19.7761 S.O2    1  UNL1        0.0737
      9 O           0.2944    2.0306   19.1224 O.2     1  UNL1       -0.1499
     10 O           1.4260    1.1951   18.2778 O.2     1  UNL1       -0.1499
     11 C           2.7597    0.1450   19.2694 C.ar    1  UNL1        0.1253
     12 C           2.9266    0.0667   17.7808 C.ar    1  UNL1        0.0202
     13 C           4.0329   -0.7578   17.1926 C.ar    1  UNL1        0.0015
     14 C           4.9723   -1.5042   18.0929 C.ar    1  UNL1        0.0046
     15 C           4.8053   -1.4259   19.5815 C.ar    1  UNL1        0.0547
     16 C           3.6990   -0.6014   20.1698 C.ar    1  UNL1        0.0247
     17 C           5.7645   -2.1863   20.4484 C.2     1  UNL1        0.2459
     18 O           6.6218   -2.8052   19.3844 O.2     1  UNL1       -0.2701
     19 N           6.4416   -2.7431   21.6656 N.am    1  UNL1       -0.3009
     20 C           6.7632   -3.0358   23.1013 C.3     1  UNL1        0.0898
     21 C           6.6943   -3.0327   24.5997 C.3     1  UNL1        0.0230
     22 C           6.2425   -2.7342   25.9986 C.3     1  UNL1        0.0232
     23 C           5.4567   -2.1725   27.1462 C.3     1  UNL1        0.0908
     24 N           4.4222   -1.4088   27.9184 N.pl3   1  UNL1       -0.3074
     25 C           4.8740   -1.7073   26.5195 C.3     1  UNL1        0.0908
     26 C           5.6597   -2.2688   25.3718 C.3     1  UNL1        0.0232
     27 C           3.2508   -0.5255   28.2314 C.ar    1  UNL1        0.0508
     28 C           3.6968   -0.9112   29.6106 C.ar    1  UNL1        0.0352
     29 C           2.9617   -0.3900   30.8098 C.ar    1  UNL1        0.1001
     30 N           1.7806    0.5170   30.6296 N.ar    1  UNL1       -0.2438
     31 C           1.3347    0.9028   29.2503 C.ar    1  UNL1        0.0825
     32 C           0.0454    1.8968   28.9356 C.ar    1  UNL1        0.0191
     33 C          -0.4837    2.3443   27.6053 C.ar    1  UNL1        0.0016
     34 C           0.1775    1.8816   26.3409 C.ar    1  UNL1        0.0017
     35 C           1.0069    1.2139   27.3975 C.ar    1  UNL1        0.0028
     36 C           2.0698    0.3815   28.0512 C.ar    1  UNL1        0.0310
     37 H          -0.1546    2.3403   20.1160 H       1  UNL1        0.1739
     38 H           7.1505   -3.2695   21.2302 H       1  UNL1        0.1497
     39 C          -3.3179    3.3094   20.2516 C.3     1  UNL1        0.2543
     40 O          -1.9195    3.6689   20.6577 O.3     1  UNL1       -0.4553
@<TRIPOS>BOND
     1    39    40    1
     2    40     1    1
     3     1     2   ar
     4     2     3   ar
     5     3     4   ar
     6     4     5   ar
     7     5     6   ar
     8     6     7    1
     9     7     8    1
    10     8     9    2
    11     8    10    2
    12     8    11    1
    13    11    12   ar
    14    12    13   ar
    15    13    14   ar
    16    14    15   ar
    17    15    16   ar
    18    15    17    1
    19    17    18    2
    20    17    19   am
    21    19    20    1
    22    20    21    1
    23    21    22    1
    24    22    23    1
    25    23    24    1
    26    24    25    1
    27    25    26    1
    28    24    27    1
    29    27    28   ar
    30    28    29   ar
    31    29    30   ar
    32    30    31   ar
    33    31    32   ar
    34    32    33   ar
    35    33    34   ar
    36    34    35   ar
    37    35    36   ar
    38     6     1   ar
    39    16    11   ar
    40    26    21    1
    41    36    27   ar
    42    34     4    1
    43    36    31   ar
    44     7    37    1
    45    19    38    1
