@<TRIPOS>MOLECULE
*****
 39 41 0 0 0
SMALL
GASTEIGER

@<TRIPOS>ATOM
      1 O          -8.7788  -17.3529   21.1238 O.3     1  UNL1       -0.2709
      2 P          -9.1078  -16.6950   22.4311 P.3     1  UNL1        0.4634
      3 O          -8.2184  -17.6692   23.1452 O.2     1  UNL1       -0.2281
      4 N          -9.9972  -15.7208   21.7170 N.3     1  UNL1       -0.1929
      5 H         -10.3575  -15.0788   22.4230 H       1  UNL1        0.1358
      6 C         -11.1799  -16.2163   20.9386 C.3     1  UNL1        0.1635
      7 C         -11.4581  -15.6713   19.5691 C.3     1  UNL1        0.0296
      8 C         -12.0842  -17.2569   21.5297 C.2     1  UNL1        0.3317
      9 O         -12.1896  -18.6097   20.8904 O.2     1  UNL1       -0.2486
     10 O         -12.8833  -16.9445   22.7602 O.3     1  UNL1       -0.4514
     11 C         -14.3463  -18.2749   24.4453 C.3     1  UNL1        0.0473
     12 C         -13.0031  -17.9627   23.8551 C.3     1  UNL1        0.1691
     13 C         -11.7797  -18.6687   24.3598 C.3     1  UNL1        0.0473
     14 O          -9.4368  -16.0372   23.7383 O.3     1  UNL1       -0.4115
     15 C          -8.3622  -15.8268   24.7634 C.ar    1  UNL1        0.1479
     16 C          -7.0345  -15.2621   24.3532 C.ar    1  UNL1        0.0374
     17 C          -5.9599  -15.0518   25.3784 C.ar    1  UNL1        0.0031
     18 C          -6.2130  -15.4061   26.8138 C.ar    1  UNL1        0.0002
     19 C          -7.5407  -15.9707   27.2240 C.ar    1  UNL1        0.0031
     20 C          -8.6153  -16.1811   26.1989 C.ar    1  UNL1        0.0374
     21 C          -8.3740  -18.7969   21.0918 C.3     1  UNL1        0.1857
     22 C          -6.9661  -19.1734   20.7364 C.3     1  UNL1        0.1782
     23 O          -5.7646  -18.2803   20.8286 O.3     1  UNL1       -0.3297
     24 C          -4.5686  -19.0640   20.3756 C.3     1  UNL1        0.2564
     25 C          -5.0310  -20.4416   20.0033 C.3     1  UNL1        0.2707
     26 F          -3.5825  -20.6720   19.6888 F       1  UNL1       -0.2161
     27 CL         -5.1906  -21.8673   19.5653 Cl      1  UNL1       -0.0736
     28 C          -6.5127  -20.5092   20.2263 C.3     1  UNL1        0.1891
     29 O          -7.3875  -21.7030   19.9821 O.3     1  UNL1       -0.3782
     30 H          -8.3053  -21.4824   20.2057 H       1  UNL1        0.2106
     31 N          -3.1578  -18.5589   20.3068 N.ar    1  UNL1       -0.2539
     32 C          -2.5222  -18.2879   18.9755 C.ar    1  UNL1        0.0869
     33 C          -1.1115  -17.7829   18.9068 C.ar    1  UNL1        0.0795
     34 C          -0.3364  -17.5488   20.1694 C.ar    1  UNL1        0.2626
     35 O           1.0744  -17.0437   20.1007 O.2     1  UNL1       -0.2670
     36 N          -0.9719  -17.8198   21.5008 N.ar    1  UNL1       -0.2743
     37 C          -2.3826  -18.3249   21.5695 C.ar    1  UNL1        0.3323
     38 O          -3.0182  -18.5959   22.9009 O.2     1  UNL1       -0.2464
     39 H          -0.4631  -17.6662   22.3295 H       1  UNL1        0.1734
@<TRIPOS>BOND
     1    11    12    1
     2    12    13    1
     3    12    10    1
     4    10     8    1
     5     8     9    2
     6     8     6    1
     7     6     7    1
     8     6     4    1
     9     4     2    1
    10     2     3    2
    11     2     1    1
    12     1    21    1
    13    22    21    1
    14    22    23    1
    15    23    24    1
    16    24    31    1
    17    31    32   ar
    18    32    33   ar
    19    33    34   ar
    20    34    35    2
    21    34    36   ar
    22    36    37   ar
    23    37    38    2
    24    24    25    1
    25    25    26    1
    26    25    27    1
    27    25    28    1
    28    28    29    1
    29     2    14    1
    30    14    15    1
    31    15    16   ar
    32    16    17   ar
    33    17    18   ar
    34    18    19   ar
    35    19    20   ar
    36    28    22    1
    37    20    15   ar
    38    37    31   ar
    39     4     5    1
    40    36    39    1
    41    29    30    1
@<TRIPOS>MOLECULE
*****
 39 41 0 0 0
SMALL
GASTEIGER

@<TRIPOS>ATOM
      1 O          -8.5652  -17.3021   21.2484 O.3     1  UNL1       -0.2709
      2 P          -8.7637  -16.3793   22.4142 P.3     1  UNL1        0.4634
      3 O          -8.2704  -15.2289   21.5877 O.2     1  UNL1       -0.2281
      4 N          -9.2570  -17.5298   23.2408 N.3     1  UNL1       -0.1929
      5 H          -8.9223  -18.3813   22.7897 H       1  UNL1        0.1358
      6 C         -10.7280  -17.7114   23.4713 C.3     1  UNL1        0.1635
      7 C         -11.2093  -18.5914   24.5865 C.3     1  UNL1        0.0296
      8 C         -11.7176  -17.0128   22.5866 C.2     1  UNL1        0.3317
      9 O         -12.1570  -15.6155   22.9097 O.2     1  UNL1       -0.2486
     10 O         -12.2679  -17.7117   21.3787 O.3     1  UNL1       -0.4514
     11 C         -11.5147  -16.2131   19.3947 C.3     1  UNL1        0.0473
     12 C         -11.5884  -17.5603   20.0502 C.3     1  UNL1        0.1691
     13 C         -10.9826  -18.7560   19.3770 C.3     1  UNL1        0.0473
     14 O          -8.9621  -15.4567   23.5800 O.3     1  UNL1       -0.4115
     15 C          -8.0112  -15.4977   24.7394 C.ar    1  UNL1        0.1479
     16 C          -6.5330  -15.4104   24.5004 C.ar    1  UNL1        0.0374
     17 C          -5.5821  -15.4514   25.6597 C.ar    1  UNL1        0.0031
     18 C          -6.1095  -15.5798   27.0581 C.ar    1  UNL1        0.0002
     19 C          -7.5877  -15.6672   27.2971 C.ar    1  UNL1        0.0031
     20 C          -8.5386  -15.6262   26.1377 C.ar    1  UNL1        0.0374
     21 C          -8.0657  -18.6984   21.4735 C.3     1  UNL1        0.1857
     22 C          -6.6836  -19.0806   21.0333 C.3     1  UNL1        0.1782
     23 O          -5.4696  -18.2006   21.0762 O.3     1  UNL1       -0.3297
     24 C          -4.3086  -18.9861   20.5423 C.3     1  UNL1        0.2564
     25 C          -4.8051  -20.3516   20.1693 C.3     1  UNL1        0.2707
     26 F          -3.3787  -20.5890   19.7704 F       1  UNL1       -0.2161
     27 CL         -5.0034  -21.7666   19.7129 Cl      1  UNL1       -0.0736
     28 C          -6.2729  -20.4100   20.4727 C.3     1  UNL1        0.1891
     29 O          -7.1721  -21.5905   20.2540 O.3     1  UNL1       -0.3782
     30 H          -8.0738  -21.3660   20.5324 H       1  UNL1        0.2106
     31 N          -2.8987  -18.4928   20.4053 N.ar    1  UNL1       -0.2539
     32 C          -2.2954  -18.3145   19.0437 C.ar    1  UNL1        0.0869
     33 C          -0.8855  -17.8212   18.9068 C.ar    1  UNL1        0.0795
     34 C          -0.0789  -17.5061   20.1316 C.ar    1  UNL1        0.2626
     35 O           1.3311  -17.0128   19.9946 O.2     1  UNL1       -0.2670
     36 N          -0.6822  -17.6844   21.4932 N.ar    1  UNL1       -0.2743
     37 C          -2.0921  -18.1777   21.6301 C.ar    1  UNL1        0.3323
     38 O          -2.6954  -18.3559   22.9919 O.2     1  UNL1       -0.2464
     39 H          -0.1528  -17.4776   22.2971 H       1  UNL1        0.1734
@<TRIPOS>BOND
     1    11    12    1
     2    12    13    1
     3    12    10    1
     4    10     8    1
     5     8     9    2
     6     8     6    1
     7     6     7    1
     8     6     4    1
     9     4     2    1
    10     2     3    2
    11     2     1    1
    12     1    21    1
    13    22    21    1
    14    22    23    1
    15    23    24    1
    16    24    31    1
    17    31    32   ar
    18    32    33   ar
    19    33    34   ar
    20    34    35    2
    21    34    36   ar
    22    36    37   ar
    23    37    38    2
    24    24    25    1
    25    25    26    1
    26    25    27    1
    27    25    28    1
    28    28    29    1
    29     2    14    1
    30    14    15    1
    31    15    16   ar
    32    16    17   ar
    33    17    18   ar
    34    18    19   ar
    35    19    20   ar
    36    28    22    1
    37    20    15   ar
    38    37    31   ar
    39     4     5    1
    40    36    39    1
    41    29    30    1
@<TRIPOS>MOLECULE
*****
 39 41 0 0 0
SMALL
GASTEIGER

@<TRIPOS>ATOM
      1 O          -5.4573  -18.4336   22.7650 O.3     1  UNL1       -0.2709
      2 P          -3.9920  -18.1247   22.6786 P.3     1  UNL1        0.4634
      3 O          -3.6964  -19.5820   22.4812 O.2     1  UNL1       -0.2281
      4 N          -4.2876  -16.6674   22.8760 N.3     1  UNL1       -0.1929
      5 H          -3.3883  -16.1897   22.9339 H       1  UNL1        0.1358
      6 C          -5.0931  -16.2191   24.0593 C.3     1  UNL1        0.1635
      7 C          -4.5956  -16.4848   25.4492 C.3     1  UNL1        0.0296
      8 C          -6.3959  -15.5050   23.8527 C.2     1  UNL1        0.3317
      9 O          -7.0257  -15.4723   22.4917 O.2     1  UNL1       -0.2486
     10 O          -7.0691  -14.8236   25.0071 O.3     1  UNL1       -0.4514
     11 C          -9.1826  -16.3323   25.0870 C.3     1  UNL1        0.0473
     12 C          -8.1193  -15.5473   25.7964 C.3     1  UNL1        0.1691
     13 C          -8.1065  -15.4860   27.2950 C.3     1  UNL1        0.0473
     14 O          -2.5268  -17.8158   22.5922 O.3     1  UNL1       -0.4115
     15 C          -1.8392  -17.8081   21.2591 C.ar    1  UNL1        0.1479
     16 C          -2.6490  -17.8523   19.9973 C.ar    1  UNL1        0.0374
     17 C          -1.9614  -17.8447   18.6642 C.ar    1  UNL1        0.0031
     18 C          -0.4640  -17.7929   18.5929 C.ar    1  UNL1        0.0002
     19 C           0.3458  -17.7487   19.8547 C.ar    1  UNL1        0.0031
     20 C          -0.3418  -17.7563   21.1878 C.ar    1  UNL1        0.0374
     21 C          -6.2017  -18.8861   21.5438 C.3     1  UNL1        0.1857
     22 C          -7.7012  -18.9254   21.5511 C.3     1  UNL1        0.1782
     23 O          -8.5819  -18.7487   22.7524 O.3     1  UNL1       -0.3297
     24 C         -10.0082  -18.8624   22.3022 C.3     1  UNL1        0.2564
     25 C         -10.0090  -19.1094   20.8226 C.3     1  UNL1        0.2707
     26 F         -11.5001  -19.1227   20.9845 F       1  UNL1       -0.2161
     27 CL        -10.3215  -19.3592   19.3769 Cl      1  UNL1       -0.0736
     28 C          -8.5831  -19.1484   20.3584 C.3     1  UNL1        0.1891
     29 O          -8.1205  -19.3712   18.9491 O.3     1  UNL1       -0.3782
     30 H          -7.1512  -19.3498   18.9198 H       1  UNL1        0.2106
     31 N         -11.2209  -18.7490   23.1777 N.ar    1  UNL1       -0.2539
     32 C         -12.4323  -18.0115   22.6893 C.ar    1  UNL1        0.0869
     33 C         -13.6449  -17.8981   23.5649 C.ar    1  UNL1        0.0795
     34 C         -13.6462  -18.5223   24.9288 C.ar    1  UNL1        0.2626
     35 O         -14.8589  -18.4089   25.8044 O.2     1  UNL1       -0.2670
     36 N         -12.4348  -19.2599   25.4172 N.ar    1  UNL1       -0.2743
     37 C         -11.2222  -19.3732   24.5417 C.ar    1  UNL1        0.3323
     38 O         -10.0108  -20.1108   25.0301 O.2     1  UNL1       -0.2464
     39 H         -12.4357  -19.6695   26.3124 H       1  UNL1        0.1734
@<TRIPOS>BOND
     1    11    12    1
     2    12    13    1
     3    12    10    1
     4    10     8    1
     5     8     9    2
     6     8     6    1
     7     6     7    1
     8     6     4    1
     9     4     2    1
    10     2     3    2
    11     2     1    1
    12     1    21    1
    13    22    21    1
    14    22    23    1
    15    23    24    1
    16    24    31    1
    17    31    32   ar
    18    32    33   ar
    19    33    34   ar
    20    34    35    2
    21    34    36   ar
    22    36    37   ar
    23    37    38    2
    24    24    25    1
    25    25    26    1
    26    25    27    1
    27    25    28    1
    28    28    29    1
    29     2    14    1
    30    14    15    1
    31    15    16   ar
    32    16    17   ar
    33    17    18   ar
    34    18    19   ar
    35    19    20   ar
    36    28    22    1
    37    20    15   ar
    38    37    31   ar
    39     4     5    1
    40    36    39    1
    41    29    30    1
@<TRIPOS>MOLECULE
*****
 39 41 0 0 0
SMALL
GASTEIGER

@<TRIPOS>ATOM
      1 O          -9.1297  -18.1870   19.5418 O.3     1  UNL1       -0.2709
      2 P         -10.4971  -18.3689   20.1310 P.3     1  UNL1        0.4634
      3 O         -10.3421  -19.8575   20.0311 O.2     1  UNL1       -0.2281
      4 N         -10.6521  -16.8802   20.2309 N.3     1  UNL1       -0.1929
      5 H         -10.0691  -16.4737   19.4992 H       1  UNL1        0.1358
      6 C         -10.3012  -16.1736   21.5067 C.3     1  UNL1        0.1635
      7 C         -11.3871  -15.6129   22.3764 C.3     1  UNL1        0.0296
      8 C          -8.8646  -16.0277   21.9126 C.2     1  UNL1        0.3317
      9 O          -7.9653  -15.0891   21.1642 O.2     1  UNL1       -0.2486
     10 O          -8.3272  -16.8205   23.0671 O.3     1  UNL1       -0.4514
     11 C          -8.6283  -15.8021   25.4382 C.3     1  UNL1        0.0473
     12 C          -7.7542  -16.1142   24.2598 C.3     1  UNL1        0.1691
     13 C          -6.3070  -15.7201   24.2742 C.3     1  UNL1        0.0473
     14 O         -11.8644  -18.5508   20.7201 O.3     1  UNL1       -0.4115
     15 C         -12.0338  -18.6437   22.2076 C.ar    1  UNL1        0.1479
     16 C         -10.9464  -19.2411   23.0505 C.ar    1  UNL1        0.0374
     17 C         -11.1159  -19.3341   24.5380 C.ar    1  UNL1        0.0031
     18 C         -12.3728  -18.8295   25.1826 C.ar    1  UNL1        0.0002
     19 C         -13.4602  -18.2321   24.3398 C.ar    1  UNL1        0.0031
     20 C         -13.2908  -18.1392   22.8523 C.ar    1  UNL1        0.0374
     21 C          -8.1932  -19.3547   19.4453 C.3     1  UNL1        0.1857
     22 C          -6.8548  -19.3006   20.1205 C.3     1  UNL1        0.1782
     23 O          -5.6209  -18.6403   19.5806 O.3     1  UNL1       -0.3297
     24 C          -4.5189  -18.8289   20.5806 C.3     1  UNL1        0.2564
     25 C          -5.0718  -19.6058   21.7386 C.3     1  UNL1        0.2707
     26 F          -3.6830  -19.4707   22.2891 F       1  UNL1       -0.2161
     27 CL         -5.3342  -20.3544   23.0116 Cl      1  UNL1       -0.0736
     28 C          -6.5154  -19.8973   21.4543 C.3     1  UNL1        0.1891
     29 O          -7.4547  -20.6528   22.3469 O.3     1  UNL1       -0.3782
     30 H          -8.3291  -20.7007   21.9296 H       1  UNL1        0.2106
     31 N          -3.1112  -18.3285   20.4462 N.ar    1  UNL1       -0.2539
     32 C          -2.1948  -18.9326   19.4239 C.ar    1  UNL1        0.0869
     33 C          -0.7872  -18.4322   19.2896 C.ar    1  UNL1        0.0795
     34 C          -0.2959  -17.3277   20.1776 C.ar    1  UNL1        0.2626
     35 O           1.1118  -16.8273   20.0433 O.2     1  UNL1       -0.2670
     36 N          -1.2123  -16.7235   21.2000 N.ar    1  UNL1       -0.2743
     37 C          -2.6199  -17.2240   21.3343 C.ar    1  UNL1        0.3323
     38 O          -3.5364  -16.6198   22.3567 O.2     1  UNL1       -0.2464
     39 H          -0.8898  -15.9986   21.7829 H       1  UNL1        0.1734
@<TRIPOS>BOND
     1    11    12    1
     2    12    13    1
     3    12    10    1
     4    10     8    1
     5     8     9    2
     6     8     6    1
     7     6     7    1
     8     6     4    1
     9     4     2    1
    10     2     3    2
    11     2     1    1
    12     1    21    1
    13    22    21    1
    14    22    23    1
    15    23    24    1
    16    24    31    1
    17    31    32   ar
    18    32    33   ar
    19    33    34   ar
    20    34    35    2
    21    34    36   ar
    22    36    37   ar
    23    37    38    2
    24    24    25    1
    25    25    26    1
    26    25    27    1
    27    25    28    1
    28    28    29    1
    29     2    14    1
    30    14    15    1
    31    15    16   ar
    32    16    17   ar
    33    17    18   ar
    34    18    19   ar
    35    19    20   ar
    36    28    22    1
    37    20    15   ar
    38    37    31   ar
    39     4     5    1
    40    36    39    1
    41    29    30    1
@<TRIPOS>MOLECULE
*****
 39 41 0 0 0
SMALL
GASTEIGER

@<TRIPOS>ATOM
      1 O           5.7528   -3.8144   20.1989 O.3     1  UNL1       -0.2709
      2 P           6.7092   -3.7816   21.3540 P.3     1  UNL1        0.4634
      3 O           5.7046   -4.4989   22.2061 O.2     1  UNL1       -0.2281
      4 N           7.7139   -3.0643   20.5018 N.3     1  UNL1       -0.1929
      5 H           8.5943   -3.0698   21.0168 H       1  UNL1        0.1358
      6 C           7.4658   -1.6453   20.0837 C.3     1  UNL1        0.1635
      7 C           7.1721   -0.5991   21.1177 C.3     1  UNL1        0.0296
      8 C           7.5114   -1.2724   18.6314 C.2     1  UNL1        0.3317
      9 O           7.1342   -2.2800   17.5862 O.2     1  UNL1       -0.2486
     10 O           7.9343    0.1080   18.2244 O.3     1  UNL1       -0.4514
     11 C           6.1025    1.9268   18.5182 C.3     1  UNL1        0.0473
     12 C           6.9344    1.0530   17.6269 C.3     1  UNL1        0.1691
     13 C           6.7665    1.1244   16.1381 C.3     1  UNL1        0.0473
     14 O           7.6656   -3.7489   22.5090 O.3     1  UNL1       -0.4115
     15 C           8.0190   -5.0179   23.2263 C.ar    1  UNL1        0.1479
     16 C           8.7514   -6.1091   22.5033 C.ar    1  UNL1        0.0374
     17 C           9.1048   -7.3781   23.2207 C.ar    1  UNL1        0.0031
     18 C           8.7258   -7.5560   24.6611 C.ar    1  UNL1        0.0002
     19 C           7.9934   -6.4648   25.3841 C.ar    1  UNL1        0.0031
     20 C           7.6400   -5.1958   24.6667 C.ar    1  UNL1        0.0374
     21 C           4.3079   -3.4726   20.4116 C.3     1  UNL1        0.1857
     22 C           3.7759   -2.1463   19.9554 C.3     1  UNL1        0.1782
     23 O           3.1317   -1.1082   20.8256 O.3     1  UNL1       -0.3297
     24 C           2.7523    0.0543   19.9570 C.3     1  UNL1        0.2564
     25 C           3.1620   -0.2653   18.5498 C.3     1  UNL1        0.2707
     26 F           2.5901    1.0870   18.2432 F       1  UNL1       -0.2161
     27 CL          3.4522   -0.3023   17.0786 Cl      1  UNL1       -0.0736
     28 C           3.7946   -1.6254   18.5488 C.3     1  UNL1        0.1891
     29 O           4.3487   -2.3392   17.3516 O.3     1  UNL1       -0.3782
     30 H           4.6994   -3.2019   17.6231 H       1  UNL1        0.2106
     31 N           2.0810    1.3152   20.4150 N.ar    1  UNL1       -0.2539
     32 C           2.8802    2.5742   20.5767 C.ar    1  UNL1        0.0869
     33 C           2.2090    3.8349   21.0347 C.ar    1  UNL1        0.0795
     34 C           0.7385    3.8367   21.3309 C.ar    1  UNL1        0.2626
     35 O           0.0672    5.0976   21.7889 O.2     1  UNL1       -0.2670
     36 N          -0.0607    2.5778   21.1692 N.ar    1  UNL1       -0.2743
     37 C           0.6106    1.3170   20.7112 C.ar    1  UNL1        0.3323
     38 O          -0.1886    0.0579   20.5494 O.2     1  UNL1       -0.2464
     39 H          -1.0258    2.5789   21.3636 H       1  UNL1        0.1734
@<TRIPOS>BOND
     1    11    12    1
     2    12    13    1
     3    12    10    1
     4    10     8    1
     5     8     9    2
     6     8     6    1
     7     6     7    1
     8     6     4    1
     9     4     2    1
    10     2     3    2
    11     2     1    1
    12     1    21    1
    13    22    21    1
    14    22    23    1
    15    23    24    1
    16    24    31    1
    17    31    32   ar
    18    32    33   ar
    19    33    34   ar
    20    34    35    2
    21    34    36   ar
    22    36    37   ar
    23    37    38    2
    24    24    25    1
    25    25    26    1
    26    25    27    1
    27    25    28    1
    28    28    29    1
    29     2    14    1
    30    14    15    1
    31    15    16   ar
    32    16    17   ar
    33    17    18   ar
    34    18    19   ar
    35    19    20   ar
    36    28    22    1
    37    20    15   ar
    38    37    31   ar
    39     4     5    1
    40    36    39    1
    41    29    30    1
@<TRIPOS>MOLECULE
*****
 39 41 0 0 0
SMALL
GASTEIGER

@<TRIPOS>ATOM
      1 O           2.2656    1.1295   19.0420 O.3     1  UNL1       -0.2709
      2 P           2.6194   -0.1924   19.6562 P.3     1  UNL1        0.4634
      3 O           1.1647   -0.5532   19.7177 O.2     1  UNL1       -0.2281
      4 N           4.0741    0.1683   19.5946 N.3     1  UNL1       -0.1929
      5 H           4.1723    1.0746   20.0522 H       1  UNL1        0.1358
      6 C           4.7646    0.2762   18.2674 C.3     1  UNL1        0.1635
      7 C           5.4467    1.5543   17.8786 C.3     1  UNL1        0.0296
      8 C           4.7728   -0.8939   17.3289 C.2     1  UNL1        0.3317
      9 O           3.7019   -1.0275   16.2872 O.2     1  UNL1       -0.2486
     10 O           5.8521   -1.9306   17.4322 O.3     1  UNL1       -0.4514
     11 C           4.8860   -3.9849   18.6956 C.3     1  UNL1        0.0473
     12 C           5.8824   -2.8675   18.6031 C.3     1  UNL1        0.1691
     13 C           6.9092   -2.6871   19.6817 C.3     1  UNL1        0.0473
     14 O           2.9732   -1.5143   20.2704 O.3     1  UNL1       -0.4115
     15 C           3.3971   -1.5842   21.7075 C.ar    1  UNL1        0.1479
     16 C           2.8662   -0.5880   22.6953 C.ar    1  UNL1        0.0374
     17 C           3.2901   -0.6579   24.1324 C.ar    1  UNL1        0.0031
     18 C           4.2449   -1.7239   24.5818 C.ar    1  UNL1        0.0002
     19 C           4.7757   -2.7201   23.5940 C.ar    1  UNL1        0.0031
     20 C           4.3519   -2.6502   22.1569 C.ar    1  UNL1        0.0374
     21 C           0.8635    1.3890   18.5765 C.3     1  UNL1        0.1857
     22 C          -0.0123    2.3453   19.3306 C.3     1  UNL1        0.1782
     23 O          -0.8755    2.0077   20.5099 O.3     1  UNL1       -0.3297
     24 C          -1.5753    3.2607   20.9460 C.3     1  UNL1        0.2564
     25 C          -1.1445    4.3728   20.0361 C.3     1  UNL1        0.2707
     26 F          -2.0605    5.2076   20.8812 F       1  UNL1       -0.2161
     27 CL         -0.9052    5.6594   19.3029 Cl      1  UNL1       -0.0736
     28 C          -0.1785    3.8070   19.0378 C.3     1  UNL1        0.1891
     29 O           0.5018    4.5691   17.9394 O.3     1  UNL1       -0.3782
     30 H           1.0751    3.9694   17.4368 H       1  UNL1        0.2106
     31 N          -2.5371    3.3808   22.0909 N.ar    1  UNL1       -0.2539
     32 C          -2.0219    3.5805   23.4853 C.ar    1  UNL1        0.0869
     33 C          -2.9836    3.7005   24.6301 C.ar    1  UNL1        0.0795
     34 C          -4.4605    3.6207   24.3805 C.ar    1  UNL1        0.2626
     35 O          -5.4223    3.7408   25.5254 O.2     1  UNL1       -0.2670
     36 N          -4.9757    3.4210   22.9860 N.ar    1  UNL1       -0.2743
     37 C          -4.0140    3.3010   21.8412 C.ar    1  UNL1        0.3323
     38 O          -4.5291    3.1012   20.4466 O.2     1  UNL1       -0.2464
     39 H          -5.9451    3.3686   22.8221 H       1  UNL1        0.1734
@<TRIPOS>BOND
     1    11    12    1
     2    12    13    1
     3    12    10    1
     4    10     8    1
     5     8     9    2
     6     8     6    1
     7     6     7    1
     8     6     4    1
     9     4     2    1
    10     2     3    2
    11     2     1    1
    12     1    21    1
    13    22    21    1
    14    22    23    1
    15    23    24    1
    16    24    31    1
    17    31    32   ar
    18    32    33   ar
    19    33    34   ar
    20    34    35    2
    21    34    36   ar
    22    36    37   ar
    23    37    38    2
    24    24    25    1
    25    25    26    1
    26    25    27    1
    27    25    28    1
    28    28    29    1
    29     2    14    1
    30    14    15    1
    31    15    16   ar
    32    16    17   ar
    33    17    18   ar
    34    18    19   ar
    35    19    20   ar
    36    28    22    1
    37    20    15   ar
    38    37    31   ar
    39     4     5    1
    40    36    39    1
    41    29    30    1
@<TRIPOS>MOLECULE
*****
 39 41 0 0 0
SMALL
GASTEIGER

@<TRIPOS>ATOM
      1 O           4.5385   -3.5870   22.1660 O.3     1  UNL1       -0.2709
      2 P           5.7977   -3.7213   22.9699 P.3     1  UNL1        0.4634
      3 O           6.4641   -4.4036   21.8121 O.2     1  UNL1       -0.2281
      4 N           5.1313   -3.0389   24.1277 N.3     1  UNL1       -0.1929
      5 H           4.2256   -3.4906   24.2540 H       1  UNL1        0.1358
      6 C           4.8758   -1.5616   24.0816 C.3     1  UNL1        0.1635
      7 C           5.8516   -0.6527   23.3947 C.3     1  UNL1        0.0296
      8 C           3.6444   -0.9931   24.7224 C.2     1  UNL1        0.3317
      9 O           3.5508   -0.9014   26.2167 O.2     1  UNL1       -0.2486
     10 O           2.5067   -0.5164   23.8689 O.3     1  UNL1       -0.4514
     11 C           2.9920    2.0335   23.7575 C.3     1  UNL1        0.0473
     12 C           2.0316    0.9022   23.9766 C.3     1  UNL1        0.1691
     13 C           0.5961    1.1897   24.3033 C.3     1  UNL1        0.0473
     14 O           7.0569   -3.8555   23.7738 O.3     1  UNL1       -0.4115
     15 C           7.3866   -5.1588   24.4392 C.ar    1  UNL1        0.1479
     16 C           8.2085   -6.1836   23.7153 C.ar    1  UNL1        0.0374
     17 C           8.5381   -7.4869   24.3807 C.ar    1  UNL1        0.0031
     18 C           8.0459   -7.7653   25.7700 C.ar    1  UNL1        0.0002
     19 C           7.2241   -6.7404   26.4939 C.ar    1  UNL1        0.0031
     20 C           6.8944   -5.4372   25.8285 C.ar    1  UNL1        0.0374
     21 C           4.6146   -3.3624   20.6849 C.3     1  UNL1        0.1857
     22 C           4.0127   -2.1280   20.0816 C.3     1  UNL1        0.1782
     23 O           3.3392   -1.0179   20.8327 O.3     1  UNL1       -0.3297
     24 C           2.8889    0.0092   19.8366 C.3     1  UNL1        0.2564
     25 C           3.2840   -0.4661   18.4698 C.3     1  UNL1        0.2707
     26 F           2.6441    0.8112   18.0127 F       1  UNL1       -0.2161
     27 CL          3.5454   -0.6744   17.0075 Cl      1  UNL1       -0.0736
     28 C           3.9786   -1.7870   18.6212 C.3     1  UNL1        0.1891
     29 O           4.5404   -2.6204   17.5078 O.3     1  UNL1       -0.3782
     30 H           4.9360   -3.4263   17.8751 H       1  UNL1        0.2106
     31 N           2.1696    1.2872   20.1518 N.ar    1  UNL1       -0.2539
     32 C           2.9055    2.5934   20.1043 C.ar    1  UNL1        0.0869
     33 C           2.1863    3.8714   20.4195 C.ar    1  UNL1        0.0795
     34 C           0.7311    3.8432   20.7823 C.ar    1  UNL1        0.2626
     35 O           0.0118    5.1212   21.0976 O.2     1  UNL1       -0.2670
     36 N          -0.0048    2.5370   20.8299 N.ar    1  UNL1       -0.2743
     37 C           0.7144    1.2591   20.5147 C.ar    1  UNL1        0.3323
     38 O          -0.0215   -0.0472   20.5622 O.2     1  UNL1       -0.2464
     39 H          -0.9599    2.5185   21.0680 H       1  UNL1        0.1734
@<TRIPOS>BOND
     1    11    12    1
     2    12    13    1
     3    12    10    1
     4    10     8    1
     5     8     9    2
     6     8     6    1
     7     6     7    1
     8     6     4    1
     9     4     2    1
    10     2     3    2
    11     2     1    1
    12     1    21    1
    13    22    21    1
    14    22    23    1
    15    23    24    1
    16    24    31    1
    17    31    32   ar
    18    32    33   ar
    19    33    34   ar
    20    34    35    2
    21    34    36   ar
    22    36    37   ar
    23    37    38    2
    24    24    25    1
    25    25    26    1
    26    25    27    1
    27    25    28    1
    28    28    29    1
    29     2    14    1
    30    14    15    1
    31    15    16   ar
    32    16    17   ar
    33    17    18   ar
    34    18    19   ar
    35    19    20   ar
    36    28    22    1
    37    20    15   ar
    38    37    31   ar
    39     4     5    1
    40    36    39    1
    41    29    30    1
@<TRIPOS>MOLECULE
*****
 39 41 0 0 0
SMALL
GASTEIGER

@<TRIPOS>ATOM
      1 O           2.7241   -1.1995   28.1080 O.3     1  UNL1       -0.2709
      2 P           2.8995   -0.3535   29.3342 P.3     1  UNL1        0.4634
      3 O           4.3222   -0.0824   28.9437 O.2     1  UNL1       -0.2281
      4 N           1.4768   -0.6246   29.7247 N.3     1  UNL1       -0.1929
      5 H           1.2790   -1.5907   29.4643 H       1  UNL1        0.1358
      6 C           0.3702    0.2127   29.1552 C.3     1  UNL1        0.1635
      7 C          -0.8877   -0.4403   28.6642 C.3     1  UNL1        0.0296
      8 C           0.5216    1.7030   29.0768 C.2     1  UNL1        0.3317
      9 O           0.4383    2.5320   30.3241 O.2     1  UNL1       -0.2486
     10 O           0.7561    2.3642   27.7509 O.3     1  UNL1       -0.4514
     11 C          -0.3209    4.7091   27.4488 C.3     1  UNL1        0.0473
     12 C          -0.3044    3.2390   27.1511 C.3     1  UNL1        0.1691
     13 C          -1.3486    2.6438   26.2537 C.3     1  UNL1        0.0473
     14 O           3.0749    0.4924   30.5603 O.3     1  UNL1       -0.4115
     15 C           3.5899   -0.1220   31.8281 C.ar    1  UNL1        0.1479
     16 C           3.9763   -1.5711   31.8562 C.ar    1  UNL1        0.0374
     17 C           4.4913   -2.1855   33.1239 C.ar    1  UNL1        0.0031
     18 C           4.6200   -1.3508   34.3636 C.ar    1  UNL1        0.0002
     19 C           4.2336    0.0982   34.3355 C.ar    1  UNL1        0.0031
     20 C           3.7186    0.7126   33.0678 C.ar    1  UNL1        0.0374
     21 C           3.8760   -1.4089   27.1702 C.3     1  UNL1        0.1857
     22 C           3.7042   -1.1524   25.7023 C.3     1  UNL1        0.1782
     23 O           4.5189   -1.7611   24.5997 O.3     1  UNL1       -0.3297
     24 C           4.0058   -1.2271   23.2953 C.3     1  UNL1        0.2564
     25 C           2.8740   -0.2883   23.5917 C.3     1  UNL1        0.2707
     26 F           2.8215   -0.1314   22.1009 F       1  UNL1       -0.2161
     27 CL          1.7312    0.6832   23.5765 Cl      1  UNL1       -0.0736
     28 C           2.6876   -0.2422   25.0794 C.3     1  UNL1        0.1891
     29 O           1.6643    0.5714   25.8149 O.3     1  UNL1       -0.3782
     30 H           1.7565    0.4211   26.7687 H       1  UNL1        0.2106
     31 N           4.5321   -1.5714   21.9334 N.ar    1  UNL1       -0.2539
     32 C           4.0078   -2.7757   21.2091 C.ar    1  UNL1        0.0869
     33 C           4.5340   -3.1199   19.8474 C.ar    1  UNL1        0.0795
     34 C           5.5846   -2.2598   19.2098 C.ar    1  UNL1        0.2626
     35 O           6.1109   -2.6040   17.8480 O.2     1  UNL1       -0.2670
     36 N           6.1089   -1.0554   19.9341 N.ar    1  UNL1       -0.2743
     37 C           5.5826   -0.7112   21.2959 C.ar    1  UNL1        0.3323
     38 O           6.1069    0.4932   22.0202 O.2     1  UNL1       -0.2464
     39 H           6.7984   -0.4909   19.5157 H       1  UNL1        0.1734
@<TRIPOS>BOND
     1    11    12    1
     2    12    13    1
     3    12    10    1
     4    10     8    1
     5     8     9    2
     6     8     6    1
     7     6     7    1
     8     6     4    1
     9     4     2    1
    10     2     3    2
    11     2     1    1
    12     1    21    1
    13    22    21    1
    14    22    23    1
    15    23    24    1
    16    24    31    1
    17    31    32   ar
    18    32    33   ar
    19    33    34   ar
    20    34    35    2
    21    34    36   ar
    22    36    37   ar
    23    37    38    2
    24    24    25    1
    25    25    26    1
    26    25    27    1
    27    25    28    1
    28    28    29    1
    29     2    14    1
    30    14    15    1
    31    15    16   ar
    32    16    17   ar
    33    17    18   ar
    34    18    19   ar
    35    19    20   ar
    36    28    22    1
    37    20    15   ar
    38    37    31   ar
    39     4     5    1
    40    36    39    1
    41    29    30    1
@<TRIPOS>MOLECULE
*****
 39 41 0 0 0
SMALL
GASTEIGER

@<TRIPOS>ATOM
      1 O           2.2165    0.9264   19.5799 O.3     1  UNL1       -0.2709
      2 P           2.6604   -0.4959   19.7530 P.3     1  UNL1        0.4634
      3 O           1.2561   -0.8918   20.1014 O.2     1  UNL1       -0.2281
      4 N           4.0646   -0.1001   19.4045 N.3     1  UNL1       -0.1929
      5 H           4.0744    0.9173   19.3320 H       1  UNL1        0.1358
      6 C           4.7051   -0.6293   18.1556 C.3     1  UNL1        0.1635
      7 C           3.9195   -0.6941   16.8795 C.3     1  UNL1        0.0296
      8 C           6.1311   -1.0937   18.1829 C.2     1  UNL1        0.3317
      9 O           6.5576   -2.2564   17.3367 O.2     1  UNL1       -0.2486
     10 O           7.1308   -0.3954   19.0566 O.3     1  UNL1       -0.4514
     11 C           8.3733   -2.2194   20.4273 C.3     1  UNL1        0.0473
     12 C           7.5157   -0.9897   20.3788 C.3     1  UNL1        0.1691
     13 C           7.0431   -0.3543   21.6528 C.3     1  UNL1        0.0473
     14 O           3.1043   -1.9182   19.9260 O.3     1  UNL1       -0.4115
     15 C           3.8430   -2.3277   21.1656 C.ar    1  UNL1        0.1479
     16 C           4.8392   -3.4476   21.1094 C.ar    1  UNL1        0.0374
     17 C           5.5780   -3.8572   22.3489 C.ar    1  UNL1        0.0031
     18 C           5.3204   -3.1468   23.6448 C.ar    1  UNL1        0.0002
     19 C           4.3242   -2.0270   23.7009 C.ar    1  UNL1        0.0031
     20 C           3.5854   -1.6174   22.4614 C.ar    1  UNL1        0.0374
     21 C           0.9401    1.2306   18.8530 C.3     1  UNL1        0.1857
     22 C          -0.0510    2.1877   19.4460 C.3     1  UNL1        0.1782
     23 O          -0.9016    1.9388   20.6562 O.3     1  UNL1       -0.3297
     24 C          -1.7418    3.1589   20.8911 C.3     1  UNL1        0.2564
     25 C          -1.4105    4.1620   19.8261 C.3     1  UNL1        0.2707
     26 F          -2.4308    5.0089   20.5273 F       1  UNL1       -0.2161
     27 CL         -1.2925    5.3420   18.9077 Cl      1  UNL1       -0.0736
     28 C          -0.3655    3.5617   18.9330 C.3     1  UNL1        0.1891
     29 O           0.2558    4.2199   17.7368 O.3     1  UNL1       -0.3782
     30 H           0.9020    3.6178   17.3358 H       1  UNL1        0.2106
     31 N          -2.7384    3.3437   21.9970 N.ar    1  UNL1       -0.2539
     32 C          -4.1987    3.1229   21.7351 C.ar    1  UNL1        0.0869
     33 C          -5.1952    3.3077   22.8409 C.ar    1  UNL1        0.0795
     34 C          -4.7313    3.7133   24.2085 C.ar    1  UNL1        0.2626
     35 O          -5.7279    3.8980   25.3144 O.2     1  UNL1       -0.2670
     36 N          -3.2710    3.9341   24.4704 N.ar    1  UNL1       -0.2743
     37 C          -2.2745    3.7493   23.3646 C.ar    1  UNL1        0.3323
     38 O          -0.8141    3.9701   23.6264 O.2     1  UNL1       -0.2464
     39 H          -2.9666    4.2003   25.3680 H       1  UNL1        0.1734
@<TRIPOS>BOND
     1    11    12    1
     2    12    13    1
     3    12    10    1
     4    10     8    1
     5     8     9    2
     6     8     6    1
     7     6     7    1
     8     6     4    1
     9     4     2    1
    10     2     3    2
    11     2     1    1
    12     1    21    1
    13    22    21    1
    14    22    23    1
    15    23    24    1
    16    24    31    1
    17    31    32   ar
    18    32    33   ar
    19    33    34   ar
    20    34    35    2
    21    34    36   ar
    22    36    37   ar
    23    37    38    2
    24    24    25    1
    25    25    26    1
    26    25    27    1
    27    25    28    1
    28    28    29    1
    29     2    14    1
    30    14    15    1
    31    15    16   ar
    32    16    17   ar
    33    17    18   ar
    34    18    19   ar
    35    19    20   ar
    36    28    22    1
    37    20    15   ar
    38    37    31   ar
    39     4     5    1
    40    36    39    1
    41    29    30    1
