@<TRIPOS>MOLECULE
*****
 23 26 0 0 0
SMALL
GASTEIGER

@<TRIPOS>ATOM
      1 C          -8.8320  -18.1141   21.1721 C.2     1  UNL1        0.3394
      2 O          -8.3869  -19.4629   20.6900 O.2     1  UNL1       -0.2452
      3 C          -9.4248  -19.2174   24.1271 C.3     1  UNL1        0.0271
      4 C         -10.8209  -18.7509   23.8385 C.2     1  UNL1       -0.0321
      5 C         -11.8969  -18.9214   24.8696 C.2     1  UNL1        0.0219
      6 C         -13.2929  -18.4550   24.5810 C.2     1  UNL1        0.1407
      7 F         -14.3690  -18.6256   25.6122 F       1  UNL1       -0.2042
      8 C         -13.6132  -17.8180   23.2612 C.2     1  UNL1        0.0449
      9 C         -12.5372  -17.6474   22.2301 C.2     1  UNL1        0.0690
     10 N         -12.5536  -17.0598   20.8501 N.2     1  UNL1       -0.2475
     11 C         -11.1676  -17.1631   20.2858 C.2     1  UNL1        0.1013
     12 C         -10.2946  -17.8146   21.3171 C.2     1  UNL1        0.0814
     13 C         -11.1411  -18.1139   22.5188 C.3     1  UNL1        0.0887
     14 O          -7.8145  -17.0648   21.5093 O.3     1  UNL1       -0.4456
     15 C          -8.2171  -15.8575   22.3032 C.3     1  UNL1        0.2087
     16 C          -7.7817  -15.7201   23.7321 C.3     1  UNL1        0.0445
     17 C          -6.3303  -15.5275   24.0586 C.3     1  UNL1        0.0210
     18 C          -5.8948  -15.3900   25.4874 C.3     1  UNL1        0.0722
     19 N          -6.9107  -15.4452   26.5897 N.3     1  UNL1       -0.2727
     20 C          -8.3620  -15.6378   26.2632 C.3     1  UNL1        0.0722
     21 C          -8.7975  -15.7753   24.8344 C.3     1  UNL1        0.0210
     22 C          -7.1972  -15.5253   25.8219 C.3     1  UNL1        0.0722
     23 C          -7.5909  -15.6496   24.5299 C.3     1  UNL1        0.0210
@<TRIPOS>BOND
     1     3     4    1
     2     4     5    2
     3     5     6    1
     4     6     7    1
     5     6     8    2
     6     8     9    1
     7     9    10    2
     8    10    11    1
     9    11    12    2
    10    12     1    1
    11     1     2    2
    12     1    14    1
    13    14    15    1
    14    15    16    1
    15    16    17    1
    16    17    18    1
    17    18    19    1
    18    19    20    1
    19    20    21    1
    20    19    22    1
    21    22    23    1
    22    12    13    1
    23    13     4    1
    24    13     9    1
    25    21    16    1
    26    23    16    1
@<TRIPOS>MOLECULE
*****
 23 26 0 0 0
SMALL
GASTEIGER

@<TRIPOS>ATOM
      1 C          -8.8707  -18.6823   20.4907 C.2     1  UNL1        0.3394
      2 O          -8.7172  -19.9281   19.6695 O.2     1  UNL1       -0.2452
      3 C          -9.2773  -19.8417   23.4557 C.3     1  UNL1        0.0271
      4 C         -10.6059  -19.1517   23.3611 C.2     1  UNL1       -0.0321
      5 C         -11.5656  -19.2115   24.5123 C.2     1  UNL1        0.0219
      6 C         -12.8941  -18.5216   24.4178 C.2     1  UNL1        0.1407
      7 F         -13.8539  -18.5815   25.5691 F       1  UNL1       -0.2042
      8 C         -13.2629  -17.7718   23.1721 C.2     1  UNL1        0.0449
      9 C         -12.3032  -17.7120   22.0209 C.2     1  UNL1        0.0690
     10 N         -12.3893  -17.0542   20.6756 N.2     1  UNL1       -0.2475
     11 C         -11.1139  -17.3376   19.9386 C.2     1  UNL1        0.1013
     12 C         -10.2396  -18.1706   20.8285 C.2     1  UNL1        0.0814
     13 C         -10.9746  -18.4019   22.1154 C.3     1  UNL1        0.0887
     14 O          -7.6551  -17.9482   20.9741 O.3     1  UNL1       -0.4456
     15 C          -6.7529  -18.5802   21.9921 C.3     1  UNL1        0.2087
     16 C          -5.4137  -19.1147   21.5786 C.3     1  UNL1        0.0445
     17 C          -4.1793  -18.7043   22.3256 C.3     1  UNL1        0.0210
     18 C          -2.8401  -19.2387   21.9121 C.3     1  UNL1        0.0722
     19 N          -2.7353  -20.1835   20.7517 N.3     1  UNL1       -0.2727
     20 C          -3.9697  -20.5938   20.0047 C.3     1  UNL1        0.0722
     21 C          -5.3089  -20.0594   20.4182 C.3     1  UNL1        0.0210
     22 C          -3.4910  -19.9170   20.9412 C.3     1  UNL1        0.0722
     23 C          -4.7019  -19.4337   21.3151 C.3     1  UNL1        0.0210
@<TRIPOS>BOND
     1     3     4    1
     2     4     5    2
     3     5     6    1
     4     6     7    1
     5     6     8    2
     6     8     9    1
     7     9    10    2
     8    10    11    1
     9    11    12    2
    10    12     1    1
    11     1     2    2
    12     1    14    1
    13    14    15    1
    14    15    16    1
    15    16    17    1
    16    17    18    1
    17    18    19    1
    18    19    20    1
    19    20    21    1
    20    19    22    1
    21    22    23    1
    22    12    13    1
    23    13     4    1
    24    13     9    1
    25    21    16    1
    26    23    16    1
@<TRIPOS>MOLECULE
*****
 23 26 0 0 0
SMALL
GASTEIGER

@<TRIPOS>ATOM
      1 C          -8.2618  -19.7835   22.8770 C.2     1  UNL1        0.3394
      2 O          -9.1487  -20.6257   23.7453 O.2     1  UNL1       -0.2452
      3 C         -10.4553  -19.9851   20.5428 C.3     1  UNL1        0.0271
      4 C         -10.4653  -18.4892   20.6544 C.2     1  UNL1       -0.0321
      5 C         -11.3648  -17.6772   19.7703 C.2     1  UNL1        0.0219
      6 C         -11.3748  -16.1815   19.8819 C.2     1  UNL1        0.1407
      7 F         -12.2744  -15.3695   18.9977 F       1  UNL1       -0.2042
      8 C         -10.4854  -15.4976   20.8775 C.2     1  UNL1        0.0449
      9 C          -9.5860  -16.3096   21.7616 C.2     1  UNL1        0.0690
     10 N          -8.6068  -15.9177   22.8282 N.2     1  UNL1       -0.2475
     11 C          -7.9916  -17.1714   23.3759 C.2     1  UNL1        0.1013
     12 C          -8.5905  -18.3380   22.6477 C.2     1  UNL1        0.0814
     13 C          -9.5759  -17.8054   21.6500 C.3     1  UNL1        0.0887
     14 O          -7.0461  -20.3867   22.2380 O.3     1  UNL1       -0.4456
     15 C          -6.2335  -19.5840   21.2658 C.3     1  UNL1        0.2087
     16 C          -4.7863  -19.3073   21.5469 C.3     1  UNL1        0.0445
     17 C          -3.7216  -19.9978   20.7469 C.3     1  UNL1        0.0210
     18 C          -2.2744  -19.7211   21.0278 C.3     1  UNL1        0.0722
     19 N          -1.8917  -18.7539   22.1088 N.3     1  UNL1       -0.2727
     20 C          -2.9563  -18.0635   22.9087 C.3     1  UNL1        0.0722
     21 C          -4.4036  -18.3402   22.6277 C.3     1  UNL1        0.0210
     22 C          -2.6979  -18.8733   21.9914 C.3     1  UNL1        0.0722
     23 C          -4.0066  -19.1235   21.7373 C.3     1  UNL1        0.0210
@<TRIPOS>BOND
     1     3     4    1
     2     4     5    2
     3     5     6    1
     4     6     7    1
     5     6     8    2
     6     8     9    1
     7     9    10    2
     8    10    11    1
     9    11    12    2
    10    12     1    1
    11     1     2    2
    12     1    14    1
    13    14    15    1
    14    15    16    1
    15    16    17    1
    16    17    18    1
    17    18    19    1
    18    19    20    1
    19    20    21    1
    20    19    22    1
    21    22    23    1
    22    12    13    1
    23    13     4    1
    24    13     9    1
    25    21    16    1
    26    23    16    1
@<TRIPOS>MOLECULE
*****
 23 26 0 0 0
SMALL
GASTEIGER

@<TRIPOS>ATOM
      1 C         -11.0715  -16.7795   20.4610 C.2     1  UNL1        0.3394
      2 O         -11.0128  -15.5968   19.5403 O.2     1  UNL1       -0.2452
      3 C          -8.7175  -16.1227   22.5413 C.3     1  UNL1        0.0271
      4 C          -8.1284  -17.3992   22.0182 C.2     1  UNL1       -0.0321
      5 C          -6.8175  -17.8946   22.5529 C.2     1  UNL1        0.0219
      6 C          -6.2284  -19.1710   22.0298 C.2     1  UNL1        0.1407
      7 F          -4.9174  -19.6665   22.5645 F       1  UNL1       -0.2042
      8 C          -6.9503  -19.9521   20.9720 C.2     1  UNL1        0.0449
      9 C          -8.2612  -19.4566   20.4373 C.2     1  UNL1        0.0690
     10 N          -9.1954  -20.0079   19.4012 N.2     1  UNL1       -0.2475
     11 C         -10.3618  -19.0721   19.2840 C.2     1  UNL1        0.1013
     12 C         -10.1486  -17.9425   20.2476 C.2     1  UNL1        0.0814
     13 C          -8.8503  -18.1802   20.9604 C.3     1  UNL1        0.0887
     14 O         -12.0531  -16.7992   21.5950 O.3     1  UNL1       -0.4456
     15 C         -12.4225  -18.0997   22.2447 C.3     1  UNL1        0.2087
     16 C         -11.4715  -18.7576   23.2001 C.3     1  UNL1        0.0445
     17 C         -10.9595  -20.1388   22.9168 C.3     1  UNL1        0.0210
     18 C         -10.0085  -20.7968   23.8722 C.3     1  UNL1        0.0722
     19 N          -9.5696  -20.0735   25.1109 N.3     1  UNL1       -0.2727
     20 C         -10.0816  -18.6923   25.3942 C.3     1  UNL1        0.0722
     21 C         -11.0325  -18.0344   24.4388 C.3     1  UNL1        0.0210
     22 C         -10.0920  -19.6721   24.6170 C.3     1  UNL1        0.0722
     23 C         -10.9519  -19.0772   23.7531 C.3     1  UNL1        0.0210
@<TRIPOS>BOND
     1     3     4    1
     2     4     5    2
     3     5     6    1
     4     6     7    1
     5     6     8    2
     6     8     9    1
     7     9    10    2
     8    10    11    1
     9    11    12    2
    10    12     1    1
    11     1     2    2
    12     1    14    1
    13    14    15    1
    14    15    16    1
    15    16    17    1
    16    17    18    1
    17    18    19    1
    18    19    20    1
    19    20    21    1
    20    19    22    1
    21    22    23    1
    22    12    13    1
    23    13     4    1
    24    13     9    1
    25    21    16    1
    26    23    16    1
@<TRIPOS>MOLECULE
*****
 23 26 0 0 0
SMALL
GASTEIGER

@<TRIPOS>ATOM
      1 C          -7.2570  -19.0156   21.3987 C.2     1  UNL1        0.3394
      2 O          -6.5625  -17.7411   21.7774 O.2     1  UNL1       -0.2452
      3 C          -8.7592  -18.0346   24.0598 C.3     1  UNL1        0.0271
      4 C          -9.9869  -18.1475   23.2054 C.2     1  UNL1       -0.0321
      5 C         -11.3327  -17.8155   23.7787 C.2     1  UNL1        0.0219
      6 C         -12.5604  -17.9284   22.9244 C.2     1  UNL1        0.1407
      7 F         -13.9062  -17.5963   23.4977 F       1  UNL1       -0.2042
      8 C         -12.4424  -18.3734   21.4967 C.2     1  UNL1        0.0449
      9 C         -11.0967  -18.7054   20.9235 C.2     1  UNL1        0.0690
     10 N         -10.6724  -19.1670   19.5608 N.2     1  UNL1       -0.2475
     11 C          -9.1824  -19.3393   19.5730 C.2     1  UNL1        0.1013
     12 C          -8.6858  -18.9843   20.9432 C.2     1  UNL1        0.0814
     13 C          -9.8689  -18.5925   21.7778 C.3     1  UNL1        0.0887
     14 O          -6.5226  -20.3213   21.4754 O.3     1  UNL1       -0.4456
     15 C          -5.4005  -20.6078   20.5222 C.3     1  UNL1        0.2087
     16 C          -4.1679  -19.7531   20.5362 C.3     1  UNL1        0.0445
     17 C          -3.2530  -19.7759   21.7248 C.3     1  UNL1        0.0210
     18 C          -2.0203  -18.9213   21.7388 C.3     1  UNL1        0.0722
     19 N          -1.7025  -18.0439   20.5643 N.3     1  UNL1       -0.2727
     20 C          -2.6174  -18.0212   19.3759 C.3     1  UNL1        0.0722
     21 C          -3.8500  -18.8758   19.3618 C.3     1  UNL1        0.0210
     22 C          -2.3895  -18.4947   20.5107 C.3     1  UNL1        0.0722
     23 C          -3.5041  -19.2674   20.4981 C.3     1  UNL1        0.0210
@<TRIPOS>BOND
     1     3     4    1
     2     4     5    2
     3     5     6    1
     4     6     7    1
     5     6     8    2
     6     8     9    1
     7     9    10    2
     8    10    11    1
     9    11    12    2
    10    12     1    1
    11     1     2    2
    12     1    14    1
    13    14    15    1
    14    15    16    1
    15    16    17    1
    16    17    18    1
    17    18    19    1
    18    19    20    1
    19    20    21    1
    20    19    22    1
    21    22    23    1
    22    12    13    1
    23    13     4    1
    24    13     9    1
    25    21    16    1
    26    23    16    1
@<TRIPOS>MOLECULE
*****
 23 26 0 0 0
SMALL
GASTEIGER

@<TRIPOS>ATOM
      1 C          -8.4472  -19.1619   20.7762 C.2     1  UNL1        0.3394
      2 O          -8.2539  -19.1154   19.2894 O.2     1  UNL1       -0.2452
      3 C          -5.5499  -20.5423   20.7473 C.3     1  UNL1        0.0271
      4 C          -5.1842  -19.4026   21.6513 C.2     1  UNL1       -0.0321
      5 C          -3.7855  -19.2836   22.1799 C.2     1  UNL1        0.0219
      6 C          -3.4198  -18.1440   23.0839 C.2     1  UNL1        0.1407
      7 F          -2.0210  -18.0250   23.6126 F       1  UNL1       -0.2042
      8 C          -4.4528  -17.1231   23.4594 C.2     1  UNL1        0.0449
      9 C          -5.8515  -17.2421   22.9308 C.2     1  UNL1        0.0690
     10 N          -7.0737  -16.3947   23.1261 N.2     1  UNL1       -0.2475
     11 C          -8.1948  -17.0107   22.3427 C.2     1  UNL1        0.1013
     12 C          -7.6654  -18.2388   21.6633 C.2     1  UNL1        0.0814
     13 C          -6.2172  -18.3818   22.0267 C.3     1  UNL1        0.0887
     14 O          -9.4222  -20.1313   21.3758 O.3     1  UNL1       -0.4456
     15 C         -10.8949  -19.9411   21.1646 C.3     1  UNL1        0.2087
     16 C         -11.5507  -18.6542   21.5696 C.3     1  UNL1        0.0445
     17 C         -11.6906  -17.5388   20.5764 C.3     1  UNL1        0.0210
     18 C         -12.3464  -16.2519   20.9813 C.3     1  UNL1        0.0722
     19 N         -12.8621  -16.0804   22.3795 N.3     1  UNL1       -0.2727
     20 C         -12.7221  -17.1958   23.3726 C.3     1  UNL1        0.0722
     21 C         -12.0664  -18.4827   22.9677 C.3     1  UNL1        0.0210
     22 C         -12.5101  -16.8038   22.2040 C.3     1  UNL1        0.0722
     23 C         -11.9172  -17.9674   21.8379 C.3     1  UNL1        0.0210
@<TRIPOS>BOND
     1     3     4    1
     2     4     5    2
     3     5     6    1
     4     6     7    1
     5     6     8    2
     6     8     9    1
     7     9    10    2
     8    10    11    1
     9    11    12    2
    10    12     1    1
    11     1     2    2
    12     1    14    1
    13    14    15    1
    14    15    16    1
    15    16    17    1
    16    17    18    1
    17    18    19    1
    18    19    20    1
    19    20    21    1
    20    19    22    1
    21    22    23    1
    22    12    13    1
    23    13     4    1
    24    13     9    1
    25    21    16    1
    26    23    16    1
@<TRIPOS>MOLECULE
*****
 23 26 0 0 0
SMALL
GASTEIGER

@<TRIPOS>ATOM
      1 C          -7.7874  -19.2386   21.0149 C.2     1  UNL1        0.3394
      2 O          -7.8890  -18.9718   19.5423 O.2     1  UNL1       -0.2452
      3 C          -8.6396  -16.6095   22.6466 C.3     1  UNL1        0.0271
      4 C          -7.2283  -16.6708   23.1513 C.2     1  UNL1       -0.0321
      5 C          -6.7319  -15.6365   24.1177 C.2     1  UNL1        0.0219
      6 C          -5.3208  -15.6977   24.6224 C.2     1  UNL1        0.1407
      7 F          -4.8243  -14.6634   25.5888 F       1  UNL1       -0.2042
      8 C          -4.4059  -16.7932   24.1608 C.2     1  UNL1        0.0449
      9 C          -4.9024  -17.8275   23.1944 C.2     1  UNL1        0.0690
     10 N          -4.2366  -19.0158   22.5663 N.2     1  UNL1       -0.2475
     11 C          -5.2363  -19.6890   21.6734 C.2     1  UNL1        0.1013
     12 C          -6.5200  -18.9168   21.7497 C.2     1  UNL1        0.0814
     13 C          -6.3136  -17.7663   22.6897 C.3     1  UNL1        0.0887
     14 O          -8.9534  -19.8271   21.7526 O.3     1  UNL1       -0.4456
     15 C         -10.3075  -19.8633   21.1085 C.3     1  UNL1        0.2087
     16 C         -11.1213  -18.6077   21.0023 C.3     1  UNL1        0.0445
     17 C         -11.0243  -17.7530   19.7733 C.3     1  UNL1        0.0210
     18 C         -11.8381  -16.4974   19.6670 C.3     1  UNL1        0.0722
     19 N         -12.7488  -16.0965   20.7895 N.3     1  UNL1       -0.2727
     20 C         -12.8457  -16.9512   22.0184 C.3     1  UNL1        0.0722
     21 C         -12.0319  -18.2068   22.1247 C.3     1  UNL1        0.0210
     22 C         -12.3225  -16.7933   20.8935 C.3     1  UNL1        0.0722
     23 C         -11.5867  -17.9286   20.9896 C.3     1  UNL1        0.0210
@<TRIPOS>BOND
     1     3     4    1
     2     4     5    2
     3     5     6    1
     4     6     7    1
     5     6     8    2
     6     8     9    1
     7     9    10    2
     8    10    11    1
     9    11    12    2
    10    12     1    1
    11     1     2    2
    12     1    14    1
    13    14    15    1
    14    15    16    1
    15    16    17    1
    16    17    18    1
    17    18    19    1
    18    19    20    1
    19    20    21    1
    20    19    22    1
    21    22    23    1
    22    12    13    1
    23    13     4    1
    24    13     9    1
    25    21    16    1
    26    23    16    1
@<TRIPOS>MOLECULE
*****
 23 26 0 0 0
SMALL
GASTEIGER

@<TRIPOS>ATOM
      1 C          -7.0095  -15.3647   22.8526 C.2     1  UNL1        0.3394
      2 O          -7.6492  -14.8569   21.5945 O.2     1  UNL1       -0.2452
      3 C          -7.8346  -18.0951   21.3814 C.3     1  UNL1        0.0271
      4 C          -8.5623  -18.3687   22.6642 C.2     1  UNL1       -0.0321
      5 C          -9.3334  -19.6444   22.8317 C.2     1  UNL1        0.0219
      6 C         -10.0611  -19.9179   24.1144 C.2     1  UNL1        0.1407
      7 F         -10.8322  -21.1937   24.2819 F       1  UNL1       -0.2042
      8 C         -10.0178  -18.9158   25.2298 C.2     1  UNL1        0.0449
      9 C          -9.2467  -17.6402   25.0623 C.2     1  UNL1        0.0690
     10 N          -9.0244  -16.4740   25.9791 N.2     1  UNL1       -0.2475
     11 C          -8.1593  -15.4797   25.2630 C.2     1  UNL1        0.1013
     12 C          -7.8469  -16.0313   23.9035 C.2     1  UNL1        0.0814
     13 C          -8.5190  -17.3666   23.7795 C.3     1  UNL1        0.0887
     14 O          -5.5324  -15.2059   23.0599 O.3     1  UNL1       -0.4456
     15 C          -4.7688  -16.2375   23.8361 C.3     1  UNL1        0.2087
     16 C          -4.0807  -17.3598   23.1171 C.3     1  UNL1        0.0445
     17 C          -2.6309  -17.2390   22.7515 C.3     1  UNL1        0.0210
     18 C          -1.9428  -18.3613   22.0325 C.3     1  UNL1        0.0722
     19 N          -2.7045  -19.6043   21.6790 N.3     1  UNL1       -0.2727
     20 C          -4.1542  -19.7250   22.0446 C.3     1  UNL1        0.0722
     21 C          -4.8423  -18.6028   22.7636 C.3     1  UNL1        0.0210
     22 C          -3.1245  -19.0159   22.0732 C.3     1  UNL1        0.0722
     23 C          -3.7466  -18.0011   22.7234 C.3     1  UNL1        0.0210
@<TRIPOS>BOND
     1     3     4    1
     2     4     5    2
     3     5     6    1
     4     6     7    1
     5     6     8    2
     6     8     9    1
     7     9    10    2
     8    10    11    1
     9    11    12    2
    10    12     1    1
    11     1     2    2
    12     1    14    1
    13    14    15    1
    14    15    16    1
    15    16    17    1
    16    17    18    1
    17    18    19    1
    18    19    20    1
    19    20    21    1
    20    19    22    1
    21    22    23    1
    22    12    13    1
    23    13     4    1
    24    13     9    1
    25    21    16    1
    26    23    16    1
@<TRIPOS>MOLECULE
*****
 23 26 0 0 0
SMALL
GASTEIGER

@<TRIPOS>ATOM
      1 C          -7.8263  -17.6534   22.1045 C.2     1  UNL1        0.3394
      2 O          -8.5496  -16.6603   21.2439 O.2     1  UNL1       -0.2452
      3 C          -9.4719  -16.2425   24.4713 C.3     1  UNL1        0.0271
      4 C          -8.1075  -15.9874   25.0398 C.2     1  UNL1       -0.0321
      5 C          -7.9622  -15.2602   26.3436 C.2     1  UNL1        0.0219
      6 C          -6.5979  -15.0050   26.9121 C.2     1  UNL1        0.1407
      7 F          -6.4526  -14.2778   28.2160 F       1  UNL1       -0.2042
      8 C          -5.3786  -15.4771   26.1767 C.2     1  UNL1        0.0449
      9 C          -5.5239  -16.2043   24.8729 C.2     1  UNL1        0.0690
     10 N          -4.5125  -16.7839   23.9289 N.2     1  UNL1       -0.2475
     11 C          -5.2519  -17.3973   22.7769 C.2     1  UNL1        0.1013
     12 C          -6.7203  -17.1968   23.0090 C.2     1  UNL1        0.0814
     13 C          -6.8883  -16.4594   24.3044 C.3     1  UNL1        0.0887
     14 O          -8.2090  -19.1031   22.0605 O.3     1  UNL1       -0.4456
     15 C          -9.5754  -19.5041   21.5893 C.3     1  UNL1        0.2087
     16 C         -10.7934  -19.0000   22.3051 C.3     1  UNL1        0.0445
     17 C         -10.9925  -19.3132   23.7585 C.3     1  UNL1        0.0210
     18 C         -12.2106  -18.8092   24.4743 C.3     1  UNL1        0.0722
     19 N         -13.2295  -17.9919   23.7367 N.3     1  UNL1       -0.2727
     20 C         -13.0304  -17.6787   22.2834 C.3     1  UNL1        0.0722
     21 C         -11.8123  -18.1827   21.5675 C.3     1  UNL1        0.0210
     22 C         -12.5780  -18.2461   23.3020 C.3     1  UNL1        0.0722
     23 C         -11.4767  -18.7019   22.6548 C.3     1  UNL1        0.0210
@<TRIPOS>BOND
     1     3     4    1
     2     4     5    2
     3     5     6    1
     4     6     7    1
     5     6     8    2
     6     8     9    1
     7     9    10    2
     8    10    11    1
     9    11    12    2
    10    12     1    1
    11     1     2    2
    12     1    14    1
    13    14    15    1
    14    15    16    1
    15    16    17    1
    16    17    18    1
    17    18    19    1
    18    19    20    1
    19    20    21    1
    20    19    22    1
    21    22    23    1
    22    12    13    1
    23    13     4    1
    24    13     9    1
    25    21    16    1
    26    23    16    1
