@<TRIPOS>MOLECULE
*****
 43 47 0 0 0
SMALL
GASTEIGER

@<TRIPOS>ATOM
      1 C           0.8468    2.8208   21.3992 C.3     1  UNL1        0.0903
      2 C           1.7448    1.6617   21.0831 C.3     1  UNL1        0.0919
      3 N           1.7216    1.0461   19.7154 N.3     1  UNL1       -0.2725
      4 C           0.8003    1.5897   18.6639 C.3     1  UNL1        0.0722
      5 C          -0.0978    2.7488   18.9799 C.3     1  UNL1        0.0204
      6 C          -0.0745    3.3643   20.3476 C.3     1  UNL1        0.0368
      7 C           2.6196   -0.1130   19.3993 C.3     1  UNL1        0.0603
      8 C           2.8095   -1.2105   20.4041 C.3     1  UNL1        0.0333
      9 C           3.7075   -2.3696   20.0880 C.3     1  UNL1        0.0735
     10 N           4.4157   -2.4313   18.7671 N.3     1  UNL1       -0.2714
     11 C           5.3138   -3.5904   18.4510 C.3     1  UNL1        0.0896
     12 C           4.2259   -1.3339   17.7623 C.3     1  UNL1        0.0735
     13 C           3.3278   -0.1747   18.0784 C.3     1  UNL1        0.0333
     14 N           0.6900    3.1928   25.3472 N.am    1  UNL1       -0.2485
     15 C           0.6669    2.5772   23.9796 C.2     1  UNL1        0.3059
     16 O           0.4406    1.1025   23.8245 O.2     1  UNL1       -0.2524
     17 N           0.8699    3.4364   22.7669 N.am    1  UNL1       -0.2889
     18 H           0.8386    4.1607   25.4489 H       1  UNL1        0.1583
     19 H           1.0185    4.4043   22.8686 H       1  UNL1        0.1510
     20 C           0.8293    1.2490   28.7040 C.ar    1  UNL1        0.0803
     21 S           1.4272    2.2129   27.7224 S.2     1  UNL1       -0.0488
     22 C           0.4870    2.3336   26.5599 C.ar    1  UNL1        0.1664
     23 N          -0.6920    1.4444   26.8231 N.ar    1  UNL1       -0.2282
     24 C          -0.4804    0.7741   28.1482 C.ar    1  UNL1        0.0701
     25 C          -1.4146   -0.2002   28.8025 C.3     1  UNL1        0.0528
     26 C           1.7040    1.8582   31.0733 C.3     1  UNL1        0.0779
     27 C           1.4349    0.8331   30.0118 C.2     1  UNL1        0.1807
     28 O           1.7714   -0.6077   30.2580 O.2     1  UNL1       -0.2908
     29 C          -0.9726    4.5235   20.6637 C.3     1  UNL1        0.0738
     30 N          -2.4460    4.3044   20.8402 N.3     1  UNL1       -0.2726
     31 C          -3.3924    4.6350   19.7243 C.3     1  UNL1        0.0721
     32 C          -4.8657    4.4159   19.9007 C.3     1  UNL1        0.0174
     33 C          -5.3928    3.8661   21.1931 C.3     1  UNL1        0.0031
     34 C          -4.4464    3.5355   22.3089 C.3     1  UNL1        0.0204
     35 C          -2.9730    3.7546   22.1324 C.3     1  UNL1        0.0724
     36 C          -4.9734    2.9857   23.6012 C.3     1  UNL1        0.0277
     37 C          -5.2307    3.9052   24.7580 C.ar    1  UNL1       -0.0220
     38 C          -4.3222    3.8814   25.9515 C.ar    1  UNL1       -0.0020
     39 C          -4.5795    4.8009   27.1083 C.ar    1  UNL1        0.0293
     40 C          -5.7451    5.7444   27.0717 C.ar    1  UNL1        0.1401
     41 F          -6.0024    6.6639   28.2285 F       1  UNL1       -0.2042
     42 C          -6.6535    5.7682   25.8782 C.ar    1  UNL1        0.0293
     43 C          -6.3962    4.8486   24.7214 C.ar    1  UNL1       -0.0020
@<TRIPOS>BOND
     1    26    27    1
     2    27    28    2
     3    27    20    1
     4    20    21   ar
     5    21    22   ar
     6    22    14    1
     7    14    15   am
     8    15    16    2
     9    15    17   am
    10     1    17    1
    11     1     2    1
    12     2     3    1
    13     3     7    1
    14     7     8    1
    15     8     9    1
    16     9    10    1
    17    10    11    1
    18    10    12    1
    19    12    13    1
    20     3     4    1
    21     4     5    1
    22     5     6    1
    23     6    29    1
    24    29    30    1
    25    30    31    1
    26    31    32    1
    27    32    33    1
    28    33    34    1
    29    34    36    1
    30    36    37    1
    31    37    38   ar
    32    38    39   ar
    33    39    40   ar
    34    40    41    1
    35    40    42   ar
    36    42    43   ar
    37    34    35    1
    38    22    23   ar
    39    23    24   ar
    40    24    25    1
    41    24    20   ar
    42     6     1    1
    43    35    30    1
    44    13     7    1
    45    43    37   ar
    46    14    18    1
    47    17    19    1
@<TRIPOS>MOLECULE
*****
 43 47 0 0 0
SMALL
GASTEIGER

@<TRIPOS>ATOM
      1 C           3.8247    0.4609   25.2661 C.3     1  UNL1        0.0903
      2 C           4.1769   -0.5321   24.1984 C.3     1  UNL1        0.0919
      3 N           3.2383   -0.7650   23.0518 N.3     1  UNL1       -0.2725
      4 C           1.9475   -0.0050   22.9729 C.3     1  UNL1        0.0722
      5 C           1.5953    0.9880   24.0405 C.3     1  UNL1        0.0204
      6 C           2.5339    1.2209   25.1871 C.3     1  UNL1        0.0368
      7 C           3.5904   -1.7580   21.9840 C.3     1  UNL1        0.0603
      8 C           3.1257   -1.5402   20.5746 C.3     1  UNL1        0.0333
      9 C           3.4778   -2.5331   19.5069 C.3     1  UNL1        0.0735
     10 N           4.2947   -3.7439   19.8486 N.3     1  UNL1       -0.2714
     11 C           4.6468   -4.7368   18.7808 C.3     1  UNL1        0.0896
     12 C           4.7595   -3.9617   21.2580 C.3     1  UNL1        0.0735
     13 C           4.4073   -2.9687   22.3258 C.3     1  UNL1        0.0333
     14 N           5.6588    0.0267   28.7586 N.am    1  UNL1       -0.2485
     15 C           4.7202   -0.2062   27.6120 C.2     1  UNL1        0.3059
     16 O           3.7385   -1.3391   27.6645 O.2     1  UNL1       -0.2524
     17 N           4.7633    0.6938   26.4127 N.am    1  UNL1       -0.2889
     18 H           6.3031    0.7703   28.7241 H       1  UNL1        0.1583
     19 H           5.4077    1.4374   26.3782 H       1  UNL1        0.1510
     20 C           5.0675   -1.7904   32.1370 C.ar    1  UNL1        0.0803
     21 S           4.8107   -0.6453   31.2028 S.2     1  UNL1       -0.0488
     22 C           5.6157   -0.8733   29.9578 C.ar    1  UNL1        0.1664
     23 N           6.3701   -2.1592   30.1227 N.ar    1  UNL1       -0.2282
     24 C           6.0313   -2.7261   31.4695 C.ar    1  UNL1        0.0701
     25 C           6.5629   -4.0042   32.0473 C.3     1  UNL1        0.0528
     26 C           4.6993   -0.9367   34.5630 C.3     1  UNL1        0.0779
     27 C           4.4661   -1.9685   33.4996 C.2     1  UNL1        0.1807
     28 O           3.6316   -3.1784   33.7987 O.2     1  UNL1       -0.2908
     29 C           2.1818    2.2139   26.2549 C.3     1  UNL1        0.0738
     30 N           1.3296    1.7958   27.4163 N.3     1  UNL1       -0.2726
     31 C          -0.0872    1.3587   27.1880 C.3     1  UNL1        0.0721
     32 C          -0.9394    0.9406   28.3494 C.3     1  UNL1        0.0174
     33 C          -0.3749    0.9595   29.7391 C.3     1  UNL1        0.0031
     34 C           1.0417    1.3965   29.9673 C.3     1  UNL1        0.0204
     35 C           1.8939    1.8146   28.8059 C.3     1  UNL1        0.0724
     36 C           1.6062    1.4154   31.3570 C.3     1  UNL1        0.0277
     37 C           1.3271    2.5770   32.2641 C.ar    1  UNL1       -0.0220
     38 C           0.3766    3.6542   31.8324 C.ar    1  UNL1       -0.0020
     39 C           0.0975    4.8158   32.7396 C.ar    1  UNL1        0.0293
     40 C           0.7689    4.9001   34.0783 C.ar    1  UNL1        0.1401
     41 F           0.4898    6.0617   34.9855 F       1  UNL1       -0.2042
     42 C           1.7192    3.8229   34.5099 C.ar    1  UNL1        0.0293
     43 C           1.9984    2.6613   33.6028 C.ar    1  UNL1       -0.0020
@<TRIPOS>BOND
     1    26    27    1
     2    27    28    2
     3    27    20    1
     4    20    21   ar
     5    21    22   ar
     6    22    14    1
     7    14    15   am
     8    15    16    2
     9    15    17   am
    10     1    17    1
    11     1     2    1
    12     2     3    1
    13     3     7    1
    14     7     8    1
    15     8     9    1
    16     9    10    1
    17    10    11    1
    18    10    12    1
    19    12    13    1
    20     3     4    1
    21     4     5    1
    22     5     6    1
    23     6    29    1
    24    29    30    1
    25    30    31    1
    26    31    32    1
    27    32    33    1
    28    33    34    1
    29    34    36    1
    30    36    37    1
    31    37    38   ar
    32    38    39   ar
    33    39    40   ar
    34    40    41    1
    35    40    42   ar
    36    42    43   ar
    37    34    35    1
    38    22    23   ar
    39    23    24   ar
    40    24    25    1
    41    24    20   ar
    42     6     1    1
    43    35    30    1
    44    13     7    1
    45    43    37   ar
    46    14    18    1
    47    17    19    1
@<TRIPOS>MOLECULE
*****
 43 47 0 0 0
SMALL
GASTEIGER

@<TRIPOS>ATOM
      1 C           0.4727    1.6625   25.9023 C.3     1  UNL1        0.0903
      2 C          -0.9627    2.0812   25.7836 C.3     1  UNL1        0.0919
      3 N          -1.3521    3.1584   24.8151 N.3     1  UNL1       -0.2725
      4 C          -0.3061    3.8168   23.9653 C.3     1  UNL1        0.0722
      5 C           1.1294    3.3981   24.0839 C.3     1  UNL1        0.0204
      6 C           1.5188    2.3209   25.0524 C.3     1  UNL1        0.0368
      7 C          -2.7876    3.5772   24.6964 C.3     1  UNL1        0.0603
      8 C          -3.4184    3.7176   23.3427 C.3     1  UNL1        0.0333
      9 C          -4.8538    4.1364   23.2240 C.3     1  UNL1        0.0735
     10 N          -5.6585    4.4148   24.4589 N.3     1  UNL1       -0.2714
     11 C          -7.0940    4.8335   24.3402 C.3     1  UNL1        0.0896
     12 C          -5.0278    4.2743   25.8126 C.3     1  UNL1        0.0735
     13 C          -3.5923    3.8555   25.9313 C.3     1  UNL1        0.0333
     14 N           1.7271   -0.1277   29.2146 N.am    1  UNL1       -0.2485
     15 C           1.3377    0.9494   28.2461 C.2     1  UNL1        0.3059
     16 O           1.4238    2.3907   28.6528 O.2     1  UNL1       -0.2524
     17 N           0.8621    0.5853   26.8708 N.am    1  UNL1       -0.2889
     18 H           1.6706   -1.0737   28.9477 H       1  UNL1        0.1583
     19 H           0.8056   -0.3606   26.6039 H       1  UNL1        0.1510
     20 C           3.4685    0.2720   32.6604 C.ar    1  UNL1        0.0803
     21 S           3.3463   -0.3985   31.3241 S.2     1  UNL1       -0.0488
     22 C           2.2027    0.2363   30.5899 C.ar    1  UNL1        0.1664
     23 N           1.6182    1.2992   31.4723 N.ar    1  UNL1       -0.2282
     24 C           2.4005    1.3212   32.7519 C.ar    1  UNL1        0.0701
     25 C           2.1574    2.2325   33.9183 C.3     1  UNL1        0.0528
     26 C           4.4828   -1.4023   34.3686 C.3     1  UNL1        0.0779
     27 C           4.4811   -0.0502   33.7191 C.2     1  UNL1        0.1807
     28 O           5.4918    0.9797   34.1284 O.2     1  UNL1       -0.2908
     29 C           2.9543    1.9021   25.1711 C.3     1  UNL1        0.0738
     30 N           3.3881    0.5590   24.6633 N.3     1  UNL1       -0.2726
     31 C           4.1156   -0.3872   25.5720 C.3     1  UNL1        0.0721
     32 C           4.5494   -1.7303   25.0642 C.3     1  UNL1        0.0174
     33 C           4.2558   -2.1272   23.6477 C.3     1  UNL1        0.0031
     34 C           3.5284   -1.1810   22.7391 C.3     1  UNL1        0.0204
     35 C           3.0945    0.1621   23.2469 C.3     1  UNL1        0.0724
     36 C           3.2348   -1.5779   21.3226 C.3     1  UNL1        0.0277
     37 C           2.4790   -0.6448   20.4236 C.ar    1  UNL1       -0.0220
     38 C           1.0325   -0.3522   20.6921 C.ar    1  UNL1       -0.0020
     39 C           0.2767    0.5809   19.7931 C.ar    1  UNL1        0.0293
     40 C           0.9674    1.2213   18.6256 C.ar    1  UNL1        0.1401
     41 F           0.2116    2.1543   17.7266 F       1  UNL1       -0.2042
     42 C           2.4139    0.9286   18.3572 C.ar    1  UNL1        0.0293
     43 C           3.1696   -0.0045   19.2562 C.ar    1  UNL1       -0.0020
@<TRIPOS>BOND
     1    26    27    1
     2    27    28    2
     3    27    20    1
     4    20    21   ar
     5    21    22   ar
     6    22    14    1
     7    14    15   am
     8    15    16    2
     9    15    17   am
    10     1    17    1
    11     1     2    1
    12     2     3    1
    13     3     7    1
    14     7     8    1
    15     8     9    1
    16     9    10    1
    17    10    11    1
    18    10    12    1
    19    12    13    1
    20     3     4    1
    21     4     5    1
    22     5     6    1
    23     6    29    1
    24    29    30    1
    25    30    31    1
    26    31    32    1
    27    32    33    1
    28    33    34    1
    29    34    36    1
    30    36    37    1
    31    37    38   ar
    32    38    39   ar
    33    39    40   ar
    34    40    41    1
    35    40    42   ar
    36    42    43   ar
    37    34    35    1
    38    22    23   ar
    39    23    24   ar
    40    24    25    1
    41    24    20   ar
    42     6     1    1
    43    35    30    1
    44    13     7    1
    45    43    37   ar
    46    14    18    1
    47    17    19    1
@<TRIPOS>MOLECULE
*****
 43 47 0 0 0
SMALL
GASTEIGER

@<TRIPOS>ATOM
      1 C           3.3033   -0.6574   30.3569 C.3     1  UNL1        0.0903
      2 C           3.0942   -0.1890   31.7664 C.3     1  UNL1        0.0919
      3 N           4.2755    0.0675   32.6545 N.3     1  UNL1       -0.2725
      4 C           5.6659   -0.1444   32.1330 C.3     1  UNL1        0.0722
      5 C           5.8750   -0.6128   30.7235 C.3     1  UNL1        0.0204
      6 C           4.6937   -0.8693   29.8354 C.3     1  UNL1        0.0368
      7 C           4.0665    0.5359   34.0641 C.3     1  UNL1        0.0603
      8 C           4.7154   -0.1957   35.2015 C.3     1  UNL1        0.0333
      9 C           4.5064    0.2726   36.6111 C.3     1  UNL1        0.0735
     10 N           3.6484    1.4726   36.8833 N.3     1  UNL1       -0.2714
     11 C           3.4394    1.9409   38.2929 C.3     1  UNL1        0.0896
     12 C           2.9994    2.2041   35.7459 C.3     1  UNL1        0.0735
     13 C           3.2085    1.7357   34.3363 C.3     1  UNL1        0.0333
     14 N           0.3146   -0.0392   27.8201 N.am    1  UNL1       -0.2485
     15 C           1.4958    0.2172   28.7082 C.2     1  UNL1        0.3059
     16 O           2.0510    1.6049   28.8358 O.2     1  UNL1       -0.2524
     17 N           2.1220   -0.9139   29.4687 N.am    1  UNL1       -0.2889
     18 H          -0.0498   -0.9500   27.7364 H       1  UNL1        0.1583
     19 H           1.7576   -1.8247   29.3850 H       1  UNL1        0.1510
     20 C          -1.6368    3.0495   26.5094 C.ar    1  UNL1        0.0803
     21 S          -1.2647    2.1077   27.6161 S.2     1  UNL1       -0.0488
     22 C          -0.3116    1.0919   27.0595 C.ar    1  UNL1        0.1664
     23 N          -0.0946    1.4059   25.6089 N.ar    1  UNL1       -0.2282
     24 C          -0.9136    2.6157   25.2689 C.ar    1  UNL1        0.0701
     25 C          -0.9950    3.2759   23.9245 C.3     1  UNL1        0.0528
     26 C          -4.0522    4.0030   26.5870 C.3     1  UNL1        0.0779
     27 C          -2.5684    4.2195   26.6233 C.2     1  UNL1        0.1807
     28 O          -2.0163    5.6060   26.7735 O.2     1  UNL1       -0.2908
     29 C           4.9027   -1.3377   28.4258 C.3     1  UNL1        0.0738
     30 N           4.6538   -0.4022   27.2799 N.3     1  UNL1       -0.2726
     31 C           5.3248    0.9390   27.2472 C.3     1  UNL1        0.0721
     32 C           5.0758    1.8744   26.1014 C.3     1  UNL1        0.0174
     33 C           4.1558    1.4687   24.9883 C.3     1  UNL1        0.0031
     34 C           3.4848    0.1276   25.0210 C.3     1  UNL1        0.0204
     35 C           3.7338   -0.8079   26.1668 C.3     1  UNL1        0.0724
     36 C           2.5648   -0.2782   23.9079 C.3     1  UNL1        0.0277
     37 C           3.0939   -1.0687   22.7481 C.ar    1  UNL1       -0.0220
     38 C           4.1445   -2.1158   22.9711 C.ar    1  UNL1       -0.0020
     39 C           4.6736   -2.9063   21.8113 C.ar    1  UNL1        0.0293
     40 C           4.1520   -2.6497   20.4285 C.ar    1  UNL1        0.1401
     41 F           4.6811   -3.4403   19.2686 F       1  UNL1       -0.2042
     42 C           3.1014   -1.6027   20.2055 C.ar    1  UNL1        0.0293
     43 C           2.5723   -0.8121   21.3653 C.ar    1  UNL1       -0.0020
@<TRIPOS>BOND
     1    26    27    1
     2    27    28    2
     3    27    20    1
     4    20    21   ar
     5    21    22   ar
     6    22    14    1
     7    14    15   am
     8    15    16    2
     9    15    17   am
    10     1    17    1
    11     1     2    1
    12     2     3    1
    13     3     7    1
    14     7     8    1
    15     8     9    1
    16     9    10    1
    17    10    11    1
    18    10    12    1
    19    12    13    1
    20     3     4    1
    21     4     5    1
    22     5     6    1
    23     6    29    1
    24    29    30    1
    25    30    31    1
    26    31    32    1
    27    32    33    1
    28    33    34    1
    29    34    36    1
    30    36    37    1
    31    37    38   ar
    32    38    39   ar
    33    39    40   ar
    34    40    41    1
    35    40    42   ar
    36    42    43   ar
    37    34    35    1
    38    22    23   ar
    39    23    24   ar
    40    24    25    1
    41    24    20   ar
    42     6     1    1
    43    35    30    1
    44    13     7    1
    45    43    37   ar
    46    14    18    1
    47    17    19    1
@<TRIPOS>MOLECULE
*****
 43 47 0 0 0
SMALL
GASTEIGER

@<TRIPOS>ATOM
      1 C           0.3538    1.8158   24.1554 C.3     1  UNL1        0.0903
      2 C           1.0064    1.0776   23.0244 C.3     1  UNL1        0.0919
      3 N           1.4676    1.8247   21.8083 N.3     1  UNL1       -0.2725
      4 C           1.2763    3.3100   21.7230 C.3     1  UNL1        0.0722
      5 C           0.6237    4.0482   22.8540 C.3     1  UNL1        0.0204
      6 C           0.1625    3.3011   24.0702 C.3     1  UNL1        0.0368
      7 C           2.1203    1.0864   20.6772 C.3     1  UNL1        0.0603
      8 C           2.3086   -0.3993   20.7610 C.3     1  UNL1        0.0333
      9 C           2.9612   -1.1376   19.6301 C.3     1  UNL1        0.0735
     10 N           3.4254   -0.3901   18.4152 N.3     1  UNL1       -0.2714
     11 C           4.0780   -1.1283   17.2843 C.3     1  UNL1        0.0896
     12 C           3.2371    1.0957   18.3314 C.3     1  UNL1        0.0735
     13 C           2.5845    1.8339   19.4625 C.3     1  UNL1        0.0333
     14 N           0.2488    0.3580   27.8451 N.am    1  UNL1       -0.2485
     15 C           0.7100    1.1050   26.6288 C.2     1  UNL1        0.3059
     16 O           1.9886    1.8882   26.6698 O.2     1  UNL1       -0.2524
     17 N          -0.1074    1.0688   25.3716 N.am    1  UNL1       -0.2889
     18 H          -0.5904   -0.1561   27.8182 H       1  UNL1        0.1583
     19 H          -0.9466    0.5547   25.3447 H       1  UNL1        0.1510
     20 C           2.7515   -0.1079   30.7750 C.ar    1  UNL1        0.0803
     21 S           2.2383   -0.4871   29.4175 S.2     1  UNL1       -0.0488
     22 C           1.0662    0.3942   29.1023 C.ar    1  UNL1        0.1664
     23 N           0.8549    1.3180   30.2650 N.ar    1  UNL1       -0.2282
     24 C           1.8965    1.0077   31.2988 C.ar    1  UNL1        0.0701
     25 C           2.0552    1.6927   32.6238 C.3     1  UNL1        0.0528
     26 C           5.3143   -0.4573   31.0194 C.3     1  UNL1        0.0779
     27 C           3.9154   -0.7344   31.4842 C.2     1  UNL1        0.1807
     28 O           3.6803   -1.6379   32.6582 O.2     1  UNL1       -0.2908
     29 C          -0.4901    4.0394   25.2012 C.3     1  UNL1        0.0738
     30 N          -1.9818    4.0079   25.3557 N.3     1  UNL1       -0.2726
     31 C          -2.6075    4.3695   26.6702 C.3     1  UNL1        0.0721
     32 C          -4.0992    4.3381   26.8247 C.3     1  UNL1        0.0174
     33 C          -4.9652    3.9449   25.6647 C.3     1  UNL1        0.0031
     34 C          -4.3395    3.5833   24.3503 C.3     1  UNL1        0.0204
     35 C          -2.8478    3.6148   24.1958 C.3     1  UNL1        0.0724
     36 C          -5.2056    3.1902   23.1903 C.3     1  UNL1        0.0277
     37 C          -5.0107    3.8428   21.8538 C.ar    1  UNL1       -0.0220
     38 C          -4.2866    3.1132   20.7613 C.ar    1  UNL1       -0.0020
     39 C          -4.0917    3.7658   19.4249 C.ar    1  UNL1        0.0293
     40 C          -4.6210    5.1480   19.1809 C.ar    1  UNL1        0.1401
     41 F          -4.4261    5.8006   17.8444 F       1  UNL1       -0.2042
     42 C          -5.3450    5.8776   20.2733 C.ar    1  UNL1        0.0293
     43 C          -5.5399    5.2250   21.6098 C.ar    1  UNL1       -0.0020
@<TRIPOS>BOND
     1    26    27    1
     2    27    28    2
     3    27    20    1
     4    20    21   ar
     5    21    22   ar
     6    22    14    1
     7    14    15   am
     8    15    16    2
     9    15    17   am
    10     1    17    1
    11     1     2    1
    12     2     3    1
    13     3     7    1
    14     7     8    1
    15     8     9    1
    16     9    10    1
    17    10    11    1
    18    10    12    1
    19    12    13    1
    20     3     4    1
    21     4     5    1
    22     5     6    1
    23     6    29    1
    24    29    30    1
    25    30    31    1
    26    31    32    1
    27    32    33    1
    28    33    34    1
    29    34    36    1
    30    36    37    1
    31    37    38   ar
    32    38    39   ar
    33    39    40   ar
    34    40    41    1
    35    40    42   ar
    36    42    43   ar
    37    34    35    1
    38    22    23   ar
    39    23    24   ar
    40    24    25    1
    41    24    20   ar
    42     6     1    1
    43    35    30    1
    44    13     7    1
    45    43    37   ar
    46    14    18    1
    47    17    19    1
@<TRIPOS>MOLECULE
*****
 43 47 0 0 0
SMALL
GASTEIGER

@<TRIPOS>ATOM
      1 C           7.3623   -2.9535   23.6630 C.3     1  UNL1        0.0903
      2 C           7.4206   -3.3354   25.1124 C.3     1  UNL1        0.0919
      3 N           7.8554   -4.7155   25.5074 N.3     1  UNL1       -0.2725
      4 C           8.2320   -5.7138   24.4531 C.3     1  UNL1        0.0722
      5 C           8.1737   -5.3319   23.0037 C.3     1  UNL1        0.0204
      6 C           7.7389   -3.9518   22.6087 C.3     1  UNL1        0.0368
      7 C           7.9137   -5.0974   26.9569 C.3     1  UNL1        0.0603
      8 C           9.2177   -5.5123   27.5713 C.3     1  UNL1        0.0333
      9 C           9.2760   -5.8942   29.0206 C.3     1  UNL1        0.0735
     10 N           8.0303   -5.8612   29.8557 N.3     1  UNL1       -0.2714
     11 C           8.0887   -6.2431   31.3050 C.3     1  UNL1        0.0896
     12 C           6.7264   -5.4463   29.2413 C.3     1  UNL1        0.0735
     13 C           6.6681   -5.0644   27.7918 C.3     1  UNL1        0.0333
     14 N           5.0420    0.1834   22.9377 N.am    1  UNL1       -0.2485
     15 C           5.4769   -1.1967   23.3328 C.2     1  UNL1        0.3059
     16 O           4.4613   -2.2002   23.7929 O.2     1  UNL1       -0.2524
     17 N           6.9274   -1.5733   23.2679 N.am    1  UNL1       -0.2889
     18 H           5.7086    0.8420   22.6358 H       1  UNL1        0.1583
     19 H           7.5940   -0.9148   22.9659 H       1  UNL1        0.1510
     20 C           1.3463    1.2179   22.3569 C.ar    1  UNL1        0.0803
     21 S           2.7177    0.9080   21.8342 S.2     1  UNL1       -0.0488
     22 C           3.5915    0.5601   23.0027 C.ar    1  UNL1        0.1664
     23 N           2.7601    0.6550   24.2476 N.ar    1  UNL1       -0.2282
     24 C           1.3725    1.0616   23.8485 C.ar    1  UNL1        0.0701
     25 C           0.2145    1.2744   24.7778 C.3     1  UNL1        0.0528
     26 C          -0.3854    3.0100   21.6224 C.3     1  UNL1        0.0779
     27 C           0.1575    1.6146   21.5327 C.2     1  UNL1        0.1807
     28 O          -0.4884    0.6159   20.6188 O.2     1  UNL1       -0.2908
     29 C           7.6806   -3.5699   21.1592 C.3     1  UNL1        0.0738
     30 N           6.3538   -3.3594   20.4919 N.3     1  UNL1       -0.2726
     31 C           5.1658   -4.1736   20.9111 C.3     1  UNL1        0.0721
     32 C           3.8390   -3.9631   20.2438 C.3     1  UNL1        0.0174
     33 C           3.7002   -2.9382   19.1572 C.3     1  UNL1        0.0031
     34 C           4.8882   -2.1241   18.7381 C.3     1  UNL1        0.0204
     35 C           6.2150   -2.3346   19.4054 C.3     1  UNL1        0.0724
     36 C           4.7494   -1.0992   17.6515 C.3     1  UNL1        0.0277
     37 C           4.0875    0.2154   17.9406 C.ar    1  UNL1       -0.0220
     38 C           2.5913    0.3048   17.9996 C.ar    1  UNL1       -0.0020
     39 C           1.9294    1.6195   18.2887 C.ar    1  UNL1        0.0293
     40 C           2.7637    2.8447   18.5188 C.ar    1  UNL1        0.1401
     41 F           2.1017    4.1593   18.8079 F       1  UNL1       -0.2042
     42 C           4.2598    2.7552   18.4597 C.ar    1  UNL1        0.0293
     43 C           4.9217    1.4406   18.1706 C.ar    1  UNL1       -0.0020
@<TRIPOS>BOND
     1    26    27    1
     2    27    28    2
     3    27    20    1
     4    20    21   ar
     5    21    22   ar
     6    22    14    1
     7    14    15   am
     8    15    16    2
     9    15    17   am
    10     1    17    1
    11     1     2    1
    12     2     3    1
    13     3     7    1
    14     7     8    1
    15     8     9    1
    16     9    10    1
    17    10    11    1
    18    10    12    1
    19    12    13    1
    20     3     4    1
    21     4     5    1
    22     5     6    1
    23     6    29    1
    24    29    30    1
    25    30    31    1
    26    31    32    1
    27    32    33    1
    28    33    34    1
    29    34    36    1
    30    36    37    1
    31    37    38   ar
    32    38    39   ar
    33    39    40   ar
    34    40    41    1
    35    40    42   ar
    36    42    43   ar
    37    34    35    1
    38    22    23   ar
    39    23    24   ar
    40    24    25    1
    41    24    20   ar
    42     6     1    1
    43    35    30    1
    44    13     7    1
    45    43    37   ar
    46    14    18    1
    47    17    19    1
@<TRIPOS>MOLECULE
*****
 43 47 0 0 0
SMALL
GASTEIGER

@<TRIPOS>ATOM
      1 C           0.2870    1.7966   25.8065 C.3     1  UNL1        0.0903
      2 C          -1.1357    2.2240   25.5986 C.3     1  UNL1        0.0919
      3 N          -1.4557    3.3141   24.6192 N.3     1  UNL1       -0.2725
      4 C          -0.3531    3.9767   23.8477 C.3     1  UNL1        0.0722
      5 C           1.0695    3.5492   24.0556 C.3     1  UNL1        0.0204
      6 C           1.3896    2.4592   25.0350 C.3     1  UNL1        0.0368
      7 C          -2.8785    3.7416   24.4113 C.3     1  UNL1        0.0603
      8 C          -3.3275    4.2231   23.0635 C.3     1  UNL1        0.0333
      9 C          -4.7502    4.6506   22.8555 C.3     1  UNL1        0.0735
     10 N          -5.7238    4.5967   23.9954 N.3     1  UNL1       -0.2714
     11 C          -7.1464    5.0242   23.7874 C.3     1  UNL1        0.0896
     12 C          -5.2747    4.1153   25.3432 C.3     1  UNL1        0.0735
     13 C          -3.8520    3.6877   25.5511 C.3     1  UNL1        0.0333
     14 N           1.4565   -0.0380   29.1257 N.am    1  UNL1       -0.2485
     15 C           1.1364    1.0521   28.1463 C.2     1  UNL1        0.3059
     16 O           1.3455    2.4878   28.5271 O.2     1  UNL1       -0.2524
     17 N           0.6071    0.7064   26.7859 N.am    1  UNL1       -0.2889
     18 H           1.3192   -0.9803   28.8757 H       1  UNL1        0.1583
     19 H           0.4698   -0.2358   26.5360 H       1  UNL1        0.1510
     20 C           3.3039    0.2867   32.5238 C.ar    1  UNL1        0.0803
     21 S           3.1119   -0.3837   31.1958 S.2     1  UNL1       -0.0488
     22 C           1.9857    0.3077   30.4860 C.ar    1  UNL1        0.1664
     23 N           1.4818    1.4054   31.3754 N.ar    1  UNL1       -0.2282
     24 C           2.2964    1.3924   32.6348 C.ar    1  UNL1        0.0701
     25 C           2.1324    2.3220   33.8006 C.3     1  UNL1        0.0528
     26 C           4.4655   -1.5118   33.9956 C.3     1  UNL1        0.0779
     27 C           4.3243   -0.0837   33.5590 C.2     1  UNL1        0.1807
     28 O           5.2033    0.9740   34.1577 O.2     1  UNL1       -0.2908
     29 C           2.8123    2.0316   25.2429 C.3     1  UNL1        0.0738
     30 N           3.3133    0.7635   24.6178 N.3     1  UNL1       -0.2726
     31 C           3.6764   -0.4068   25.4831 C.3     1  UNL1        0.0721
     32 C           4.1774   -1.6749   24.8580 C.3     1  UNL1        0.0174
     33 C           4.3154   -1.7728   23.3675 C.3     1  UNL1        0.0031
     34 C           3.9523   -0.6026   22.5022 C.3     1  UNL1        0.0204
     35 C           3.4513    0.6656   23.1274 C.3     1  UNL1        0.0724
     36 C           4.0902   -0.7005   21.0118 C.3     1  UNL1        0.0277
     37 C           4.3059   -2.0364   20.3647 C.ar    1  UNL1       -0.0220
     38 C           5.6777   -2.6427   20.3351 C.ar    1  UNL1       -0.0020
     39 C           5.8934   -3.9787   19.6880 C.ar    1  UNL1        0.0293
     40 C           4.7373   -4.7083   19.0705 C.ar    1  UNL1        0.1401
     41 F           4.9530   -6.0443   18.4234 F       1  UNL1       -0.2042
     42 C           3.3657   -4.1020   19.1001 C.ar    1  UNL1        0.0293
     43 C           3.1500   -2.7661   19.7472 C.ar    1  UNL1       -0.0020
@<TRIPOS>BOND
     1    26    27    1
     2    27    28    2
     3    27    20    1
     4    20    21   ar
     5    21    22   ar
     6    22    14    1
     7    14    15   am
     8    15    16    2
     9    15    17   am
    10     1    17    1
    11     1     2    1
    12     2     3    1
    13     3     7    1
    14     7     8    1
    15     8     9    1
    16     9    10    1
    17    10    11    1
    18    10    12    1
    19    12    13    1
    20     3     4    1
    21     4     5    1
    22     5     6    1
    23     6    29    1
    24    29    30    1
    25    30    31    1
    26    31    32    1
    27    32    33    1
    28    33    34    1
    29    34    36    1
    30    36    37    1
    31    37    38   ar
    32    38    39   ar
    33    39    40   ar
    34    40    41    1
    35    40    42   ar
    36    42    43   ar
    37    34    35    1
    38    22    23   ar
    39    23    24   ar
    40    24    25    1
    41    24    20   ar
    42     6     1    1
    43    35    30    1
    44    13     7    1
    45    43    37   ar
    46    14    18    1
    47    17    19    1
@<TRIPOS>MOLECULE
*****
 43 47 0 0 0
SMALL
GASTEIGER

@<TRIPOS>ATOM
      1 C          -0.1846    2.0424   25.8768 C.3     1  UNL1        0.0903
      2 C          -1.3184    2.8000   26.5016 C.3     1  UNL1        0.0919
      3 N          -1.7583    4.1091   25.9161 N.3     1  UNL1       -0.2725
      4 C          -1.0645    4.6605   24.7060 C.3     1  UNL1        0.0722
      5 C           0.0693    3.9028   24.0812 C.3     1  UNL1        0.0204
      6 C           0.5093    2.5937   24.6666 C.3     1  UNL1        0.0368
      7 C          -2.8922    4.8669   26.5409 C.3     1  UNL1        0.0603
      8 C          -2.6110    6.0638   27.4001 C.3     1  UNL1        0.0333
      9 C          -3.7447    6.8216   28.0249 C.3     1  UNL1        0.0735
     10 N          -5.1598    6.3824   27.7904 N.3     1  UNL1       -0.2714
     11 C          -6.2935    7.1401   28.4152 C.3     1  UNL1        0.0896
     12 C          -5.4409    5.1854   26.9312 C.3     1  UNL1        0.0735
     13 C          -4.3071    4.4276   26.3065 C.3     1  UNL1        0.0333
     14 N           1.6888   -0.5988   28.1714 N.am    1  UNL1       -0.2485
     15 C           1.2487    0.7103   27.5860 C.2     1  UNL1        0.3059
     16 O           1.8020    1.9964   28.1243 O.2     1  UNL1       -0.2524
     17 N           0.2554    0.7332   26.4622 N.am    1  UNL1       -0.2889
     18 H           1.3256   -1.4429   27.8181 H       1  UNL1        0.1583
     19 H          -0.1077   -0.1109   26.1089 H       1  UNL1        0.1510
     20 C           4.7714   -0.6962   30.5280 C.ar    1  UNL1        0.0803
     21 S           4.1733   -0.6985   29.1524 S.2     1  UNL1       -0.0488
     22 C           2.6820   -0.6217   29.2952 C.ar    1  UNL1        0.1664
     23 N           2.3585   -0.5720   30.7590 N.ar    1  UNL1       -0.2282
     24 C           3.6498   -0.6180   31.5210 C.ar    1  UNL1        0.0701
     25 C           3.7941   -0.5907   33.0137 C.3     1  UNL1        0.0528
     26 C           6.9735    0.4876   31.2344 C.3     1  UNL1        0.0779
     27 C           6.2342   -0.7607   30.8535 C.2     1  UNL1        0.1807
     28 O           6.9577   -2.0734   30.7980 O.2     1  UNL1       -0.2908
     29 C           1.6431    1.8360   24.0418 C.3     1  UNL1        0.0738
     30 N           1.5542    1.3992   22.6096 N.3     1  UNL1       -0.2726
     31 C           0.2243    1.3667   21.9166 C.3     1  UNL1        0.0721
     32 C           0.1354    0.9299   20.4843 C.3     1  UNL1        0.0174
     33 C           1.3765    0.5257   19.7451 C.3     1  UNL1        0.0031
     34 C           2.7063    0.5582   20.4381 C.3     1  UNL1        0.0204
     35 C           2.7952    0.9950   21.8704 C.3     1  UNL1        0.0724
     36 C           3.9474    0.1540   19.6989 C.3     1  UNL1        0.0277
     37 C           4.1814   -1.2880   19.3583 C.ar    1  UNL1       -0.0220
     38 C           5.4035   -1.6874   18.5857 C.ar    1  UNL1       -0.0020
     39 C           5.6375   -3.1294   18.2451 C.ar    1  UNL1        0.0293
     40 C           4.6492   -4.1719   18.6771 C.ar    1  UNL1        0.1401
     41 F           4.8832   -5.6139   18.3366 F       1  UNL1       -0.2042
     42 C           3.4272   -3.7725   19.4497 C.ar    1  UNL1        0.0293
     43 C           3.1932   -2.3305   19.7903 C.ar    1  UNL1       -0.0020
@<TRIPOS>BOND
     1    26    27    1
     2    27    28    2
     3    27    20    1
     4    20    21   ar
     5    21    22   ar
     6    22    14    1
     7    14    15   am
     8    15    16    2
     9    15    17   am
    10     1    17    1
    11     1     2    1
    12     2     3    1
    13     3     7    1
    14     7     8    1
    15     8     9    1
    16     9    10    1
    17    10    11    1
    18    10    12    1
    19    12    13    1
    20     3     4    1
    21     4     5    1
    22     5     6    1
    23     6    29    1
    24    29    30    1
    25    30    31    1
    26    31    32    1
    27    32    33    1
    28    33    34    1
    29    34    36    1
    30    36    37    1
    31    37    38   ar
    32    38    39   ar
    33    39    40   ar
    34    40    41    1
    35    40    42   ar
    36    42    43   ar
    37    34    35    1
    38    22    23   ar
    39    23    24   ar
    40    24    25    1
    41    24    20   ar
    42     6     1    1
    43    35    30    1
    44    13     7    1
    45    43    37   ar
    46    14    18    1
    47    17    19    1
@<TRIPOS>MOLECULE
*****
 43 47 0 0 0
SMALL
GASTEIGER

@<TRIPOS>ATOM
      1 C           1.8463    0.0200   29.2009 C.3     1  UNL1        0.0903
      2 C           2.6495   -0.1898   30.4503 C.3     1  UNL1        0.0919
      3 N           2.3979    0.6662   31.6561 N.3     1  UNL1       -0.2725
      4 C           1.3433    1.7320   31.6125 C.3     1  UNL1        0.0722
      5 C           0.5402    1.9417   30.3631 C.3     1  UNL1        0.0204
      6 C           0.7917    1.0858   29.1574 C.3     1  UNL1        0.0368
      7 C           3.2011    0.4565   32.9055 C.3     1  UNL1        0.0603
      8 C           3.9220   -0.8405   33.1248 C.3     1  UNL1        0.0333
      9 C           4.7251   -1.0503   34.3742 C.3     1  UNL1        0.0735
     10 N           4.8074    0.0370   35.4043 N.3     1  UNL1       -0.2714
     11 C           5.6105   -0.1728   36.6537 C.3     1  UNL1        0.0896
     12 C           4.0864    1.3340   35.1851 C.3     1  UNL1        0.0735
     13 C           3.2833    1.5437   33.9356 C.3     1  UNL1        0.0333
     14 N           3.6951   -1.6777   26.1268 N.am    1  UNL1       -0.2485
     15 C           3.4436   -0.8217   27.3326 C.2     1  UNL1        0.3059
     16 O           4.5378    0.0486   27.8761 O.2     1  UNL1       -0.2524
     17 N           2.0978   -0.8360   27.9950 N.am    1  UNL1       -0.2889
     18 H           2.9769   -2.2488   25.7701 H       1  UNL1        0.1583
     19 H           1.3797   -1.4072   27.6384 H       1  UNL1        0.1510
     20 C           6.8908   -1.0731   24.0083 C.ar    1  UNL1        0.0803
     21 S           5.4743   -0.7355   24.3684 S.2     1  UNL1       -0.0488
     22 C           5.0409   -1.6634   25.4644 C.ar    1  UNL1        0.1664
     23 N           6.1895   -2.5744   25.7817 N.ar    1  UNL1       -0.2282
     24 C           7.3328   -2.2096   24.8818 C.ar    1  UNL1        0.0701
     25 C           8.6813   -2.8661   24.8594 C.3     1  UNL1        0.0528
     26 C           7.4843   -0.6917   21.5079 C.3     1  UNL1        0.0779
     27 C           7.7197   -0.3935   22.9590 C.2     1  UNL1        0.1807
     28 O           8.7838    0.5842   23.3607 O.2     1  UNL1       -0.2908
     29 C          -0.0115    1.2955   27.9079 C.3     1  UNL1        0.0738
     30 N           0.6328    1.8974   26.6944 N.3     1  UNL1       -0.2726
     31 C           1.7860    2.8441   26.8492 C.3     1  UNL1        0.0721
     32 C           2.4303    3.4460   25.6357 C.3     1  UNL1        0.0174
     33 C           1.9214    3.1012   24.2674 C.3     1  UNL1        0.0031
     34 C           0.7683    2.1545   24.1126 C.3     1  UNL1        0.0204
     35 C           0.1240    1.5526   25.3262 C.3     1  UNL1        0.0724
     36 C           0.2594    1.8096   22.7443 C.3     1  UNL1        0.0277
     37 C           0.9806    0.7927   21.9102 C.ar    1  UNL1       -0.0220
     38 C           0.5100    0.4952   20.5173 C.ar    1  UNL1       -0.0020
     39 C           1.2312   -0.5217   19.6831 C.ar    1  UNL1        0.0293
     40 C           2.4230   -1.2411   20.2419 C.ar    1  UNL1        0.1401
     41 F           3.1442   -2.2579   19.4078 F       1  UNL1       -0.2042
     42 C           2.8935   -0.9435   21.6348 C.ar    1  UNL1        0.0293
     43 C           2.1723    0.0733   22.4689 C.ar    1  UNL1       -0.0020
@<TRIPOS>BOND
     1    26    27    1
     2    27    28    2
     3    27    20    1
     4    20    21   ar
     5    21    22   ar
     6    22    14    1
     7    14    15   am
     8    15    16    2
     9    15    17   am
    10     1    17    1
    11     1     2    1
    12     2     3    1
    13     3     7    1
    14     7     8    1
    15     8     9    1
    16     9    10    1
    17    10    11    1
    18    10    12    1
    19    12    13    1
    20     3     4    1
    21     4     5    1
    22     5     6    1
    23     6    29    1
    24    29    30    1
    25    30    31    1
    26    31    32    1
    27    32    33    1
    28    33    34    1
    29    34    36    1
    30    36    37    1
    31    37    38   ar
    32    38    39   ar
    33    39    40   ar
    34    40    41    1
    35    40    42   ar
    36    42    43   ar
    37    34    35    1
    38    22    23   ar
    39    23    24   ar
    40    24    25    1
    41    24    20   ar
    42     6     1    1
    43    35    30    1
    44    13     7    1
    45    43    37   ar
    46    14    18    1
    47    17    19    1
