@<TRIPOS>MOLECULE
*****
 33 36 0 0 0
SMALL
GASTEIGER

@<TRIPOS>ATOM
      1 N           6.6057   -2.9749   24.7689 N.pl3   1  UNL1       -0.2567
      2 C           6.8399   -2.7110   23.3110 C.ar    1  UNL1        0.1408
      3 N           6.3795   -1.3375   22.9218 N.ar    1  UNL1       -0.2290
      4 C           6.5237   -0.8721   21.5032 C.ar    1  UNL1        0.0961
      5 C           7.1282   -1.7802   20.4737 C.ar    1  UNL1        0.0010
      6 C           7.5886   -3.1538   20.8629 C.ar    1  UNL1        0.0047
      7 C           7.4444   -3.6191   22.2815 C.ar    1  UNL1        0.0855
      8 C           7.9640   -5.0155   22.4557 C.2     1  UNL1        0.2556
      9 O           8.5127   -5.6646   21.2198 O.2     1  UNL1       -0.2695
     10 N           8.0075   -5.8485   23.7024 N.am    1  UNL1       -0.2508
     11 C           8.5939   -7.2205   23.5483 C.3     1  UNL1        0.1204
     12 C           7.5420   -5.4909   25.0828 C.ar    1  UNL1        0.0864
     13 C           7.7692   -6.6175   26.0467 C.ar    1  UNL1        0.0217
     14 C           7.3725   -6.4653   27.4853 C.ar    1  UNL1        0.0510
     15 C           6.7487   -5.1865   27.9599 C.ar    1  UNL1        0.2235
     16 F           6.3520   -5.0341   29.3985 F       1  UNL1       -0.1832
     17 N           6.5215   -4.0598   26.9960 N.ar    1  UNL1       -0.2014
     18 C           6.9181   -4.2121   25.5575 C.ar    1  UNL1        0.1526
     19 C           4.4874   -1.6678   25.5136 C.3     1  UNL1        0.0237
     20 C           5.9757   -1.8533   25.5403 C.3     1  UNL1        0.0984
     21 C           7.2724   -1.3148   19.0550 C.3     1  UNL1        0.0752
     22 C           6.8586   -2.2113   17.9258 C.3     1  UNL1        0.2101
     23 O           5.4557   -2.7385   17.8622 O.3     1  UNL1       -0.4754
     24 C           4.3105   -1.8789   18.3089 C.ar    1  UNL1        0.1345
     25 C           3.9203   -0.6730   17.5067 C.ar    1  UNL1        0.0366
     26 C           2.7751    0.1865   17.9534 C.ar    1  UNL1        0.0042
     27 C           2.0199   -0.1598   19.2023 C.ar    1  UNL1        0.0139
     28 C           2.4101   -1.3657   20.0046 C.ar    1  UNL1       -0.0001
     29 C           3.5554   -2.2253   19.5578 C.ar    1  UNL1        0.0121
     30 C           3.9455   -3.4312   20.3601 C.3     1  UNL1        0.0342
     31 C           0.8747    0.6998   19.6490 C.2     1  UNL1        0.0729
     32 O           0.7497    2.1057   19.1415 O.co2   1  UNL1       -0.5446
     33 O          -0.1455    0.1534   20.6033 O.co2   1  UNL1       -0.5446
@<TRIPOS>UNITY_ATOM_ATTR
32 1
charge -1
@<TRIPOS>BOND
     1    19    20    1
     2    20     1    1
     3     1     2    1
     4     2     3   ar
     5     3     4   ar
     6     4     5   ar
     7     5    21    1
     8    21    22    1
     9    22    23    1
    10    23    24    1
    11    24    25   ar
    12    25    26   ar
    13    26    27   ar
    14    27    31    1
    15    31    32   ar
    16    31    33   ar
    17    27    28   ar
    18    28    29   ar
    19    29    30    1
    20     5     6   ar
    21     6     7   ar
    22     7     8    1
    23     8     9    2
    24     8    10   am
    25    10    11    1
    26    10    12    1
    27    12    13   ar
    28    13    14   ar
    29    14    15   ar
    30    15    16    1
    31    15    17   ar
    32    17    18   ar
    33    18     1    1
    34     7     2   ar
    35    18    12   ar
    36    29    24   ar
@<TRIPOS>MOLECULE
*****
 33 36 0 0 0
SMALL
GASTEIGER

@<TRIPOS>ATOM
      1 N           1.3944    0.0497   20.9139 N.pl3   1  UNL1       -0.2567
      2 C           0.8147    0.9969   21.9223 C.ar    1  UNL1        0.1408
      3 N          -0.2372    1.8733   21.3097 N.ar    1  UNL1       -0.2290
      4 C          -0.9448    2.8947   22.1498 C.ar    1  UNL1        0.0961
      5 C          -0.6005    3.0398   23.6025 C.ar    1  UNL1        0.0010
      6 C           0.4514    2.1634   24.2151 C.ar    1  UNL1        0.0047
      7 C           1.1591    1.1420   23.3750 C.ar    1  UNL1        0.0855
      8 C           2.1680    0.3757   24.1781 C.2     1  UNL1        0.2556
      9 O           2.2776    0.7610   25.6236 O.2     1  UNL1       -0.2695
     10 N           3.0819   -0.7249   23.7268 N.am    1  UNL1       -0.2508
     11 C           3.9845   -1.2946   24.7806 C.3     1  UNL1        0.1204
     12 C           3.2124   -1.3310   22.3609 C.ar    1  UNL1        0.0864
     13 C           4.2512   -2.4128   22.3385 C.ar    1  UNL1        0.0217
     14 C           4.5390   -3.1500   21.0642 C.ar    1  UNL1        0.0510
     15 C           3.7881   -2.8053   19.8123 C.ar    1  UNL1        0.2235
     16 F           4.0758   -3.5423   18.5380 F       1  UNL1       -0.1832
     17 N           2.7493   -1.7234   19.8348 N.ar    1  UNL1       -0.2014
     18 C           2.4614   -0.9863   21.1090 C.ar    1  UNL1        0.1526
     19 C           1.4580    1.0837   18.5312 C.3     1  UNL1        0.0237
     20 C           0.8326    0.1521   19.5268 C.3     1  UNL1        0.0984
     21 C          -1.3082    4.0613   24.4427 C.3     1  UNL1        0.0752
     22 C          -2.0511    3.6352   25.6741 C.3     1  UNL1        0.2101
     23 O          -1.4370    3.8366   27.0278 O.3     1  UNL1       -0.4754
     24 C          -0.5563    2.7752   27.6173 C.ar    1  UNL1        0.1345
     25 C          -1.0294    1.3528   27.6713 C.ar    1  UNL1        0.0366
     26 C          -0.1487    0.2913   28.2608 C.ar    1  UNL1        0.0042
     27 C           1.2053    0.6522   28.7963 C.ar    1  UNL1        0.0139
     28 C           1.6784    2.0746   28.7423 C.ar    1  UNL1       -0.0001
     29 C           0.7976    3.1361   28.1528 C.ar    1  UNL1        0.0121
     30 C           1.2707    4.5585   28.0987 C.3     1  UNL1        0.0342
     31 C           2.0860   -0.4093   29.3858 C.2     1  UNL1        0.0729
     32 O           2.9976   -1.2049   28.4993 O.co2   1  UNL1       -0.5446
     33 O           2.0552   -0.6751   30.8617 O.co2   1  UNL1       -0.5446
@<TRIPOS>UNITY_ATOM_ATTR
32 1
charge -1
@<TRIPOS>BOND
     1    19    20    1
     2    20     1    1
     3     1     2    1
     4     2     3   ar
     5     3     4   ar
     6     4     5   ar
     7     5    21    1
     8    21    22    1
     9    22    23    1
    10    23    24    1
    11    24    25   ar
    12    25    26   ar
    13    26    27   ar
    14    27    31    1
    15    31    32   ar
    16    31    33   ar
    17    27    28   ar
    18    28    29   ar
    19    29    30    1
    20     5     6   ar
    21     6     7   ar
    22     7     8    1
    23     8     9    2
    24     8    10   am
    25    10    11    1
    26    10    12    1
    27    12    13   ar
    28    13    14   ar
    29    14    15   ar
    30    15    16    1
    31    15    17   ar
    32    17    18   ar
    33    18     1    1
    34     7     2   ar
    35    18    12   ar
    36    29    24   ar
@<TRIPOS>MOLECULE
*****
 33 36 0 0 0
SMALL
GASTEIGER

@<TRIPOS>ATOM
      1 N          -6.0094  -16.6017   23.3997 N.pl3   1  UNL1       -0.2567
      2 C          -7.3509  -17.2414   23.6025 C.ar    1  UNL1        0.1408
      3 N          -8.2537  -16.3720   24.4266 N.ar    1  UNL1       -0.2290
      4 C          -9.6462  -16.8280   24.7472 C.ar    1  UNL1        0.0961
      5 C         -10.1360  -18.1533   24.2437 C.ar    1  UNL1        0.0010
      6 C          -9.2333  -19.0227   23.4196 C.ar    1  UNL1        0.0047
      7 C          -7.8407  -18.5667   23.0990 C.ar    1  UNL1        0.0855
      8 C          -7.1099  -19.5797   22.2684 C.2     1  UNL1        0.2556
      9 O          -7.8824  -20.8187   21.9246 O.2     1  UNL1       -0.2695
     10 N          -5.7090  -19.5175   21.7361 N.am    1  UNL1       -0.2508
     11 C          -5.2657  -20.7025   20.9304 C.3     1  UNL1        0.1204
     12 C          -4.6927  -18.4269   21.9030 C.ar    1  UNL1        0.0864
     13 C          -3.4078  -18.7640   21.2063 C.ar    1  UNL1        0.0217
     14 C          -2.2565  -17.8033   21.2500 C.ar    1  UNL1        0.0510
     15 C          -2.3902  -16.5057   21.9903 C.ar    1  UNL1        0.2235
     16 F          -1.2390  -15.5451   22.0341 F       1  UNL1       -0.1832
     17 N          -3.6751  -16.1687   22.6870 N.ar    1  UNL1       -0.2014
     18 C          -4.8263  -17.1292   22.6433 C.ar    1  UNL1        0.1526
     19 C          -5.3919  -15.1583   25.4699 C.3     1  UNL1        0.0237
     20 C          -5.8268  -15.2564   24.0376 C.3     1  UNL1        0.0984
     21 C         -11.5287  -18.6093   24.5644 C.3     1  UNL1        0.0752
     22 C         -12.7076  -17.8620   24.0153 C.3     1  UNL1        0.2101
     23 O         -13.0308  -17.9412   22.5526 O.3     1  UNL1       -0.4754
     24 C         -11.9951  -18.4233   21.5807 C.ar    1  UNL1        0.1345
     25 C         -11.7427  -19.8934   21.4214 C.ar    1  UNL1        0.0366
     26 C         -10.7070  -20.3755   20.4494 C.ar    1  UNL1        0.0042
     27 C          -9.9235  -19.3876   19.6367 C.ar    1  UNL1        0.0139
     28 C         -10.1759  -17.9176   19.7960 C.ar    1  UNL1       -0.0001
     29 C         -11.2117  -17.4355   20.7680 C.ar    1  UNL1        0.0121
     30 C         -11.4641  -15.9655   20.9274 C.3     1  UNL1        0.0342
     31 C          -8.8878  -19.8698   18.6648 C.2     1  UNL1        0.0729
     32 O          -7.5143  -19.2669   18.6720 O.co2   1  UNL1       -0.5446
     33 O          -9.2255  -20.9547   17.6856 O.co2   1  UNL1       -0.5446
@<TRIPOS>UNITY_ATOM_ATTR
32 1
charge -1
@<TRIPOS>BOND
     1    19    20    1
     2    20     1    1
     3     1     2    1
     4     2     3   ar
     5     3     4   ar
     6     4     5   ar
     7     5    21    1
     8    21    22    1
     9    22    23    1
    10    23    24    1
    11    24    25   ar
    12    25    26   ar
    13    26    27   ar
    14    27    31    1
    15    31    32   ar
    16    31    33   ar
    17    27    28   ar
    18    28    29   ar
    19    29    30    1
    20     5     6   ar
    21     6     7   ar
    22     7     8    1
    23     8     9    2
    24     8    10   am
    25    10    11    1
    26    10    12    1
    27    12    13   ar
    28    13    14   ar
    29    14    15   ar
    30    15    16    1
    31    15    17   ar
    32    17    18   ar
    33    18     1    1
    34     7     2   ar
    35    18    12   ar
    36    29    24   ar
@<TRIPOS>MOLECULE
*****
 33 36 0 0 0
SMALL
GASTEIGER

@<TRIPOS>ATOM
      1 N           6.4821   -3.2159   27.2292 N.pl3   1  UNL1       -0.2567
      2 C           6.6340   -3.5119   25.7665 C.ar    1  UNL1        0.1408
      3 N           6.2206   -2.3414   24.9246 N.ar    1  UNL1       -0.2290
      4 C           6.2958   -2.4294   23.4292 C.ar    1  UNL1        0.0961
      5 C           6.7844   -3.6880   22.7755 C.ar    1  UNL1        0.0010
      6 C           7.1978   -4.8585   23.6174 C.ar    1  UNL1        0.0047
      7 C           7.1227   -4.7705   25.1129 C.ar    1  UNL1        0.0855
      8 C           7.5800   -6.0439   25.7606 C.2     1  UNL1        0.2556
      9 O           8.0129   -7.1318   24.8230 O.2     1  UNL1       -0.2695
     10 N           7.6617   -6.3732   27.2217 N.am    1  UNL1       -0.2508
     11 C           8.1655   -7.7469   27.5521 C.3     1  UNL1        0.1204
     12 C           7.3062   -5.5104   28.3961 C.ar    1  UNL1        0.0864
     13 C           7.5375   -6.2277   29.6930 C.ar    1  UNL1        0.0217
     14 C           7.2437   -5.5399   30.9933 C.ar    1  UNL1        0.0510
     15 C           6.7188   -4.1348   30.9966 C.ar    1  UNL1        0.2235
     16 F           6.4251   -3.4469   32.2968 F       1  UNL1       -0.1832
     17 N           6.4875   -3.4175   29.6997 N.ar    1  UNL1       -0.2014
     18 C           6.7812   -4.1052   28.3995 C.ar    1  UNL1        0.1526
     19 C           4.4838   -1.6029   27.6231 C.3     1  UNL1        0.0237
     20 C           5.9623   -1.8498   27.5661 C.3     1  UNL1        0.0984
     21 C           6.8596   -3.7760   21.2800 C.3     1  UNL1        0.0752
     22 C           6.7971   -2.5274   20.4511 C.3     1  UNL1        0.2101
     23 O           5.9252   -2.4796   19.2314 O.3     1  UNL1       -0.4754
     24 C           4.6350   -1.7151   19.2612 C.ar    1  UNL1        0.1345
     25 C           3.5945   -2.0398   20.2917 C.ar    1  UNL1        0.0366
     26 C           2.3043   -1.2753   20.3215 C.ar    1  UNL1        0.0042
     27 C           2.0546   -0.1861   19.3208 C.ar    1  UNL1        0.0139
     28 C           3.0951    0.1386   18.2904 C.ar    1  UNL1       -0.0001
     29 C           4.3854   -0.6259   18.2606 C.ar    1  UNL1        0.0121
     30 C           5.4259   -0.3013   17.2301 C.3     1  UNL1        0.0342
     31 C           0.7644    0.5784   19.3507 C.2     1  UNL1        0.0729
     32 O           0.4134    1.5015   18.2217 O.co2   1  UNL1       -0.5446
     33 O          -0.1748    0.4198   20.5095 O.co2   1  UNL1       -0.5446
@<TRIPOS>UNITY_ATOM_ATTR
32 1
charge -1
@<TRIPOS>BOND
     1    19    20    1
     2    20     1    1
     3     1     2    1
     4     2     3   ar
     5     3     4   ar
     6     4     5   ar
     7     5    21    1
     8    21    22    1
     9    22    23    1
    10    23    24    1
    11    24    25   ar
    12    25    26   ar
    13    26    27   ar
    14    27    31    1
    15    31    32   ar
    16    31    33   ar
    17    27    28   ar
    18    28    29   ar
    19    29    30    1
    20     5     6   ar
    21     6     7   ar
    22     7     8    1
    23     8     9    2
    24     8    10   am
    25    10    11    1
    26    10    12    1
    27    12    13   ar
    28    13    14   ar
    29    14    15   ar
    30    15    16    1
    31    15    17   ar
    32    17    18   ar
    33    18     1    1
    34     7     2   ar
    35    18    12   ar
    36    29    24   ar
@<TRIPOS>MOLECULE
*****
 33 36 0 0 0
SMALL
GASTEIGER

@<TRIPOS>ATOM
      1 N           7.9655   -4.7844   24.5296 N.pl3   1  UNL1       -0.2567
      2 C           7.6039   -3.9092   23.3663 C.ar    1  UNL1        0.1408
      3 N           8.2857   -4.3600   22.1086 N.ar    1  UNL1       -0.2290
      4 C           8.0585   -3.6180   20.8250 C.ar    1  UNL1        0.0961
      5 C           7.1494   -2.4251   20.7991 C.ar    1  UNL1        0.0010
      6 C           6.4676   -1.9743   22.0568 C.ar    1  UNL1        0.0047
      7 C           6.6948   -2.7164   23.3404 C.ar    1  UNL1        0.0855
      8 C           5.9229   -2.1041   24.4714 C.2     1  UNL1        0.2556
      9 O           5.0950   -0.9038   24.1197 O.2     1  UNL1       -0.2695
     10 N           5.8692   -2.5334   25.9077 N.am    1  UNL1       -0.2508
     11 C           4.9949   -1.7057   26.8022 C.3     1  UNL1        0.1204
     12 C           6.5745   -3.6812   26.5676 C.ar    1  UNL1        0.0864
     13 C           6.2448   -3.7597   28.0288 C.ar    1  UNL1        0.0217
     14 C           6.8482   -4.8400   28.8768 C.ar    1  UNL1        0.0510
     15 C           7.7811   -5.8417   28.2635 C.ar    1  UNL1        0.2235
     16 F           8.3844   -6.9220   29.1114 F       1  UNL1       -0.1832
     17 N           8.1107   -5.7632   26.8023 N.ar    1  UNL1       -0.2014
     18 C           7.5074   -4.6830   25.9543 C.ar    1  UNL1        0.1526
     19 C           8.3740   -7.2730   23.9051 C.3     1  UNL1        0.0237
     20 C           8.9102   -5.9099   24.2284 C.3     1  UNL1        0.0984
     21 C           6.9221   -1.6831   19.5154 C.3     1  UNL1        0.0752
     22 C           6.7232   -2.4408   18.2362 C.3     1  UNL1        0.2101
     23 O           5.3710   -2.4759   17.5877 O.3     1  UNL1       -0.4754
     24 C           4.2456   -1.6630   18.1555 C.ar    1  UNL1        0.1345
     25 C           3.9212   -0.3201   17.5712 C.ar    1  UNL1        0.0366
     26 C           2.7958    0.4929   18.1390 C.ar    1  UNL1        0.0042
     27 C           1.9947   -0.0370   19.2912 C.ar    1  UNL1        0.0139
     28 C           2.3191   -1.3799   19.8756 C.ar    1  UNL1       -0.0001
     29 C           3.4446   -2.1929   19.3077 C.ar    1  UNL1        0.0121
     30 C           3.7690   -3.5358   19.8920 C.3     1  UNL1        0.0342
     31 C           0.8692    0.7759   19.8591 C.2     1  UNL1        0.0729
     32 O          -0.1985    0.1108   20.6760 O.co2   1  UNL1       -0.5446
     33 O           0.8116    2.2540   19.6099 O.co2   1  UNL1       -0.5446
@<TRIPOS>UNITY_ATOM_ATTR
32 1
charge -1
@<TRIPOS>BOND
     1    19    20    1
     2    20     1    1
     3     1     2    1
     4     2     3   ar
     5     3     4   ar
     6     4     5   ar
     7     5    21    1
     8    21    22    1
     9    22    23    1
    10    23    24    1
    11    24    25   ar
    12    25    26   ar
    13    26    27   ar
    14    27    31    1
    15    31    32   ar
    16    31    33   ar
    17    27    28   ar
    18    28    29   ar
    19    29    30    1
    20     5     6   ar
    21     6     7   ar
    22     7     8    1
    23     8     9    2
    24     8    10   am
    25    10    11    1
    26    10    12    1
    27    12    13   ar
    28    13    14   ar
    29    14    15   ar
    30    15    16    1
    31    15    17   ar
    32    17    18   ar
    33    18     1    1
    34     7     2   ar
    35    18    12   ar
    36    29    24   ar
@<TRIPOS>MOLECULE
*****
 33 36 0 0 0
SMALL
GASTEIGER

@<TRIPOS>ATOM
      1 N           8.1055   -5.6509   27.4316 N.pl3   1  UNL1       -0.2567
      2 C           7.9291   -4.9266   26.1300 C.ar    1  UNL1        0.1408
      3 N           8.5179   -5.7006   24.9880 N.ar    1  UNL1       -0.2290
      4 C           8.4480   -5.1506   23.5942 C.ar    1  UNL1        0.0961
      5 C           7.7894   -3.8266   23.3425 C.ar    1  UNL1        0.0010
      6 C           7.2006   -3.0527   24.4845 C.ar    1  UNL1        0.0047
      7 C           7.2704   -3.6027   25.8783 C.ar    1  UNL1        0.0855
      8 C           6.6255   -2.6761   26.8660 C.2     1  UNL1        0.2556
      9 O           6.0501   -1.4141   26.2948 O.2     1  UNL1       -0.2695
     10 N           6.4800   -2.8446   28.3494 N.am    1  UNL1       -0.2508
     11 C           5.7782   -1.7289   29.0654 C.3     1  UNL1        0.1204
     12 C           6.9434   -3.9813   29.2114 C.ar    1  UNL1        0.0864
     13 C           6.5954   -3.7534   30.6526 C.ar    1  UNL1        0.0217
     14 C           6.9709   -4.7745   31.6853 C.ar    1  UNL1        0.0510
     15 C           7.6942   -6.0234   31.2769 C.ar    1  UNL1        0.2235
     16 F           8.0697   -7.0445   32.3096 F       1  UNL1       -0.1832
     17 N           8.0422   -6.2513   29.8358 N.ar    1  UNL1       -0.2014
     18 C           7.6668   -5.2303   28.8030 C.ar    1  UNL1        0.1526
     19 C           8.0300   -8.2314   27.1387 C.3     1  UNL1        0.0237
     20 C           8.8143   -6.9705   27.3513 C.3     1  UNL1        0.0984
     21 C           7.7195   -3.2767   21.9486 C.3     1  UNL1        0.0752
     22 C           6.8188   -3.9165   20.9342 C.3     1  UNL1        0.2101
     23 O           5.3793   -4.1760   21.2670 O.3     1  UNL1       -0.4754
     24 C           4.3925   -3.0463   21.2601 C.ar    1  UNL1        0.1345
     25 C           4.1473   -2.2571   22.5119 C.ar    1  UNL1        0.0366
     26 C           3.1605   -1.1274   22.5050 C.ar    1  UNL1        0.0042
     27 C           2.4189   -0.7869   21.2463 C.ar    1  UNL1        0.0139
     28 C           2.6642   -1.5761   19.9946 C.ar    1  UNL1       -0.0001
     29 C           3.6510   -2.7059   20.0015 C.ar    1  UNL1        0.0121
     30 C           3.8963   -3.4951   18.7497 C.3     1  UNL1        0.0342
     31 C           1.4322    0.3428   21.2395 C.2     1  UNL1        0.0729
     32 O           1.8415    1.6991   21.7322 O.co2   1  UNL1       -0.5446
     33 O           0.0361    0.1161   20.7400 O.co2   1  UNL1       -0.5446
@<TRIPOS>UNITY_ATOM_ATTR
32 1
charge -1
@<TRIPOS>BOND
     1    19    20    1
     2    20     1    1
     3     1     2    1
     4     2     3   ar
     5     3     4   ar
     6     4     5   ar
     7     5    21    1
     8    21    22    1
     9    22    23    1
    10    23    24    1
    11    24    25   ar
    12    25    26   ar
    13    26    27   ar
    14    27    31    1
    15    31    32   ar
    16    31    33   ar
    17    27    28   ar
    18    28    29   ar
    19    29    30    1
    20     5     6   ar
    21     6     7   ar
    22     7     8    1
    23     8     9    2
    24     8    10   am
    25    10    11    1
    26    10    12    1
    27    12    13   ar
    28    13    14   ar
    29    14    15   ar
    30    15    16    1
    31    15    17   ar
    32    17    18   ar
    33    18     1    1
    34     7     2   ar
    35    18    12   ar
    36    29    24   ar
@<TRIPOS>MOLECULE
*****
 33 36 0 0 0
SMALL
GASTEIGER

@<TRIPOS>ATOM
      1 N           8.3900   -6.5556   27.3289 N.pl3   1  UNL1       -0.2567
      2 C           8.3203   -6.1055   25.8997 C.ar    1  UNL1        0.1408
      3 N           8.9662   -7.0991   24.9801 N.ar    1  UNL1       -0.2290
      4 C           9.0047   -6.8395   23.5033 C.ar    1  UNL1        0.0961
      5 C           8.3975   -5.5862   22.9460 C.ar    1  UNL1        0.0010
      6 C           7.7516   -4.5926   23.8656 C.ar    1  UNL1        0.0047
      7 C           7.7131   -4.8523   25.3424 C.ar    1  UNL1        0.0855
      8 C           7.0255   -3.7396   26.0767 C.2     1  UNL1        0.2556
      9 O           6.5214   -2.6120   25.2255 O.2     1  UNL1       -0.2695
     10 N           6.7754   -3.6052   27.5496 N.am    1  UNL1       -0.2508
     11 C           6.0543   -2.3612   27.9765 C.3     1  UNL1        0.1204
     12 C           7.1511   -4.5506   28.6520 C.ar    1  UNL1        0.0864
     13 C           6.7116   -4.0343   29.9901 C.ar    1  UNL1        0.0217
     14 C           6.9908   -4.8312   31.2299 C.ar    1  UNL1        0.0510
     15 C           7.7093   -6.1441   31.1317 C.ar    1  UNL1        0.2235
     16 F           7.9885   -6.9410   32.3715 F       1  UNL1       -0.1832
     17 N           8.1488   -6.6604   29.7937 N.ar    1  UNL1       -0.2014
     18 C           7.8696   -5.8636   28.5538 C.ar    1  UNL1        0.1526
     19 C           8.2703   -9.1409   27.5575 C.3     1  UNL1        0.0237
     20 C           9.0700   -7.8717   27.5643 C.3     1  UNL1        0.0984
     21 C           8.4361   -5.3266   21.4691 C.3     1  UNL1        0.0752
     22 C           7.6017   -4.2288   20.8786 C.3     1  UNL1        0.2101
     23 O           6.2113   -4.5200   20.3967 O.3     1  UNL1       -0.4754
     24 C           5.2897   -3.3917   20.0397 C.ar    1  UNL1        0.1345
     25 C           5.2409   -2.8805   18.6303 C.ar    1  UNL1        0.0366
     26 C           4.3192   -1.7522   18.2733 C.ar    1  UNL1        0.0042
     27 C           3.4463   -1.1351   19.3256 C.ar    1  UNL1        0.0139
     28 C           3.4952   -1.6463   20.7350 C.ar    1  UNL1       -0.0001
     29 C           4.4169   -2.7746   21.0920 C.ar    1  UNL1        0.0121
     30 C           4.4657   -3.2858   22.5013 C.3     1  UNL1        0.0342
     31 C           2.5247   -0.0068   18.9686 C.2     1  UNL1        0.0729
     32 O           1.0558   -0.1207   19.2498 O.co2   1  UNL1       -0.5446
     33 O           3.0720    1.2354   18.3302 O.co2   1  UNL1       -0.5446
@<TRIPOS>UNITY_ATOM_ATTR
32 1
charge -1
@<TRIPOS>BOND
     1    19    20    1
     2    20     1    1
     3     1     2    1
     4     2     3   ar
     5     3     4   ar
     6     4     5   ar
     7     5    21    1
     8    21    22    1
     9    22    23    1
    10    23    24    1
    11    24    25   ar
    12    25    26   ar
    13    26    27   ar
    14    27    31    1
    15    31    32   ar
    16    31    33   ar
    17    27    28   ar
    18    28    29   ar
    19    29    30    1
    20     5     6   ar
    21     6     7   ar
    22     7     8    1
    23     8     9    2
    24     8    10   am
    25    10    11    1
    26    10    12    1
    27    12    13   ar
    28    13    14   ar
    29    14    15   ar
    30    15    16    1
    31    15    17   ar
    32    17    18   ar
    33    18     1    1
    34     7     2   ar
    35    18    12   ar
    36    29    24   ar
@<TRIPOS>MOLECULE
*****
 33 36 0 0 0
SMALL
GASTEIGER

@<TRIPOS>ATOM
      1 N           4.6691   -2.3357   23.8705 N.pl3   1  UNL1       -0.2567
      2 C           4.4031   -1.6430   25.1742 C.ar    1  UNL1        0.1408
      3 N           5.2294   -2.2249   26.2825 N.ar    1  UNL1       -0.2290
      4 C           5.1142   -1.6737   27.6728 C.ar    1  UNL1        0.0961
      5 C           4.1726   -0.5406   27.9547 C.ar    1  UNL1        0.0010
      6 C           3.3462    0.0413   26.8463 C.ar    1  UNL1        0.0047
      7 C           3.4615   -0.5099   25.4561 C.ar    1  UNL1        0.0855
      8 C           2.5534    0.2104   24.5039 C.2     1  UNL1        0.2556
      9 O           1.7268    1.3111   25.0997 O.2     1  UNL1       -0.2695
     10 N           2.3626   -0.0245   23.0347 N.am    1  UNL1       -0.2508
     11 C           1.3705    0.8724   22.3557 C.3     1  UNL1        0.1204
     12 C           3.0328   -1.0377   22.1549 C.ar    1  UNL1        0.0864
     13 C           2.5530   -0.9354   20.7374 C.ar    1  UNL1        0.0217
     14 C           3.0997   -1.8616   19.6918 C.ar    1  UNL1        0.0510
     15 C           4.1262   -2.8902   20.0637 C.ar    1  UNL1        0.2235
     16 F           4.6729   -3.8165   19.0182 F       1  UNL1       -0.1832
     17 N           4.6060   -2.9925   21.4812 N.ar    1  UNL1       -0.2014
     18 C           4.0593   -2.0663   22.5268 C.ar    1  UNL1        0.1526
     19 C           7.1303   -3.1469   23.6848 C.3     1  UNL1        0.0237
     20 C           5.6785   -3.4443   23.9167 C.3     1  UNL1        0.0984
     21 C           4.0574    0.0106   29.3450 C.3     1  UNL1        0.0752
     22 C           3.0827   -0.5925   30.3125 C.3     1  UNL1        0.2101
     23 O           1.8435    0.1607   30.6964 O.3     1  UNL1       -0.4754
     24 C           0.9989    0.8047   29.6373 C.ar    1  UNL1        0.1345
     25 C           0.0462   -0.0260   28.8297 C.ar    1  UNL1        0.0366
     26 C          -0.7984    0.6181   27.7706 C.ar    1  UNL1        0.0042
     27 C          -0.6902    2.0929   27.5189 C.ar    1  UNL1        0.0139
     28 C           0.2626    2.9236   28.3265 C.ar    1  UNL1       -0.0001
     29 C           1.1072    2.2795   29.3857 C.ar    1  UNL1        0.0121
     30 C           2.0600    3.1102   30.1932 C.3     1  UNL1        0.0342
     31 C          -1.5348    2.7370   26.4598 C.2     1  UNL1        0.0729
     32 O          -2.7842    3.4737   26.8420 O.co2   1  UNL1       -0.5446
     33 O          -1.1300    2.6443   25.0184 O.co2   1  UNL1       -0.5446
@<TRIPOS>UNITY_ATOM_ATTR
32 1
charge -1
@<TRIPOS>BOND
     1    19    20    1
     2    20     1    1
     3     1     2    1
     4     2     3   ar
     5     3     4   ar
     6     4     5   ar
     7     5    21    1
     8    21    22    1
     9    22    23    1
    10    23    24    1
    11    24    25   ar
    12    25    26   ar
    13    26    27   ar
    14    27    31    1
    15    31    32   ar
    16    31    33   ar
    17    27    28   ar
    18    28    29   ar
    19    29    30    1
    20     5     6   ar
    21     6     7   ar
    22     7     8    1
    23     8     9    2
    24     8    10   am
    25    10    11    1
    26    10    12    1
    27    12    13   ar
    28    13    14   ar
    29    14    15   ar
    30    15    16    1
    31    15    17   ar
    32    17    18   ar
    33    18     1    1
    34     7     2   ar
    35    18    12   ar
    36    29    24   ar
@<TRIPOS>MOLECULE
*****
 33 36 0 0 0
SMALL
GASTEIGER

@<TRIPOS>ATOM
      1 N           1.1768    0.3313   20.9581 N.pl3   1  UNL1       -0.2567
      2 C           2.2557   -0.6730   21.2364 C.ar    1  UNL1        0.1408
      3 N           2.6308   -1.4318   19.9980 N.ar    1  UNL1       -0.2290
      4 C           3.6946   -2.4875   20.0587 C.ar    1  UNL1        0.0961
      5 C           4.3833   -2.7844   21.3577 C.ar    1  UNL1        0.0010
      6 C           4.0083   -2.0256   22.5961 C.ar    1  UNL1        0.0047
      7 C           2.9445   -0.9699   22.5354 C.ar    1  UNL1        0.0855
      8 C           2.7244   -0.3359   23.8769 C.2     1  UNL1        0.2556
      9 O           3.5808   -0.8585   24.9920 O.2     1  UNL1       -0.2695
     10 N           1.7612    0.7515   24.2508 N.am    1  UNL1       -0.2508
     11 C           1.7818    1.1726   25.6903 C.3     1  UNL1        0.1204
     12 C           0.7802    1.4736   23.3754 C.ar    1  UNL1        0.0864
     13 C           0.0033    2.4961   24.1505 C.ar    1  UNL1        0.0217
     14 C          -1.0338    3.3316   23.4602 C.ar    1  UNL1        0.0510
     15 C          -1.2939    3.1446   21.9949 C.ar    1  UNL1        0.2235
     16 F          -2.3310    3.9800   21.3045 F       1  UNL1       -0.1832
     17 N          -0.5170    2.1221   21.2198 N.ar    1  UNL1       -0.2014
     18 C           0.5201    1.2866   21.9100 C.ar    1  UNL1        0.1526
     19 C           1.3365    1.3232   18.5621 C.3     1  UNL1        0.0237
     20 C           0.6901    0.3876   19.5403 C.3     1  UNL1        0.0984
     21 C           5.4472   -3.8402   21.4183 C.3     1  UNL1        0.0752
     22 C           6.8694   -3.4913   21.0936 C.3     1  UNL1        0.2101
     23 O           7.9137   -3.5217   22.1701 O.3     1  UNL1       -0.4754
     24 C           7.8737   -4.5884   23.2239 C.ar    1  UNL1        0.1345
     25 C           8.4188   -5.9544   22.9294 C.ar    1  UNL1        0.0366
     26 C           8.3788   -7.0211   23.9832 C.ar    1  UNL1        0.0042
     27 C           7.7936   -6.7218   25.3316 C.ar    1  UNL1        0.0139
     28 C           7.2486   -5.3557   25.6261 C.ar    1  UNL1       -0.0001
     29 C           7.2886   -4.2890   24.5722 C.ar    1  UNL1        0.0121
     30 C           6.7435   -2.9229   24.8667 C.3     1  UNL1        0.0342
     31 C           7.7536   -7.7885   26.3854 C.2     1  UNL1        0.0729
     32 O           8.8292   -7.8524   27.4290 O.co2   1  UNL1       -0.5446
     33 O           6.6381   -8.7912   26.3956 O.co2   1  UNL1       -0.5446
@<TRIPOS>UNITY_ATOM_ATTR
32 1
charge -1
@<TRIPOS>BOND
     1    19    20    1
     2    20     1    1
     3     1     2    1
     4     2     3   ar
     5     3     4   ar
     6     4     5   ar
     7     5    21    1
     8    21    22    1
     9    22    23    1
    10    23    24    1
    11    24    25   ar
    12    25    26   ar
    13    26    27   ar
    14    27    31    1
    15    31    32   ar
    16    31    33   ar
    17    27    28   ar
    18    28    29   ar
    19    29    30    1
    20     5     6   ar
    21     6     7   ar
    22     7     8    1
    23     8     9    2
    24     8    10   am
    25    10    11    1
    26    10    12    1
    27    12    13   ar
    28    13    14   ar
    29    14    15   ar
    30    15    16    1
    31    15    17   ar
    32    17    18   ar
    33    18     1    1
    34     7     2   ar
    35    18    12   ar
    36    29    24   ar
