@<TRIPOS>MOLECULE
*****
 36 40 0 0 0
SMALL
GASTEIGER

@<TRIPOS>ATOM
      1 C           5.5282   -0.9375   34.5985 C.ar    1  UNL1       -0.0025
      2 C           6.8813   -0.8145   33.9629 C.ar    1  UNL1       -0.0014
      3 C           7.1912   -1.5718   32.7058 C.ar    1  UNL1        0.0142
      4 C           6.1479   -2.4522   32.0841 C.ar    1  UNL1        0.0478
      5 C           4.7949   -2.5753   32.7197 C.ar    1  UNL1        0.0142
      6 C           4.4850   -1.8180   33.9768 C.ar    1  UNL1       -0.0014
      7 N           6.4578   -3.2096   30.8270 N.pl3   1  UNL1       -0.3075
      8 C           6.3835   -2.5187   29.4977 C.3     1  UNL1        0.0911
      9 C           6.6934   -3.2760   28.2405 C.3     1  UNL1        0.0258
     10 C           7.0776   -4.7242   28.3127 C.3     1  UNL1        0.0257
     11 C           7.1518   -5.4151   29.6421 C.3     1  UNL1        0.0258
     12 C           6.8420   -4.6578   30.8992 C.3     1  UNL1        0.0911
     13 C           7.3874   -5.4815   27.0556 C.ar    1  UNL1       -0.0222
     14 C           7.4440   -4.7616   25.7409 C.ar    1  UNL1       -0.0020
     15 C           7.7539   -5.5189   24.4837 C.ar    1  UNL1        0.0293
     16 C           8.0072   -6.9963   24.5413 C.ar    1  UNL1        0.1401
     17 F           8.3171   -7.7536   23.2841 F       1  UNL1       -0.2042
     18 C           7.9506   -7.7162   25.8559 C.ar    1  UNL1        0.0293
     19 C           7.6407   -6.9589   27.1131 C.ar    1  UNL1       -0.0020
     20 C           5.2184   -0.1802   35.8556 C.3     1  UNL1        0.1166
     21 C           3.9702    1.7856   37.0079 C.2     1  UNL1        0.2635
     22 O           4.9808    1.7774   38.1165 O.2     1  UNL1       -0.2685
     23 N           4.0890    0.8068   35.8776 N.am    1  UNL1       -0.2957
     24 H           3.4258    0.8122   35.1500 H       1  UNL1        0.1501
     25 C           1.7589    2.8515   38.0658 C.ar    1  UNL1        0.0811
     26 N           0.8447    3.9816   37.6958 N.ar    1  UNL1       -0.2306
     27 C           1.3615    4.6012   36.4313 C.ar    1  UNL1        0.1475
     28 C           0.8682    5.7491   35.6015 C.ar    1  UNL1        0.0383
     29 C           1.6085    6.1499   34.3601 C.ar    1  UNL1        0.0160
     30 C           2.8423    5.4026   33.9484 C.ar    1  UNL1        0.0753
     31 CL          3.5827    5.8034   32.7069 Cl      1  UNL1       -0.0807
     32 C           3.3357    4.2546   34.7783 C.ar    1  UNL1        0.0929
     33 N           2.5953    3.8539   36.0197 N.ar    1  UNL1       -0.2845
     34 C           2.8409    2.7726   37.0299 C.ar    1  UNL1        0.1326
     35 C           0.9715    0.6106   39.1185 C.3     1  UNL1        0.0067
     36 C           1.6163    1.9573   39.2616 C.3     1  UNL1        0.0475
@<TRIPOS>BOND
     1    35    36    1
     2    36    25    1
     3    25    26   ar
     4    26    27   ar
     5    27    28   ar
     6    28    29   ar
     7    29    30   ar
     8    30    31    1
     9    30    32   ar
    10    32    33   ar
    11    33    34   ar
    12    34    21    1
    13    21    22    2
    14    21    23   am
    15    23    20    1
    16    20     1    1
    17     1     2   ar
    18     2     3   ar
    19     3     4   ar
    20     4     7    1
    21     7     8    1
    22     8     9    1
    23     9    10    1
    24    10    13    1
    25    13    14   ar
    26    14    15   ar
    27    15    16   ar
    28    16    17    1
    29    16    18   ar
    30    18    19   ar
    31    10    11    1
    32    11    12    1
    33     4     5   ar
    34     5     6   ar
    35    34    25   ar
    36     6     1   ar
    37    33    27   ar
    38    12     7    1
    39    19    13   ar
    40    23    24    1
@<TRIPOS>MOLECULE
*****
 36 40 0 0 0
SMALL
GASTEIGER

@<TRIPOS>ATOM
      1 C           0.8941    2.8550   30.2790 C.ar    1  UNL1       -0.0025
      2 C           1.5362    1.5004   30.3323 C.ar    1  UNL1       -0.0014
      3 C           1.9403    0.8114   29.0627 C.ar    1  UNL1        0.0142
      4 C           1.7023    1.4770   27.7397 C.ar    1  UNL1        0.0478
      5 C           1.0603    2.8316   27.6864 C.ar    1  UNL1        0.0142
      6 C           0.6562    3.5206   28.9560 C.ar    1  UNL1       -0.0014
      7 N           2.1065    0.7881   26.4700 N.pl3   1  UNL1       -0.3075
      8 C           3.1826   -0.2566   26.4934 C.3     1  UNL1        0.0911
      9 C           3.5867   -0.9455   25.2237 C.3     1  UNL1        0.0258
     10 C           2.9147   -0.5899   23.9307 C.3     1  UNL1        0.0257
     11 C           1.8385    0.4548   23.9074 C.3     1  UNL1        0.0258
     12 C           1.4344    1.1438   25.1770 C.3     1  UNL1        0.0911
     13 C           3.3188   -1.2788   22.6611 C.ar    1  UNL1       -0.0222
     14 C           2.7221   -0.8513   21.3530 C.ar    1  UNL1       -0.0020
     15 C           3.1262   -1.5403   20.0834 C.ar    1  UNL1        0.0293
     16 C           4.1271   -2.6569   20.1218 C.ar    1  UNL1        0.1401
     17 F           4.5312   -3.3458   18.8522 F       1  UNL1       -0.2042
     18 C           4.7238   -3.0844   21.4299 C.ar    1  UNL1        0.0293
     19 C           4.3197   -2.3954   22.6995 C.ar    1  UNL1       -0.0020
     20 C           0.4900    3.5439   31.5487 C.3     1  UNL1        0.1166
     21 C           1.9509    3.7255   33.6894 C.2     1  UNL1        0.2635
     22 O           2.5363    5.0097   33.1809 O.2     1  UNL1       -0.2685
     23 N           0.9279    2.9927   32.8732 N.am    1  UNL1       -0.2957
     24 H           0.5437    2.1499   33.2069 H       1  UNL1        0.1501
     25 C           2.0528    3.7437   36.3604 C.ar    1  UNL1        0.0811
     26 N           2.6959    2.8782   37.4032 N.ar    1  UNL1       -0.2306
     27 C           3.4293    1.7739   36.7012 C.ar    1  UNL1        0.1475
     28 C           4.2454    0.6254   37.2158 C.ar    1  UNL1        0.0383
     29 C           4.8717   -0.3400   36.2538 C.ar    1  UNL1        0.0160
     30 C           4.6819   -0.1570   34.7771 C.ar    1  UNL1        0.0753
     31 CL          5.3083   -1.1226   33.8151 Cl      1  UNL1       -0.0807
     32 C           3.8658    0.9915   34.2625 C.ar    1  UNL1        0.0929
     33 N           3.2395    1.9569   35.2246 N.ar    1  UNL1       -0.2845
     34 C           2.3888    3.1743   35.0139 C.ar    1  UNL1        0.1326
     35 C           1.8136    6.3296   36.4364 C.3     1  UNL1        0.0067
     36 C           1.2200    4.9642   36.6187 C.3     1  UNL1        0.0475
@<TRIPOS>BOND
     1    35    36    1
     2    36    25    1
     3    25    26   ar
     4    26    27   ar
     5    27    28   ar
     6    28    29   ar
     7    29    30   ar
     8    30    31    1
     9    30    32   ar
    10    32    33   ar
    11    33    34   ar
    12    34    21    1
    13    21    22    2
    14    21    23   am
    15    23    20    1
    16    20     1    1
    17     1     2   ar
    18     2     3   ar
    19     3     4   ar
    20     4     7    1
    21     7     8    1
    22     8     9    1
    23     9    10    1
    24    10    13    1
    25    13    14   ar
    26    14    15   ar
    27    15    16   ar
    28    16    17    1
    29    16    18   ar
    30    18    19   ar
    31    10    11    1
    32    11    12    1
    33     4     5   ar
    34     5     6   ar
    35    34    25   ar
    36     6     1   ar
    37    33    27   ar
    38    12     7    1
    39    19    13   ar
    40    23    24    1
@<TRIPOS>MOLECULE
*****
 36 40 0 0 0
SMALL
GASTEIGER

@<TRIPOS>ATOM
      1 C           0.9829    1.1002   24.6295 C.ar    1  UNL1       -0.0025
      2 C           0.0028    1.4374   25.7138 C.ar    1  UNL1       -0.0014
      3 C           0.4183    1.3547   27.1527 C.ar    1  UNL1        0.0142
      4 C           1.8140    0.9348   27.5074 C.ar    1  UNL1        0.0478
      5 C           2.7941    0.5976   26.4232 C.ar    1  UNL1        0.0142
      6 C           2.3786    0.6803   24.9842 C.ar    1  UNL1       -0.0014
      7 N           2.2295    0.8521   28.9463 N.pl3   1  UNL1       -0.3075
      8 C           2.4822   -0.4846   29.5783 C.3     1  UNL1        0.0911
      9 C           2.8977   -0.5673   31.0173 C.3     1  UNL1        0.0258
     10 C           3.0605    0.6867   31.8242 C.3     1  UNL1        0.0257
     11 C           2.8077    2.0233   31.1922 C.3     1  UNL1        0.0258
     12 C           2.3922    2.1060   29.7533 C.3     1  UNL1        0.0911
     13 C           3.4760    0.6040   33.2631 C.ar    1  UNL1       -0.0222
     14 C           4.2455   -0.5862   33.7544 C.ar    1  UNL1       -0.0020
     15 C           4.6609   -0.6689   35.1933 C.ar    1  UNL1        0.0293
     16 C           4.3069    0.4386   36.1410 C.ar    1  UNL1        0.1401
     17 F           4.7224    0.3559   37.5800 F       1  UNL1       -0.2042
     18 C           3.5374    1.6287   35.6498 C.ar    1  UNL1        0.0293
     19 C           3.1219    1.7114   34.2108 C.ar    1  UNL1       -0.0020
     20 C           0.5674    1.1830   23.1906 C.3     1  UNL1        0.1166
     21 C           1.2042    0.5175   20.7613 C.2     1  UNL1        0.2635
     22 O          -0.2140    0.1024   20.5033 O.2     1  UNL1       -0.2685
     23 N           1.5949    1.0578   22.1049 N.am    1  UNL1       -0.2957
     24 H           2.5256    1.3303   22.2742 H       1  UNL1        0.1501
     25 C           2.6550    1.4795   18.7328 C.ar    1  UNL1        0.0811
     26 N           3.7011    0.9171   17.8166 N.ar    1  UNL1       -0.2306
     27 C           3.9243   -0.5176   18.1932 C.ar    1  UNL1        0.1475
     28 C           4.8371   -1.5706   17.6383 C.ar    1  UNL1        0.0383
     29 C           4.8417   -2.9479   18.2324 C.ar    1  UNL1        0.0160
     30 C           3.9335   -3.2722   19.3813 C.ar    1  UNL1        0.0753
     31 CL          3.9382   -4.6496   19.9754 Cl      1  UNL1       -0.0807
     32 C           3.0207   -2.2192   19.9362 C.ar    1  UNL1        0.0929
     33 N           3.0161   -0.8419   19.3421 N.ar    1  UNL1       -0.2845
     34 C           2.2317    0.3924   19.6756 C.ar    1  UNL1        0.1326
     35 C           0.7288    3.1496   18.2320 C.3     1  UNL1        0.0067
     36 C           2.1253    2.8827   18.7101 C.3     1  UNL1        0.0475
@<TRIPOS>BOND
     1    35    36    1
     2    36    25    1
     3    25    26   ar
     4    26    27   ar
     5    27    28   ar
     6    28    29   ar
     7    29    30   ar
     8    30    31    1
     9    30    32   ar
    10    32    33   ar
    11    33    34   ar
    12    34    21    1
    13    21    22    2
    14    21    23   am
    15    23    20    1
    16    20     1    1
    17     1     2   ar
    18     2     3   ar
    19     3     4   ar
    20     4     7    1
    21     7     8    1
    22     8     9    1
    23     9    10    1
    24    10    13    1
    25    13    14   ar
    26    14    15   ar
    27    15    16   ar
    28    16    17    1
    29    16    18   ar
    30    18    19   ar
    31    10    11    1
    32    11    12    1
    33     4     5   ar
    34     5     6   ar
    35    34    25   ar
    36     6     1   ar
    37    33    27   ar
    38    12     7    1
    39    19    13   ar
    40    23    24    1
@<TRIPOS>MOLECULE
*****
 36 40 0 0 0
SMALL
GASTEIGER

@<TRIPOS>ATOM
      1 C           5.3465   -0.8811   34.7071 C.ar    1  UNL1       -0.0025
      2 C           6.7094   -0.7625   34.0921 C.ar    1  UNL1       -0.0014
      3 C           7.0396   -1.5303   32.8465 C.ar    1  UNL1        0.0142
      4 C           6.0068   -2.4168   32.2159 C.ar    1  UNL1        0.0478
      5 C           4.6439   -2.5353   32.8310 C.ar    1  UNL1        0.0142
      6 C           4.3137   -1.7675   34.0766 C.ar    1  UNL1       -0.0014
      7 N           6.3370   -3.1846   30.9704 N.pl3   1  UNL1       -0.3075
      8 C           6.8089   -4.6050   31.0679 C.3     1  UNL1        0.0911
      9 C           7.1391   -5.3728   29.8223 C.3     1  UNL1        0.0258
     10 C           6.9973   -4.7201   28.4792 C.3     1  UNL1        0.0257
     11 C           6.5253   -3.2997   28.3817 C.3     1  UNL1        0.0258
     12 C           6.1952   -2.5319   29.6273 C.3     1  UNL1        0.0911
     13 C           7.3275   -5.4879   27.2336 C.ar    1  UNL1       -0.0222
     14 C           7.6571   -6.9488   27.3183 C.ar    1  UNL1       -0.0020
     15 C           7.9873   -7.7166   26.0727 C.ar    1  UNL1        0.0293
     16 C           7.9878   -7.0235   24.7424 C.ar    1  UNL1        0.1401
     17 F           8.3180   -7.7913   23.4968 F       1  UNL1       -0.2042
     18 C           7.6582   -5.5627   24.6578 C.ar    1  UNL1        0.0293
     19 C           7.3280   -4.7949   25.9034 C.ar    1  UNL1       -0.0020
     20 C           5.0163   -0.1133   35.9527 C.3     1  UNL1        0.1166
     21 C           4.2295    2.2875   35.3471 C.2     1  UNL1        0.2635
     22 O           5.5902    2.5942   34.7952 O.2     1  UNL1       -0.2685
     23 N           3.9426    0.9338   35.9259 N.am    1  UNL1       -0.2957
     24 H           3.0496    0.7325   36.2881 H       1  UNL1        0.1501
     25 C           2.9102    4.3729   36.3747 C.ar    1  UNL1        0.0811
     26 N           1.7418    5.2072   35.9403 N.ar    1  UNL1       -0.2306
     27 C           1.2653    4.6847   34.6174 C.ar    1  UNL1        0.1475
     28 C           0.1485    5.1132   33.7124 C.ar    1  UNL1        0.0383
     29 C          -0.0943    4.3843   32.4241 C.ar    1  UNL1        0.0160
     30 C           0.7796    3.2270   32.0408 C.ar    1  UNL1        0.0753
     31 CL          0.5367    2.4981   30.7525 Cl      1  UNL1       -0.0807
     32 C           1.8964    2.7985   32.9459 C.ar    1  UNL1        0.0929
     33 N           2.1392    3.5273   34.2342 N.ar    1  UNL1       -0.2845
     34 C           3.1558    3.3346   35.3203 C.ar    1  UNL1        0.1326
     35 C           3.2940    3.8020   38.8800 C.3     1  UNL1        0.0067
     36 C           3.6951    4.5463   37.6411 C.3     1  UNL1        0.0475
@<TRIPOS>BOND
     1    35    36    1
     2    36    25    1
     3    25    26   ar
     4    26    27   ar
     5    27    28   ar
     6    28    29   ar
     7    29    30   ar
     8    30    31    1
     9    30    32   ar
    10    32    33   ar
    11    33    34   ar
    12    34    21    1
    13    21    22    2
    14    21    23   am
    15    23    20    1
    16    20     1    1
    17     1     2   ar
    18     2     3   ar
    19     3     4   ar
    20     4     7    1
    21     7     8    1
    22     8     9    1
    23     9    10    1
    24    10    13    1
    25    13    14   ar
    26    14    15   ar
    27    15    16   ar
    28    16    17    1
    29    16    18   ar
    30    18    19   ar
    31    10    11    1
    32    11    12    1
    33     4     5   ar
    34     5     6   ar
    35    34    25   ar
    36     6     1   ar
    37    33    27   ar
    38    12     7    1
    39    19    13   ar
    40    23    24    1
@<TRIPOS>MOLECULE
*****
 36 40 0 0 0
SMALL
GASTEIGER

@<TRIPOS>ATOM
      1 C           6.5435   -3.8356   24.5171 C.ar    1  UNL1       -0.0025
      2 C           7.0488   -4.7231   25.6157 C.ar    1  UNL1       -0.0014
      3 C           6.9340   -4.2857   27.0459 C.ar    1  UNL1        0.0142
      4 C           6.3138   -2.9608   27.3775 C.ar    1  UNL1        0.0478
      5 C           5.8085   -2.0733   26.2789 C.ar    1  UNL1        0.0142
      6 C           5.9233   -2.5107   24.8487 C.ar    1  UNL1       -0.0014
      7 N           6.1989   -2.5234   28.8077 N.pl3   1  UNL1       -0.3075
      8 C           6.6780   -3.4233   29.9080 C.3     1  UNL1        0.0911
      9 C           6.5632   -2.9859   31.3382 C.3     1  UNL1        0.0258
     10 C           5.9692   -1.6486   31.6681 C.3     1  UNL1        0.0257
     11 C           5.4901   -0.7487   30.5678 C.3     1  UNL1        0.0258
     12 C           5.6049   -1.1861   29.1376 C.3     1  UNL1        0.0911
     13 C           5.8543   -1.2112   33.0983 C.ar    1  UNL1       -0.0222
     14 C           7.0350   -0.5999   33.7928 C.ar    1  UNL1       -0.0020
     15 C           6.9201   -0.1626   35.2230 C.ar    1  UNL1        0.0293
     16 C           5.6245   -0.3364   35.9588 C.ar    1  UNL1        0.1401
     17 F           5.5097    0.1010   37.3890 F       1  UNL1       -0.2042
     18 C           4.4439   -0.9476   35.2642 C.ar    1  UNL1        0.0293
     19 C           4.5587   -1.3850   33.8340 C.ar    1  UNL1       -0.0020
     20 C           6.6584   -4.2730   23.0869 C.3     1  UNL1        0.1166
     21 C           5.4151   -3.3972   20.9804 C.2     1  UNL1        0.2635
     22 O           4.4403   -4.5326   21.0838 O.2     1  UNL1       -0.2685
     23 N           6.5241   -3.2675   21.9819 N.am    1  UNL1       -0.2957
     24 H           7.1639   -2.5223   21.9141 H       1  UNL1        0.1501
     25 C           6.3217   -2.0707   18.8442 C.ar    1  UNL1        0.0811
     26 N           5.7662   -1.0112   17.9392 N.ar    1  UNL1       -0.2306
     27 C           4.3821   -0.6774   18.4112 C.ar    1  UNL1        0.1475
     28 C           3.3562    0.2932   17.9059 C.ar    1  UNL1        0.0383
     29 C           2.0302    0.4106   18.5973 C.ar    1  UNL1        0.0160
     30 C           1.7303   -0.4426   19.7940 C.ar    1  UNL1        0.0753
     31 CL          0.4042   -0.3252   20.4854 Cl      1  UNL1       -0.0807
     32 C           2.7562   -1.4132   20.2993 C.ar    1  UNL1        0.0929
     33 N           4.0821   -1.5306   19.6079 N.ar    1  UNL1       -0.2845
     34 C           5.2809   -2.3917   19.8755 C.ar    1  UNL1        0.1326
     35 C           8.8637   -2.0401   19.3801 C.3     1  UNL1        0.0067
     36 C           7.6796   -2.6988   18.7367 C.3     1  UNL1        0.0475
@<TRIPOS>BOND
     1    35    36    1
     2    36    25    1
     3    25    26   ar
     4    26    27   ar
     5    27    28   ar
     6    28    29   ar
     7    29    30   ar
     8    30    31    1
     9    30    32   ar
    10    32    33   ar
    11    33    34   ar
    12    34    21    1
    13    21    22    2
    14    21    23   am
    15    23    20    1
    16    20     1    1
    17     1     2   ar
    18     2     3   ar
    19     3     4   ar
    20     4     7    1
    21     7     8    1
    22     8     9    1
    23     9    10    1
    24    10    13    1
    25    13    14   ar
    26    14    15   ar
    27    15    16   ar
    28    16    17    1
    29    16    18   ar
    30    18    19   ar
    31    10    11    1
    32    11    12    1
    33     4     5   ar
    34     5     6   ar
    35    34    25   ar
    36     6     1   ar
    37    33    27   ar
    38    12     7    1
    39    19    13   ar
    40    23    24    1
@<TRIPOS>MOLECULE
*****
 36 40 0 0 0
SMALL
GASTEIGER

@<TRIPOS>ATOM
      1 C          -3.6322    4.2111   24.4581 C.ar    1  UNL1       -0.0025
      2 C          -4.0493    4.1723   25.8984 C.ar    1  UNL1       -0.0014
      3 C          -3.1233    3.6036   26.9324 C.ar    1  UNL1        0.0142
      4 C          -1.7801    3.0738   26.5262 C.ar    1  UNL1        0.0478
      5 C          -1.3630    3.1126   25.0859 C.ar    1  UNL1        0.0142
      6 C          -2.2889    3.6812   24.0519 C.ar    1  UNL1       -0.0014
      7 N          -0.8541    2.5051   27.5602 N.pl3   1  UNL1       -0.3075
      8 C           0.2361    3.3566   28.1401 C.3     1  UNL1        0.0911
      9 C           1.1621    2.7880   29.1741 C.3     1  UNL1        0.0258
     10 C           0.9978    1.3678   29.6282 C.3     1  UNL1        0.0257
     11 C          -0.0924    0.5163   29.0483 C.3     1  UNL1        0.0258
     12 C          -1.0184    1.0850   28.0143 C.3     1  UNL1        0.0911
     13 C           1.9238    0.7992   30.6622 C.ar    1  UNL1       -0.0222
     14 C           2.1414    1.5269   31.9556 C.ar    1  UNL1       -0.0020
     15 C           3.0674    0.9583   32.9896 C.ar    1  UNL1        0.0293
     16 C           3.7759   -0.3382   32.7302 C.ar    1  UNL1        0.1401
     17 F           4.7018   -0.9068   33.7642 F       1  UNL1       -0.2042
     18 C           3.5583   -1.0659   31.4368 C.ar    1  UNL1        0.0293
     19 C           2.6323   -0.4973   30.4028 C.ar    1  UNL1       -0.0020
     20 C          -4.5581    4.7797   23.4241 C.3     1  UNL1        0.1166
     21 C          -4.1922    3.6690   21.1042 C.2     1  UNL1        0.2635
     22 O          -4.7079    2.3685   21.6455 O.2     1  UNL1       -0.2685
     23 N          -4.1173    4.8745   21.9935 N.am    1  UNL1       -0.2957
     24 H          -3.7789    5.7280   21.6382 H       1  UNL1        0.1501
     25 C          -4.6419    3.6811   18.4693 C.ar    1  UNL1        0.0811
     26 N          -3.7835    3.8240   17.2475 N.ar    1  UNL1       -0.2306
     27 C          -2.3626    3.9950   17.6966 C.ar    1  UNL1        0.1475
     28 C          -1.0842    4.1799   16.9340 C.ar    1  UNL1        0.0383
     29 C           0.2139    4.3274   17.6708 C.ar    1  UNL1        0.0160
     30 C           0.2338    4.2901   19.1702 C.ar    1  UNL1        0.0753
     31 CL          1.5321    4.4377   19.9070 Cl      1  UNL1       -0.0807
     32 C          -1.0446    4.1053   19.9328 C.ar    1  UNL1        0.0929
     33 N          -2.3427    3.9578   19.1960 N.ar    1  UNL1       -0.2845
     34 C          -3.7514    3.7637   19.6735 C.ar    1  UNL1        0.1326
     35 C          -7.0269    4.6157   18.9031 C.3     1  UNL1        0.0067
     36 C          -6.1295    3.4892   18.4842 C.3     1  UNL1        0.0475
@<TRIPOS>BOND
     1    35    36    1
     2    36    25    1
     3    25    26   ar
     4    26    27   ar
     5    27    28   ar
     6    28    29   ar
     7    29    30   ar
     8    30    31    1
     9    30    32   ar
    10    32    33   ar
    11    33    34   ar
    12    34    21    1
    13    21    22    2
    14    21    23   am
    15    23    20    1
    16    20     1    1
    17     1     2   ar
    18     2     3   ar
    19     3     4   ar
    20     4     7    1
    21     7     8    1
    22     8     9    1
    23     9    10    1
    24    10    13    1
    25    13    14   ar
    26    14    15   ar
    27    15    16   ar
    28    16    17    1
    29    16    18   ar
    30    18    19   ar
    31    10    11    1
    32    11    12    1
    33     4     5   ar
    34     5     6   ar
    35    34    25   ar
    36     6     1   ar
    37    33    27   ar
    38    12     7    1
    39    19    13   ar
    40    23    24    1
@<TRIPOS>MOLECULE
*****
 36 40 0 0 0
SMALL
GASTEIGER

@<TRIPOS>ATOM
      1 C           6.5295   -2.2764   31.3010 C.ar    1  UNL1       -0.0025
      2 C           6.7137   -3.6314   30.6846 C.ar    1  UNL1       -0.0014
      3 C           6.5570   -3.8093   29.2035 C.ar    1  UNL1        0.0142
      4 C           6.2160   -2.6321   28.3386 C.ar    1  UNL1        0.0478
      5 C           6.0318   -1.2771   28.9550 C.ar    1  UNL1        0.0142
      6 C           6.1885   -1.0992   30.4361 C.ar    1  UNL1       -0.0014
      7 N           6.0593   -2.8100   26.8575 N.pl3   1  UNL1       -0.3075
      8 C           5.2249   -1.8436   26.0702 C.3     1  UNL1        0.0911
      9 C           5.0681   -2.0215   24.5891 C.3     1  UNL1        0.0258
     10 C           5.7458   -3.1658   23.8952 C.3     1  UNL1        0.0257
     11 C           6.5802   -4.1321   24.6825 C.3     1  UNL1        0.0258
     12 C           6.7369   -3.9543   26.1636 C.3     1  UNL1        0.0911
     13 C           5.5891   -3.3436   22.4141 C.ar    1  UNL1       -0.0222
     14 C           6.7569   -3.7881   21.5843 C.ar    1  UNL1       -0.0020
     15 C           6.6001   -3.9660   20.1032 C.ar    1  UNL1        0.0293
     16 C           5.2755   -3.6994   19.4517 C.ar    1  UNL1        0.1401
     17 F           5.1188   -3.8772   17.9706 F       1  UNL1       -0.2042
     18 C           4.1077   -3.2549   20.2815 C.ar    1  UNL1        0.0293
     19 C           4.2645   -3.0770   21.7627 C.ar    1  UNL1       -0.0020
     20 C           6.6862   -2.0986   32.7821 C.3     1  UNL1        0.1166
     21 C           4.7095   -0.8651   33.9315 C.2     1  UNL1        0.2635
     22 O           3.8425   -2.0739   33.7375 O.2     1  UNL1       -0.2685
     23 N           6.1312   -0.8775   33.4538 N.am    1  UNL1       -0.2957
     24 H           6.7002   -0.0842   33.5811 H       1  UNL1        0.1501
     25 C           4.4679    0.8151   35.9963 C.ar    1  UNL1        0.0811
     26 N           3.6957    2.0751   36.2536 N.ar    1  UNL1       -0.2306
     27 C           2.9051    2.3945   35.0196 C.ar    1  UNL1        0.1475
     28 C           1.9636    3.5157   34.6930 C.ar    1  UNL1        0.0383
     29 C           1.3057    3.5742   33.3463 C.ar    1  UNL1        0.0160
     30 C           1.5892    2.5117   32.3262 C.ar    1  UNL1        0.0753
     31 CL          0.9313    2.5703   30.9794 Cl      1  UNL1       -0.0807
     32 C           2.5307    1.3906   32.6528 C.ar    1  UNL1        0.0929
     33 N           3.1886    1.3320   33.9995 N.ar    1  UNL1       -0.2845
     34 C           4.1545    0.3559   34.6031 C.ar    1  UNL1        0.1326
     35 C           6.8767    0.2526   36.7907 C.3     1  UNL1        0.0067
     36 C           5.3913    0.1340   36.9624 C.3     1  UNL1        0.0475
@<TRIPOS>BOND
     1    35    36    1
     2    36    25    1
     3    25    26   ar
     4    26    27   ar
     5    27    28   ar
     6    28    29   ar
     7    29    30   ar
     8    30    31    1
     9    30    32   ar
    10    32    33   ar
    11    33    34   ar
    12    34    21    1
    13    21    22    2
    14    21    23   am
    15    23    20    1
    16    20     1    1
    17     1     2   ar
    18     2     3   ar
    19     3     4   ar
    20     4     7    1
    21     7     8    1
    22     8     9    1
    23     9    10    1
    24    10    13    1
    25    13    14   ar
    26    14    15   ar
    27    15    16   ar
    28    16    17    1
    29    16    18   ar
    30    18    19   ar
    31    10    11    1
    32    11    12    1
    33     4     5   ar
    34     5     6   ar
    35    34    25   ar
    36     6     1   ar
    37    33    27   ar
    38    12     7    1
    39    19    13   ar
    40    23    24    1
@<TRIPOS>MOLECULE
*****
 36 40 0 0 0
SMALL
GASTEIGER

@<TRIPOS>ATOM
      1 C           7.0864   -4.6040   28.9791 C.ar    1  UNL1       -0.0025
      2 C           6.6123   -3.2163   28.6637 C.ar    1  UNL1       -0.0014
      3 C           6.1680   -2.3059   29.7700 C.ar    1  UNL1        0.0142
      4 C           6.1978   -2.7832   31.1917 C.ar    1  UNL1        0.0478
      5 C           6.6719   -4.1709   31.5071 C.ar    1  UNL1        0.0142
      6 C           7.1162   -5.0813   30.4009 C.ar    1  UNL1       -0.0014
      7 N           5.7535   -1.8728   32.2979 N.pl3   1  UNL1       -0.3075
      8 C           6.7554   -1.3406   33.2793 C.3     1  UNL1        0.0911
      9 C           6.3111   -0.4302   34.3855 C.3     1  UNL1        0.0258
     10 C           4.8649   -0.0520   34.5104 C.3     1  UNL1        0.0257
     11 C           3.8630   -0.5842   33.5291 C.3     1  UNL1        0.0258
     12 C           4.3073   -1.4946   32.4229 C.3     1  UNL1        0.0911
     13 C           4.4206    0.8583   35.6167 C.ar    1  UNL1       -0.0222
     14 C           4.4980    0.3993   37.0425 C.ar    1  UNL1       -0.0020
     15 C           4.0537    1.3097   38.1488 C.ar    1  UNL1        0.0293
     16 C           3.5320    2.6792   37.8291 C.ar    1  UNL1        0.1401
     17 F           3.0877    3.5896   38.9354 F       1  UNL1       -0.2042
     18 C           3.4546    3.1383   36.4032 C.ar    1  UNL1        0.0293
     19 C           3.8989    2.2279   35.2970 C.ar    1  UNL1       -0.0020
     20 C           7.5307   -5.5144   27.8729 C.3     1  UNL1        0.1166
     21 C           7.8361   -4.5749   25.4700 C.2     1  UNL1        0.2635
     22 O           9.1840   -4.0381   25.8512 O.2     1  UNL1       -0.2685
     23 N           7.0096   -5.3129   26.4808 N.am    1  UNL1       -0.2957
     24 H           6.1249   -5.6652   26.2306 H       1  UNL1        0.1501
     25 C           7.8360   -5.0357   22.8370 C.ar    1  UNL1        0.0811
     26 N           7.0243   -4.5459   21.6746 N.ar    1  UNL1       -0.2306
     27 C           6.0016   -3.5809   22.1971 C.ar    1  UNL1        0.1475
     28 C           4.9300   -2.7856   21.5122 C.ar    1  UNL1        0.0383
     29 C           4.0381   -1.8836   22.3127 C.ar    1  UNL1        0.0160
     30 C           4.2177   -1.7771   23.7981 C.ar    1  UNL1        0.0753
     31 CL          3.3257   -0.8750   24.5987 Cl      1  UNL1       -0.0807
     32 C           5.2893   -2.5724   24.4830 C.ar    1  UNL1        0.0929
     33 N           6.1813   -3.4743   23.6825 N.ar    1  UNL1       -0.2845
     34 C           7.3150   -4.3734   24.0779 C.ar    1  UNL1        0.1326
     35 C           8.8096   -7.3885   23.3528 C.3     1  UNL1        0.0067
     36 C           8.9697   -6.0156   22.7702 C.3     1  UNL1        0.0475
@<TRIPOS>BOND
     1    35    36    1
     2    36    25    1
     3    25    26   ar
     4    26    27   ar
     5    27    28   ar
     6    28    29   ar
     7    29    30   ar
     8    30    31    1
     9    30    32   ar
    10    32    33   ar
    11    33    34   ar
    12    34    21    1
    13    21    22    2
    14    21    23   am
    15    23    20    1
    16    20     1    1
    17     1     2   ar
    18     2     3   ar
    19     3     4   ar
    20     4     7    1
    21     7     8    1
    22     8     9    1
    23     9    10    1
    24    10    13    1
    25    13    14   ar
    26    14    15   ar
    27    15    16   ar
    28    16    17    1
    29    16    18   ar
    30    18    19   ar
    31    10    11    1
    32    11    12    1
    33     4     5   ar
    34     5     6   ar
    35    34    25   ar
    36     6     1   ar
    37    33    27   ar
    38    12     7    1
    39    19    13   ar
    40    23    24    1
@<TRIPOS>MOLECULE
*****
 36 40 0 0 0
SMALL
GASTEIGER

@<TRIPOS>ATOM
      1 C           1.8031    0.9100   25.8695 C.ar    1  UNL1       -0.0025
      2 C           1.1859    1.1972   24.5329 C.ar    1  UNL1       -0.0014
      3 C          -0.1333    1.9066   24.4528 C.ar    1  UNL1        0.0142
      4 C          -0.8354    2.3288   25.7093 C.ar    1  UNL1        0.0478
      5 C          -0.2182    2.0416   27.0459 C.ar    1  UNL1        0.0142
      6 C           1.1010    1.3322   27.1260 C.ar    1  UNL1       -0.0014
      7 N          -2.1546    3.0383   25.6291 N.pl3   1  UNL1       -0.3075
      8 C          -2.7654    3.3371   24.2921 C.3     1  UNL1        0.0911
      9 C          -4.0846    4.0465   24.2120 C.3     1  UNL1        0.0258
     10 C          -4.7930    4.4571   25.4688 C.3     1  UNL1        0.0257
     11 C          -4.1821    4.1583   26.8058 C.3     1  UNL1        0.0258
     12 C          -2.8629    3.4489   26.8860 C.3     1  UNL1        0.0911
     13 C          -6.1122    5.1665   25.3887 C.ar    1  UNL1       -0.0222
     14 C          -6.5014    6.1488   26.4533 C.ar    1  UNL1       -0.0020
     15 C          -7.8206    6.8582   26.3732 C.ar    1  UNL1        0.0293
     16 C          -8.7506    6.5854   25.2283 C.ar    1  UNL1        0.1401
     17 F         -10.0698    7.2948   25.1482 F       1  UNL1       -0.2042
     18 C          -8.3613    5.6031   24.1637 C.ar    1  UNL1        0.0293
     19 C          -7.0421    4.8937   24.2438 C.ar    1  UNL1       -0.0020
     20 C           3.1223    0.2005   25.9497 C.3     1  UNL1        0.1166
     21 C           4.7318   -1.0015   24.3021 C.2     1  UNL1        0.2635
     22 O           5.7510    0.0796   24.5091 O.2     1  UNL1       -0.2685
     23 N           3.4175   -0.9410   25.0224 N.am    1  UNL1       -0.2957
     24 H           2.7487   -1.6505   24.8866 H       1  UNL1        0.1501
     25 C           5.7914   -3.3860   23.7222 C.ar    1  UNL1        0.0811
     26 N           5.8466   -4.2531   22.4995 N.ar    1  UNL1       -0.2306
     27 C           5.1163   -3.5460   21.3964 C.ar    1  UNL1        0.1475
     28 C           4.8471   -3.9211   19.9693 C.ar    1  UNL1        0.0383
     29 C           4.0714   -2.9921   19.0832 C.ar    1  UNL1        0.0160
     30 C           3.5649   -1.6880   19.6242 C.ar    1  UNL1        0.0753
     31 CL          2.7892   -0.7589   18.7381 Cl      1  UNL1       -0.0807
     32 C           3.8341   -1.3128   21.0514 C.ar    1  UNL1        0.0929
     33 N           4.6098   -2.2418   21.9375 N.ar    1  UNL1       -0.2845
     34 C           5.0271   -2.1430   23.3749 C.ar    1  UNL1        0.1326
     35 C           7.1385   -4.9932   25.2559 C.3     1  UNL1        0.0067
     36 C           6.3947   -3.7058   25.0578 C.3     1  UNL1        0.0475
@<TRIPOS>BOND
     1    35    36    1
     2    36    25    1
     3    25    26   ar
     4    26    27   ar
     5    27    28   ar
     6    28    29   ar
     7    29    30   ar
     8    30    31    1
     9    30    32   ar
    10    32    33   ar
    11    33    34   ar
    12    34    21    1
    13    21    22    2
    14    21    23   am
    15    23    20    1
    16    20     1    1
    17     1     2   ar
    18     2     3   ar
    19     3     4   ar
    20     4     7    1
    21     7     8    1
    22     8     9    1
    23     9    10    1
    24    10    13    1
    25    13    14   ar
    26    14    15   ar
    27    15    16   ar
    28    16    17    1
    29    16    18   ar
    30    18    19   ar
    31    10    11    1
    32    11    12    1
    33     4     5   ar
    34     5     6   ar
    35    34    25   ar
    36     6     1   ar
    37    33    27   ar
    38    12     7    1
    39    19    13   ar
    40    23    24    1
