@<TRIPOS>MOLECULE
*****
 52 56 0 0 0
SMALL
GASTEIGER

@<TRIPOS>ATOM
      1 C           1.1233    2.6959   28.9254 C.3     1  UNL1        0.1205
      2 N           1.5787    3.0610   30.3072 N.am    1  UNL1       -0.2737
      3 C           0.8033    2.5894   31.5016 C.2     1  UNL1        0.2506
      4 O          -0.4275    1.7528   31.3141 O.2     1  UNL1       -0.2699
      5 C           2.8095    3.8976   30.4946 C.3     1  UNL1        0.0939
      6 C           3.5849    4.3692   29.3004 C.3     1  UNL1        0.0257
      7 C           3.1295    4.0041   27.9186 C.3     1  UNL1        0.0525
      8 C           1.8987    3.1674   27.7312 C.3     1  UNL1        0.2170
      9 C           2.2944    3.3732   26.2990 C.2     1  UNL1        0.2636
     10 O           2.3747    4.1642   25.7187 O.2     1  UNL1       -0.2711
     11 N           2.6758    2.1971   25.4498 N.am    1  UNL1       -0.2732
     12 C           2.6616    0.8151   26.0327 C.3     1  UNL1        0.1149
     13 C           3.0430   -0.3611   25.1836 C.3     1  UNL1        0.1124
     14 N           3.4387   -0.1552   23.7514 N.pl3   1  UNL1       -0.3017
     15 C           3.4530    1.2268   23.1685 C.3     1  UNL1        0.1124
     16 C           3.0715    2.4029   24.0176 C.3     1  UNL1        0.1149
     17 C           3.8202   -1.3313   22.9022 C.ar    1  UNL1        0.0824
     18 C           4.5831   -2.4745   23.5033 C.ar    1  UNL1        0.0176
     19 C           4.9646   -3.6506   22.6542 C.ar    1  UNL1        0.0015
     20 C           4.5832   -3.6837   21.2038 C.ar    1  UNL1        0.0032
     21 C           3.8203   -2.5405   20.6027 C.ar    1  UNL1        0.0382
     22 C           3.4388   -1.3644   21.4518 C.ar    1  UNL1        0.1517
     23 O           2.6759   -0.2213   20.8507 O.3     1  UNL1       -0.4742
     24 C           1.7552   -0.4615   19.6912 C.3     1  UNL1        0.2059
     25 C           1.9559    0.2867   18.4066 C.3     1  UNL1        0.0532
     26 C           3.3295    0.7399   18.0094 C.3     1  UNL1        0.0455
     27 C           4.2839   -0.2275   17.3744 C.2     1  UNL1        0.0505
     28 O           5.6957   -0.3243   17.8718 O.co2   1  UNL1       -0.5492
     29 O           3.8264   -1.0982   16.2418 O.co2   1  UNL1       -0.5492
     30 C           1.2587    2.9545   32.8833 C.ar    1  UNL1        0.0766
     31 C           2.0922    1.9926   33.6769 C.ar    1  UNL1        0.1033
     32 N           2.5476    2.3577   35.0588 N.ar    1  UNL1       -0.2422
     33 C           2.1695    3.6848   35.6469 C.ar    1  UNL1        0.0988
     34 C           1.3359    4.6467   34.8532 C.ar    1  UNL1        0.0247
     35 C           0.8805    4.2816   33.4715 C.ar    1  UNL1        0.0788
     36 C           0.0470    5.2436   32.6778 C.3     1  UNL1        0.4188
     37 F          -0.7866    6.2055   31.8842 F       1  UNL1       -0.1659
     38 F          -1.1975    4.5404   33.1326 F       1  UNL1       -0.1659
     39 F           1.2915    5.9467   32.2231 F       1  UNL1       -0.1659
     40 C          -0.1075    1.8592   28.7380 C.3     1  UNL1        0.0239
     41 C          -1.2443   -0.4759   28.6689 C.3     1  UNL1        0.0001
     42 C          -0.0020    0.3631   28.7211 C.3     1  UNL1        0.0018
     43 O           0.8053    2.4023   27.0463 O.3     1  UNL1       -0.4718
     44 C          -0.3522    3.1339   26.4340 C.ar    1  UNL1        0.1459
     45 C          -0.7383    4.5577   26.7054 C.ar    1  UNL1        0.0722
     46 S          -1.9515    4.8739   25.8820 S.2     1  UNL1       -0.0794
     47 C          -2.3152    3.6456   25.1017 C.ar    1  UNL1        0.1041
     48 C          -1.3267    2.5701   25.4428 C.ar    1  UNL1        0.0478
     49 C          -3.4655    3.5154   24.1476 C.3     1  UNL1        0.4242
     50 F          -4.6157    3.3853   23.1937 F       1  UNL1       -0.1654
     51 F          -2.5233    3.6691   22.9907 F       1  UNL1       -0.1654
     52 F          -4.4076    3.3617   25.3046 F       1  UNL1       -0.1654
@<TRIPOS>UNITY_ATOM_ATTR
28 1
charge -1
@<TRIPOS>BOND
     1    41    42    1
     2    42    40    1
     3     1    40    1
     4     1     2    1
     5     2     3   am
     6     3     4    2
     7     3    30    1
     8    30    31   ar
     9    31    32   ar
    10    32    33   ar
    11    33    34   ar
    12    34    35   ar
    13    35    36    1
    14    36    37    1
    15    36    38    1
    16    36    39    1
    17     2     5    1
    18     5     6    1
    19     6     7    1
    20     7     8    1
    21     8    43    1
    22    43    44    1
    23    44    45   ar
    24    45    46   ar
    25    46    47   ar
    26    47    49    1
    27    49    50    1
    28    49    51    1
    29    49    52    1
    30    47    48   ar
    31     8     9    1
    32     9    10    2
    33     9    11   am
    34    11    12    1
    35    12    13    1
    36    13    14    1
    37    14    17    1
    38    17    18   ar
    39    18    19   ar
    40    19    20   ar
    41    20    21   ar
    42    21    22   ar
    43    22    23    1
    44    23    24    1
    45    24    25    1
    46    25    26    1
    47    26    27    1
    48    27    28   ar
    49    27    29   ar
    50    14    15    1
    51    15    16    1
    52     8     1    1
    53    48    44   ar
    54    16    11    1
    55    35    30   ar
    56    22    17   ar
@<TRIPOS>MOLECULE
*****
 52 56 0 0 0
SMALL
GASTEIGER

@<TRIPOS>ATOM
      1 C           1.1827    2.6250   29.0166 C.3     1  UNL1        0.1205
      2 N           1.6170    3.0262   30.3952 N.am    1  UNL1       -0.2737
      3 C           0.7980    2.6250   31.5861 C.2     1  UNL1        0.2506
      4 O          -0.4554    1.8225   31.3985 O.2     1  UNL1       -0.2699
      5 C           2.8703    3.8286   30.5828 C.3     1  UNL1        0.0939
      6 C           3.6894    4.2298   29.3920 C.3     1  UNL1        0.0257
      7 C           3.2550    3.8286   28.0134 C.3     1  UNL1        0.0525
      8 C           2.0017    3.0262   27.8258 C.3     1  UNL1        0.2170
      9 C           2.4381    3.1656   26.3975 C.2     1  UNL1        0.2636
     10 O           2.4615    3.9149   25.7597 O.2     1  UNL1       -0.2711
     11 N           2.9783    1.9771   25.6588 N.am    1  UNL1       -0.2732
     12 C           3.0821    0.6491   26.3486 C.3     1  UNL1        0.1149
     13 C           3.6223   -0.5395   25.6101 C.3     1  UNL1        0.1124
     14 N           4.0587   -0.4001   24.1817 N.pl3   1  UNL1       -0.3017
     15 C           3.9549    0.9279   23.4920 C.3     1  UNL1        0.1124
     16 C           3.4147    2.1164   24.2305 C.3     1  UNL1        0.1149
     17 C           4.5989   -1.5886   23.4431 C.ar    1  UNL1        0.0824
     18 C           5.7758   -2.3405   23.9907 C.ar    1  UNL1        0.0176
     19 C           6.3160   -3.5290   23.2521 C.ar    1  UNL1        0.0015
     20 C           5.6795   -3.9657   21.9660 C.ar    1  UNL1        0.0032
     21 C           4.5027   -3.2138   21.4184 C.ar    1  UNL1        0.0382
     22 C           3.9624   -2.0253   22.1570 C.ar    1  UNL1        0.1517
     23 O           2.7856   -1.2734   21.6094 O.3     1  UNL1       -0.4742
     24 C           2.5366   -1.2439   20.1305 C.3     1  UNL1        0.2059
     25 C           1.4472   -0.3781   19.5705 C.3     1  UNL1        0.0532
     26 C           0.3237    0.0786   20.4533 C.3     1  UNL1        0.0455
     27 C           0.2070    1.5257   20.8303 C.2     1  UNL1        0.0505
     28 O          -1.1399    2.1847   20.8681 O.co2   1  UNL1       -0.5492
     29 O           1.4374    2.3139   21.1695 O.co2   1  UNL1       -0.5492
     30 C           1.2323    3.0262   32.9646 C.ar    1  UNL1        0.0766
     31 C           2.0674    2.0922   33.7894 C.ar    1  UNL1        0.1033
     32 N           2.5017    2.4935   35.1680 N.ar    1  UNL1       -0.2422
     33 C           2.1010    3.8287   35.7217 C.ar    1  UNL1        0.0988
     34 C           1.2659    4.7627   34.8969 C.ar    1  UNL1        0.0247
     35 C           0.8315    4.3614   33.5184 C.ar    1  UNL1        0.0788
     36 C          -0.0035    5.2954   32.6936 C.3     1  UNL1        0.4188
     37 F          -0.8386    6.2294   31.8687 F       1  UNL1       -0.1659
     38 F          -1.2452    4.5886   33.1504 F       1  UNL1       -0.1659
     39 F           1.2381    6.0022   32.2367 F       1  UNL1       -0.1659
     40 C          -0.0707    1.8225   28.8290 C.3     1  UNL1        0.0239
     41 C          -1.2781   -0.4763   28.7434 C.3     1  UNL1        0.0001
     42 C          -0.0181    0.3246   28.8878 C.3     1  UNL1        0.0018
     43 O           0.8999    2.2722   27.1420 O.3     1  UNL1       -0.4718
     44 C          -0.2756    3.0117   26.5752 C.ar    1  UNL1        0.1459
     45 C          -0.6279    4.4450   26.8427 C.ar    1  UNL1        0.0722
     46 S          -1.8752    4.7668   26.0741 S.2     1  UNL1       -0.0794
     47 C          -2.2937    3.5325   25.3317 C.ar    1  UNL1        0.1041
     48 C          -1.3051    2.4477   25.6414 C.ar    1  UNL1        0.0478
     49 C          -3.4908    3.4052   24.4367 C.3     1  UNL1        0.4242
     50 F          -4.6878    3.2779   23.5418 F       1  UNL1       -0.1654
     51 F          -2.5941    3.4262   23.2345 F       1  UNL1       -0.1654
     52 F          -4.3874    3.3842   25.6390 F       1  UNL1       -0.1654
@<TRIPOS>UNITY_ATOM_ATTR
28 1
charge -1
@<TRIPOS>BOND
     1    41    42    1
     2    42    40    1
     3     1    40    1
     4     1     2    1
     5     2     3   am
     6     3     4    2
     7     3    30    1
     8    30    31   ar
     9    31    32   ar
    10    32    33   ar
    11    33    34   ar
    12    34    35   ar
    13    35    36    1
    14    36    37    1
    15    36    38    1
    16    36    39    1
    17     2     5    1
    18     5     6    1
    19     6     7    1
    20     7     8    1
    21     8    43    1
    22    43    44    1
    23    44    45   ar
    24    45    46   ar
    25    46    47   ar
    26    47    49    1
    27    49    50    1
    28    49    51    1
    29    49    52    1
    30    47    48   ar
    31     8     9    1
    32     9    10    2
    33     9    11   am
    34    11    12    1
    35    12    13    1
    36    13    14    1
    37    14    17    1
    38    17    18   ar
    39    18    19   ar
    40    19    20   ar
    41    20    21   ar
    42    21    22   ar
    43    22    23    1
    44    23    24    1
    45    24    25    1
    46    25    26    1
    47    26    27    1
    48    27    28   ar
    49    27    29   ar
    50    14    15    1
    51    15    16    1
    52     8     1    1
    53    48    44   ar
    54    16    11    1
    55    35    30   ar
    56    22    17   ar
@<TRIPOS>MOLECULE
*****
 52 56 0 0 0
SMALL
GASTEIGER

@<TRIPOS>ATOM
      1 C           0.9960    1.9791   28.3194 C.3     1  UNL1        0.1205
      2 N           1.5525    2.2118   29.6927 N.am    1  UNL1       -0.2737
      3 C           1.6989    1.0637   30.6471 C.2     1  UNL1        0.2506
      4 O           1.2888   -0.3169   30.2280 O.2     1  UNL1       -0.2699
      5 C           1.9626    3.5924   30.1119 C.3     1  UNL1        0.0939
      6 C           1.8162    4.7404   29.1576 C.3     1  UNL1        0.0257
      7 C           1.2597    4.5078   27.7843 C.3     1  UNL1        0.0525
      8 C           0.8496    3.1271   27.3651 C.3     1  UNL1        0.2170
      9 C           0.5212    3.8873   26.1145 C.2     1  UNL1        0.2636
     10 O           1.0623    4.3191   25.4148 O.2     1  UNL1       -0.2711
     11 N          -0.9104    4.1112   25.7269 N.am    1  UNL1       -0.2732
     12 C          -2.0138    3.5748   26.5900 C.3     1  UNL1        0.1149
     13 C          -3.4454    3.7985   26.2025 C.3     1  UNL1        0.1124
     14 N          -3.7738    4.5588   24.9518 N.pl3   1  UNL1       -0.3017
     15 C          -2.6705    5.0952   24.0887 C.3     1  UNL1        0.1124
     16 C          -1.2388    4.8714   24.4762 C.3     1  UNL1        0.1149
     17 C          -5.2055    4.7826   24.5642 C.ar    1  UNL1        0.0824
     18 C          -6.0133    5.8401   25.2564 C.ar    1  UNL1        0.0176
     19 C          -7.4449    6.0641   24.8689 C.ar    1  UNL1        0.0015
     20 C          -8.0688    5.2305   23.7891 C.ar    1  UNL1        0.0032
     21 C          -7.2610    4.1729   23.0969 C.ar    1  UNL1        0.0382
     22 C          -5.8293    3.9490   23.4844 C.ar    1  UNL1        0.1517
     23 O          -5.0215    2.8915   22.7922 O.3     1  UNL1       -0.4742
     24 C          -4.5803    3.0938   21.3729 C.3     1  UNL1        0.2059
     25 C          -4.4722    4.4806   20.8115 C.3     1  UNL1        0.0532
     26 C          -5.3783    4.9110   19.6963 C.3     1  UNL1        0.0455
     27 C          -5.8407    3.9116   18.6777 C.2     1  UNL1        0.0505
     28 O          -7.2987    3.5790   18.5613 O.co2   1  UNL1       -0.5492
     29 O          -4.8449    3.2448   17.7755 O.co2   1  UNL1       -0.5492
     30 C           2.2554    1.2964   32.0204 C.ar    1  UNL1        0.0766
     31 C           1.5056    2.1514   32.9986 C.ar    1  UNL1        0.1033
     32 N           2.0621    2.3840   34.3720 N.ar    1  UNL1       -0.2422
     33 C           3.3684    1.7617   34.7672 C.ar    1  UNL1        0.0988
     34 C           4.1182    0.9066   33.7891 C.ar    1  UNL1        0.0247
     35 C           3.5617    0.6740   32.4157 C.ar    1  UNL1        0.0788
     36 C           4.3115   -0.1810   31.4376 C.3     1  UNL1        0.4188
     37 F           5.0613   -1.0361   30.4595 F       1  UNL1       -0.1659
     38 F           3.6491   -1.4042   31.9990 F       1  UNL1       -0.1659
     39 F           4.9739    1.0421   30.8762 F       1  UNL1       -0.1659
     40 C           0.5859    0.5985   27.9003 C.3     1  UNL1        0.0239
     41 C          -1.6215    0.1693   29.2014 C.3     1  UNL1        0.0001
     42 C          -0.8633    0.2118   27.9078 C.3     1  UNL1        0.0018
     43 O           0.3255    2.0106   26.5116 O.3     1  UNL1       -0.4718
     44 C           1.1279    1.5192   25.3434 C.ar    1  UNL1        0.1459
     45 C           2.6120    1.3026   25.3218 C.ar    1  UNL1        0.0722
     46 S           2.9884    0.8078   23.9568 S.2     1  UNL1       -0.0794
     47 C           1.7369    0.7186   23.1347 C.ar    1  UNL1        0.1041
     48 C           0.5870    1.1584   23.9916 C.ar    1  UNL1        0.0478
     49 C           1.6504    0.2688   21.7063 C.3     1  UNL1        0.4242
     50 F           1.5638   -0.1811   20.2779 F       1  UNL1       -0.1654
     51 F           3.0118   -0.3505   21.8189 F       1  UNL1       -0.1654
     52 F           0.2889    0.8881   21.5937 F       1  UNL1       -0.1654
@<TRIPOS>UNITY_ATOM_ATTR
28 1
charge -1
@<TRIPOS>BOND
     1    41    42    1
     2    42    40    1
     3     1    40    1
     4     1     2    1
     5     2     3   am
     6     3     4    2
     7     3    30    1
     8    30    31   ar
     9    31    32   ar
    10    32    33   ar
    11    33    34   ar
    12    34    35   ar
    13    35    36    1
    14    36    37    1
    15    36    38    1
    16    36    39    1
    17     2     5    1
    18     5     6    1
    19     6     7    1
    20     7     8    1
    21     8    43    1
    22    43    44    1
    23    44    45   ar
    24    45    46   ar
    25    46    47   ar
    26    47    49    1
    27    49    50    1
    28    49    51    1
    29    49    52    1
    30    47    48   ar
    31     8     9    1
    32     9    10    2
    33     9    11   am
    34    11    12    1
    35    12    13    1
    36    13    14    1
    37    14    17    1
    38    17    18   ar
    39    18    19   ar
    40    19    20   ar
    41    20    21   ar
    42    21    22   ar
    43    22    23    1
    44    23    24    1
    45    24    25    1
    46    25    26    1
    47    26    27    1
    48    27    28   ar
    49    27    29   ar
    50    14    15    1
    51    15    16    1
    52     8     1    1
    53    48    44   ar
    54    16    11    1
    55    35    30   ar
    56    22    17   ar
@<TRIPOS>MOLECULE
*****
 52 56 0 0 0
SMALL
GASTEIGER

@<TRIPOS>ATOM
      1 C           1.7268    2.3905   28.8819 C.3     1  UNL1        0.1205
      2 N           2.6267    2.6674   30.0496 N.am    1  UNL1       -0.2737
      3 C           2.2221    2.2343   31.4276 C.2     1  UNL1        0.2506
      4 O           0.9176    1.5242   31.6378 O.2     1  UNL1       -0.2699
      5 C           3.9311    3.3774   29.8393 C.3     1  UNL1        0.0939
      6 C           4.3357    3.8106   28.4614 C.3     1  UNL1        0.0257
      7 C           3.4358    3.5336   27.2938 C.3     1  UNL1        0.0525
      8 C           2.1314    2.8236   27.5040 C.3     1  UNL1        0.2170
      9 C           2.0763    3.0357   26.0201 C.2     1  UNL1        0.2636
     10 O           1.8422    3.8009   25.4470 O.2     1  UNL1       -0.2711
     11 N           2.4322    1.9153   25.0885 N.am    1  UNL1       -0.2732
     12 C           2.8432    0.5826   25.6408 C.3     1  UNL1        0.1149
     13 C           3.1992   -0.5379   24.7093 C.3     1  UNL1        0.1124
     14 N           3.1441   -0.3258   23.2254 N.pl3   1  UNL1       -0.3017
     15 C           2.7330    1.0069   22.6731 C.3     1  UNL1        0.1124
     16 C           2.3771    2.1274   23.6046 C.3     1  UNL1        0.1149
     17 C           3.5000   -1.4462   22.2938 C.ar    1  UNL1        0.0824
     18 C           4.3253   -2.5978   22.7866 C.ar    1  UNL1        0.0176
     19 C           4.6812   -3.7182   21.8551 C.ar    1  UNL1        0.0015
     20 C           4.2119   -3.6872   20.4308 C.ar    1  UNL1        0.0032
     21 C           3.3866   -2.5356   19.9380 C.ar    1  UNL1        0.0382
     22 C           3.0307   -1.4152   20.8695 C.ar    1  UNL1        0.1517
     23 O           2.2054   -0.2636   20.3767 O.3     1  UNL1       -0.4742
     24 C           2.2062    0.0901   18.9190 C.3     1  UNL1        0.2059
     25 C           3.0787    1.2025   18.4177 C.3     1  UNL1        0.0532
     26 C           4.4517    0.9011   17.8942 C.3     1  UNL1        0.0455
     27 C           4.7576   -0.4539   17.3281 C.2     1  UNL1        0.0505
     28 O           3.9092   -1.0152   16.2259 O.co2   1  UNL1       -0.5492
     29 O           5.9121   -1.2475   17.8643 O.co2   1  UNL1       -0.5492
     30 C           3.1220    2.5112   32.5952 C.ar    1  UNL1        0.0766
     31 C           2.9881    3.7964   33.3570 C.ar    1  UNL1        0.1033
     32 N           3.8881    4.0733   34.5248 N.ar    1  UNL1       -0.2422
     33 C           4.9218    3.0650   34.9306 C.ar    1  UNL1        0.0988
     34 C           5.0557    1.7798   34.1688 C.ar    1  UNL1        0.0247
     35 C           4.1558    1.5029   33.0011 C.ar    1  UNL1        0.0788
     36 C           4.2896    0.2177   32.2393 C.3     1  UNL1        0.4188
     37 F           4.4235   -1.0675   31.4774 F       1  UNL1       -0.1659
     38 F           3.2610   -0.4163   33.1281 F       1  UNL1       -0.1659
     39 F           5.3182    0.8517   31.3504 F       1  UNL1       -0.1659
     40 C           0.4223    1.6804   29.0921 C.3     1  UNL1        0.0239
     41 C          -0.9729   -0.4966   28.8398 C.3     1  UNL1        0.0001
     42 C           0.3553    0.1861   28.9804 C.3     1  UNL1        0.0018
     43 O           0.8078    2.1873   27.1988 O.3     1  UNL1       -0.4718
     44 C          -0.4082    3.0430   27.0016 C.ar    1  UNL1        0.1459
     45 C          -0.5406    4.4879   27.3821 C.ar    1  UNL1        0.0722
     46 S          -1.9196    4.9421   27.0049 S.2     1  UNL1       -0.0794
     47 C          -2.6393    3.7779   26.3913 C.ar    1  UNL1        0.1041
     48 C          -1.7053    2.6042   26.3892 C.ar    1  UNL1        0.0478
     49 C          -4.0463    3.7859   25.8710 C.3     1  UNL1        0.4242
     50 F          -5.4531    3.7939   25.3507 F       1  UNL1       -0.1654
     51 F          -4.5456    4.1861   27.2276 F       1  UNL1       -0.1654
     52 F          -3.5468    3.3857   24.5144 F       1  UNL1       -0.1654
@<TRIPOS>UNITY_ATOM_ATTR
28 1
charge -1
@<TRIPOS>BOND
     1    41    42    1
     2    42    40    1
     3     1    40    1
     4     1     2    1
     5     2     3   am
     6     3     4    2
     7     3    30    1
     8    30    31   ar
     9    31    32   ar
    10    32    33   ar
    11    33    34   ar
    12    34    35   ar
    13    35    36    1
    14    36    37    1
    15    36    38    1
    16    36    39    1
    17     2     5    1
    18     5     6    1
    19     6     7    1
    20     7     8    1
    21     8    43    1
    22    43    44    1
    23    44    45   ar
    24    45    46   ar
    25    46    47   ar
    26    47    49    1
    27    49    50    1
    28    49    51    1
    29    49    52    1
    30    47    48   ar
    31     8     9    1
    32     9    10    2
    33     9    11   am
    34    11    12    1
    35    12    13    1
    36    13    14    1
    37    14    17    1
    38    17    18   ar
    39    18    19   ar
    40    19    20   ar
    41    20    21   ar
    42    21    22   ar
    43    22    23    1
    44    23    24    1
    45    24    25    1
    46    25    26    1
    47    26    27    1
    48    27    28   ar
    49    27    29   ar
    50    14    15    1
    51    15    16    1
    52     8     1    1
    53    48    44   ar
    54    16    11    1
    55    35    30   ar
    56    22    17   ar
@<TRIPOS>MOLECULE
*****
 52 56 0 0 0
SMALL
GASTEIGER

@<TRIPOS>ATOM
      1 C           1.3128    2.3020   28.9886 C.3     1  UNL1        0.1205
      2 N           1.7282    2.7662   30.3531 N.am    1  UNL1       -0.2737
      3 C           0.8530    2.4871   31.5390 C.2     1  UNL1        0.2506
      4 O          -0.4376    1.7439   31.3603 O.2     1  UNL1       -0.2699
      5 C           3.0189    3.5094   30.5318 C.3     1  UNL1        0.0939
      6 C           3.8941    3.7884   29.3461 C.3     1  UNL1        0.0257
      7 C           3.4786    3.3242   27.9815 C.3     1  UNL1        0.0525
      8 C           2.1880    2.5811   27.8028 C.3     1  UNL1        0.2170
      9 C           2.6736    2.6049   26.3838 C.2     1  UNL1        0.2636
     10 O           2.6367    3.2704   25.6596 O.2     1  UNL1       -0.2711
     11 N           3.3900    1.4156   25.8161 N.am    1  UNL1       -0.2732
     12 C           3.6209    0.2024   26.6675 C.3     1  UNL1        0.1149
     13 C           4.3373   -0.9870   26.0999 C.3     1  UNL1        0.1124
     14 N           4.8228   -0.9631   24.6809 N.pl3   1  UNL1       -0.3017
     15 C           4.5919    0.2501   23.8294 C.3     1  UNL1        0.1124
     16 C           3.8755    1.4394   24.3971 C.3     1  UNL1        0.1149
     17 C           5.5392   -2.1524   24.1132 C.ar    1  UNL1        0.0824
     18 C           6.5003   -2.9265   24.9660 C.ar    1  UNL1        0.0176
     19 C           7.2167   -4.1158   24.3984 C.ar    1  UNL1        0.0015
     20 C           6.9722   -4.5311   22.9779 C.ar    1  UNL1        0.0032
     21 C           6.0112   -3.7570   22.1251 C.ar    1  UNL1        0.0382
     22 C           5.2947   -2.5677   22.6927 C.ar    1  UNL1        0.1517
     23 O           4.3337   -1.7937   21.8399 O.3     1  UNL1       -0.4742
     24 C           4.7000   -1.4400   20.4289 C.3     1  UNL1        0.2059
     25 C           4.1512   -2.2439   19.2876 C.3     1  UNL1        0.0532
     26 C           3.2661   -3.4242   19.5588 C.3     1  UNL1        0.0455
     27 C           3.8089   -4.8157   19.4215 C.2     1  UNL1        0.0505
     28 O           3.2526   -5.9244   20.2649 O.co2   1  UNL1       -0.5492
     29 O           4.9081   -5.0986   18.4407 O.co2   1  UNL1       -0.5492
     30 C           1.2685    2.9513   32.9035 C.ar    1  UNL1        0.0766
     31 C           2.0858    2.0536   33.7845 C.ar    1  UNL1        0.1033
     32 N           2.5013    2.5179   35.1490 N.ar    1  UNL1       -0.2422
     33 C           2.0993    3.8797   35.6326 C.ar    1  UNL1        0.0988
     34 C           1.2820    4.7773   34.7516 C.ar    1  UNL1        0.0247
     35 C           0.8665    4.3132   33.3871 C.ar    1  UNL1        0.0788
     36 C           0.0491    5.2108   32.5061 C.3     1  UNL1        0.4188
     37 F          -0.7682    6.1085   31.6252 F       1  UNL1       -0.1659
     38 F          -1.2086    4.6278   33.0790 F       1  UNL1       -0.1659
     39 F           1.3069    5.7938   31.9332 F       1  UNL1       -0.1659
     40 C           0.0222    1.5588   28.8099 C.3     1  UNL1        0.0239
     41 C          -1.2955   -0.6796   28.7553 C.3     1  UNL1        0.0001
     42 C           0.0019    0.0611   28.8896 C.3     1  UNL1        0.0018
     43 O           1.0660    1.8461   27.1312 O.3     1  UNL1       -0.4718
     44 C           0.0430    2.6028   26.3369 C.ar    1  UNL1        0.1459
     45 C          -0.5767    2.1572   25.0457 C.ar    1  UNL1        0.0722
     46 S          -1.5426    3.2169   24.6051 S.2     1  UNL1       -0.0794
     47 C          -1.5197    4.3174   25.6241 C.ar    1  UNL1        0.1041
     48 C          -0.5398    3.9379   26.6944 C.ar    1  UNL1        0.0478
     49 C          -2.3340    5.5765   25.5805 C.3     1  UNL1        0.4242
     50 F          -3.1482    6.8356   25.5369 F       1  UNL1       -0.1654
     51 F          -1.8306    5.8540   24.1951 F       1  UNL1       -0.1654
     52 F          -2.8373    5.2989   26.9660 F       1  UNL1       -0.1654
@<TRIPOS>UNITY_ATOM_ATTR
28 1
charge -1
@<TRIPOS>BOND
     1    41    42    1
     2    42    40    1
     3     1    40    1
     4     1     2    1
     5     2     3   am
     6     3     4    2
     7     3    30    1
     8    30    31   ar
     9    31    32   ar
    10    32    33   ar
    11    33    34   ar
    12    34    35   ar
    13    35    36    1
    14    36    37    1
    15    36    38    1
    16    36    39    1
    17     2     5    1
    18     5     6    1
    19     6     7    1
    20     7     8    1
    21     8    43    1
    22    43    44    1
    23    44    45   ar
    24    45    46   ar
    25    46    47   ar
    26    47    49    1
    27    49    50    1
    28    49    51    1
    29    49    52    1
    30    47    48   ar
    31     8     9    1
    32     9    10    2
    33     9    11   am
    34    11    12    1
    35    12    13    1
    36    13    14    1
    37    14    17    1
    38    17    18   ar
    39    18    19   ar
    40    19    20   ar
    41    20    21   ar
    42    21    22   ar
    43    22    23    1
    44    23    24    1
    45    24    25    1
    46    25    26    1
    47    26    27    1
    48    27    28   ar
    49    27    29   ar
    50    14    15    1
    51    15    16    1
    52     8     1    1
    53    48    44   ar
    54    16    11    1
    55    35    30   ar
    56    22    17   ar
@<TRIPOS>MOLECULE
*****
 52 56 0 0 0
SMALL
GASTEIGER

@<TRIPOS>ATOM
      1 C           0.5294    2.6231   27.6404 C.3     1  UNL1        0.1205
      2 N          -0.1335    3.5177   26.6354 N.am    1  UNL1       -0.2737
      3 C          -1.6233    3.4790   26.4641 C.2     1  UNL1        0.2506
      4 O          -2.4500    2.5455   27.2979 O.2     1  UNL1       -0.2699
      5 C           0.6932    4.4512   25.8016 C.3     1  UNL1        0.0939
      6 C           2.1829    4.4900   25.9729 C.3     1  UNL1        0.0257
      7 C           2.8458    3.5953   26.9779 C.3     1  UNL1        0.0525
      8 C           2.0190    2.6619   27.8116 C.3     1  UNL1        0.2170
      9 C           3.3865    2.3373   28.3356 C.2     1  UNL1        0.2636
     10 O           4.0328    2.8162   28.9029 O.2     1  UNL1       -0.2711
     11 N           4.0283    1.0251   27.9951 N.am    1  UNL1       -0.2732
     12 C           3.3026    0.0372   27.1306 C.3     1  UNL1        0.1149
     13 C           3.9443   -1.2751   26.7900 C.3     1  UNL1        0.1124
     14 N           5.3118   -1.5996   27.3140 N.pl3   1  UNL1       -0.3017
     15 C           6.0376   -0.6118   28.1786 C.3     1  UNL1        0.1124
     16 C           5.3959    0.7005   28.5192 C.3     1  UNL1        0.1149
     17 C           5.9536   -2.9119   26.9735 C.ar    1  UNL1        0.0824
     18 C           6.1574   -3.9463   28.0406 C.ar    1  UNL1        0.0176
     19 C           6.7992   -5.2586   27.7002 C.ar    1  UNL1        0.0015
     20 C           7.2372   -5.5366   26.2927 C.ar    1  UNL1        0.0032
     21 C           7.0333   -4.5022   25.2257 C.ar    1  UNL1        0.0382
     22 C           6.3916   -3.1899   25.5661 C.ar    1  UNL1        0.1517
     23 O           6.1877   -2.1555   24.4990 O.3     1  UNL1       -0.4742
     24 C           5.0305   -2.2730   23.5519 C.3     1  UNL1        0.2059
     25 C           4.8122   -3.5458   22.7888 C.3     1  UNL1        0.0532
     26 C           5.1703   -3.6188   21.3340 C.3     1  UNL1        0.0455
     27 C           4.1202   -3.9622   20.3195 C.2     1  UNL1        0.0505
     28 O           3.3358   -2.8710   19.6531 O.co2   1  UNL1       -0.5492
     29 O           3.8543   -5.3969   19.9714 O.co2   1  UNL1       -0.5492
     30 C          -2.2862    4.3737   25.4591 C.ar    1  UNL1        0.0766
     31 C          -2.3686    3.9547   24.0211 C.ar    1  UNL1        0.1033
     32 N          -3.0316    4.8495   23.0161 N.ar    1  UNL1       -0.2422
     33 C          -3.6120    6.1631   23.4491 C.ar    1  UNL1        0.0988
     34 C          -3.5296    6.5820   24.8870 C.ar    1  UNL1        0.0247
     35 C          -2.8667    5.6873   25.8920 C.ar    1  UNL1        0.0788
     36 C          -2.7842    6.1063   27.3300 C.3     1  UNL1        0.4188
     37 F          -2.7017    6.5252   28.7679 F       1  UNL1       -0.1659
     38 F          -4.0987    5.4364   27.6005 F       1  UNL1       -0.1659
     39 F          -1.4697    6.7762   27.0594 F       1  UNL1       -0.1659
     40 C          -0.2974    1.6896   28.4741 C.3     1  UNL1        0.0239
     41 C          -1.3912   -0.6403   28.8275 C.3     1  UNL1        0.0001
     42 C          -0.6050    0.3096   27.9734 C.3     1  UNL1        0.0018
     43 O           1.6673    1.6157   28.8274 O.3     1  UNL1       -0.4718
     44 C           1.6820    1.9541   30.2887 C.ar    1  UNL1        0.1459
     45 C           2.2277    1.0915   31.3879 C.ar    1  UNL1        0.0722
     46 S           2.0366    1.8187   32.6858 S.2     1  UNL1       -0.0794
     47 C           1.3729    3.1306   32.3887 C.ar    1  UNL1        0.1041
     48 C           1.1537    3.2143   30.9072 C.ar    1  UNL1        0.0478
     49 C           0.9947    4.1756   33.3963 C.3     1  UNL1        0.4242
     50 F           0.6165    5.2204   34.4039 F       1  UNL1       -0.1654
     51 F           0.3416    4.9829   32.3139 F       1  UNL1       -0.1654
     52 F           1.6478    3.3682   34.4787 F       1  UNL1       -0.1654
@<TRIPOS>UNITY_ATOM_ATTR
28 1
charge -1
@<TRIPOS>BOND
     1    41    42    1
     2    42    40    1
     3     1    40    1
     4     1     2    1
     5     2     3   am
     6     3     4    2
     7     3    30    1
     8    30    31   ar
     9    31    32   ar
    10    32    33   ar
    11    33    34   ar
    12    34    35   ar
    13    35    36    1
    14    36    37    1
    15    36    38    1
    16    36    39    1
    17     2     5    1
    18     5     6    1
    19     6     7    1
    20     7     8    1
    21     8    43    1
    22    43    44    1
    23    44    45   ar
    24    45    46   ar
    25    46    47   ar
    26    47    49    1
    27    49    50    1
    28    49    51    1
    29    49    52    1
    30    47    48   ar
    31     8     9    1
    32     9    10    2
    33     9    11   am
    34    11    12    1
    35    12    13    1
    36    13    14    1
    37    14    17    1
    38    17    18   ar
    39    18    19   ar
    40    19    20   ar
    41    20    21   ar
    42    21    22   ar
    43    22    23    1
    44    23    24    1
    45    24    25    1
    46    25    26    1
    47    26    27    1
    48    27    28   ar
    49    27    29   ar
    50    14    15    1
    51    15    16    1
    52     8     1    1
    53    48    44   ar
    54    16    11    1
    55    35    30   ar
    56    22    17   ar
@<TRIPOS>MOLECULE
*****
 52 56 0 0 0
SMALL
GASTEIGER

@<TRIPOS>ATOM
      1 C           1.7891    2.0800   19.6016 C.3     1  UNL1        0.1205
      2 N           3.1337    1.4574   19.3684 N.am    1  UNL1       -0.2737
      3 C           3.2428   -0.0155   19.1057 C.2     1  UNL1        0.2506
      4 O           2.0072   -0.8656   19.0762 O.2     1  UNL1       -0.2699
      5 C           4.3692    2.3074   19.3979 C.3     1  UNL1        0.0939
      6 C           4.2602    3.7802   19.6606 C.3     1  UNL1        0.0257
      7 C           2.9156    4.4029   19.8938 C.3     1  UNL1        0.0525
      8 C           1.6801    3.5528   19.8643 C.3     1  UNL1        0.2170
      9 C           1.0682    4.8919   20.1514 C.2     1  UNL1        0.2636
     10 O           0.9944    5.7326   19.6450 O.2     1  UNL1       -0.2711
     11 N           0.3858    5.1388   21.4642 N.am    1  UNL1       -0.2732
     12 C           0.3153    4.0466   22.4899 C.3     1  UNL1        0.1149
     13 C          -0.3670    4.2935   23.8027 C.3     1  UNL1        0.1124
     14 N          -0.9789    5.6325   24.0898 N.pl3   1  UNL1       -0.3017
     15 C          -0.9085    6.7248   23.0640 C.3     1  UNL1        0.1124
     16 C          -0.2261    6.4779   21.7512 C.3     1  UNL1        0.1149
     17 C          -1.6613    5.8795   25.4025 C.ar    1  UNL1        0.0824
     18 C          -0.8737    6.3893   26.5729 C.ar    1  UNL1        0.0176
     19 C          -1.5560    6.6363   27.8857 C.ar    1  UNL1        0.0015
     20 C          -3.0259    6.3735   28.0282 C.ar    1  UNL1        0.0032
     21 C          -3.8135    5.8636   26.8577 C.ar    1  UNL1        0.0382
     22 C          -3.1312    5.6166   25.5450 C.ar    1  UNL1        0.1517
     23 O          -3.9188    5.1068   24.3746 O.3     1  UNL1       -0.4742
     24 C          -4.3227    3.6635   24.3139 C.3     1  UNL1        0.2059
     25 C          -4.9948    3.1237   23.0863 C.3     1  UNL1        0.0532
     26 C          -5.5863    4.0655   22.0797 C.3     1  UNL1        0.0455
     27 C          -6.9883    4.5686   22.2568 C.2     1  UNL1        0.0505
     28 O          -7.7455    4.2529   23.5125 O.co2   1  UNL1       -0.5492
     29 O          -7.6330    5.3876   21.1780 O.co2   1  UNL1       -0.5492
     30 C           4.5873   -0.6382   18.8725 C.ar    1  UNL1        0.0766
     31 C           5.2842   -0.4477   17.5579 C.ar    1  UNL1        0.1033
     32 N           6.6288   -1.0705   17.3248 N.ar    1  UNL1       -0.2422
     33 C           7.2765   -1.8836   18.4061 C.ar    1  UNL1        0.0988
     34 C           6.5796   -2.0740   19.7207 C.ar    1  UNL1        0.0247
     35 C           5.2350   -1.4513   19.9539 C.ar    1  UNL1        0.0788
     36 C           4.5382   -1.6417   21.2685 C.3     1  UNL1        0.4188
     37 F           3.8413   -1.8321   22.5830 F       1  UNL1       -0.1659
     38 F           3.9171   -2.9073   20.7559 F       1  UNL1       -0.1659
     39 F           5.1592   -0.3761   21.7810 F       1  UNL1       -0.1659
     40 C           0.5536    1.2299   19.5722 C.3     1  UNL1        0.0239
     41 C           0.9636    0.5478   22.0453 C.3     1  UNL1        0.0001
     42 C           0.1336    0.4745   20.7981 C.3     1  UNL1        0.0018
     43 O           0.2321    3.1678   19.9346 O.3     1  UNL1       -0.4718
     44 C          -0.7059    3.5730   18.8364 C.ar    1  UNL1        0.1459
     45 C          -0.3622    3.6872   17.3807 C.ar    1  UNL1        0.0722
     46 S          -1.5961    4.1199   16.6457 S.2     1  UNL1       -0.0794
     47 C          -2.7024    4.2730   17.6471 C.ar    1  UNL1        0.1041
     48 C          -2.1522    3.9350   19.0010 C.ar    1  UNL1        0.0478
     49 C          -4.1115    4.6908   17.3472 C.3     1  UNL1        0.4242
     50 F          -5.5206    5.1087   17.0474 F       1  UNL1       -0.1654
     51 F          -4.5234    3.2503   17.2757 F       1  UNL1       -0.1654
     52 F          -3.6996    6.1314   17.4188 F       1  UNL1       -0.1654
@<TRIPOS>UNITY_ATOM_ATTR
28 1
charge -1
@<TRIPOS>BOND
     1    41    42    1
     2    42    40    1
     3     1    40    1
     4     1     2    1
     5     2     3   am
     6     3     4    2
     7     3    30    1
     8    30    31   ar
     9    31    32   ar
    10    32    33   ar
    11    33    34   ar
    12    34    35   ar
    13    35    36    1
    14    36    37    1
    15    36    38    1
    16    36    39    1
    17     2     5    1
    18     5     6    1
    19     6     7    1
    20     7     8    1
    21     8    43    1
    22    43    44    1
    23    44    45   ar
    24    45    46   ar
    25    46    47   ar
    26    47    49    1
    27    49    50    1
    28    49    51    1
    29    49    52    1
    30    47    48   ar
    31     8     9    1
    32     9    10    2
    33     9    11   am
    34    11    12    1
    35    12    13    1
    36    13    14    1
    37    14    17    1
    38    17    18   ar
    39    18    19   ar
    40    19    20   ar
    41    20    21   ar
    42    21    22   ar
    43    22    23    1
    44    23    24    1
    45    24    25    1
    46    25    26    1
    47    26    27    1
    48    27    28   ar
    49    27    29   ar
    50    14    15    1
    51    15    16    1
    52     8     1    1
    53    48    44   ar
    54    16    11    1
    55    35    30   ar
    56    22    17   ar
@<TRIPOS>MOLECULE
*****
 52 56 0 0 0
SMALL
GASTEIGER

@<TRIPOS>ATOM
      1 C           1.8778    2.2829   28.5972 C.3     1  UNL1        0.1205
      2 N           2.3066    1.1070   29.4238 N.am    1  UNL1       -0.2737
      3 C           3.6065    1.1495   30.1711 C.2     1  UNL1        0.2506
      4 O           4.4777    2.3680   30.0917 O.2     1  UNL1       -0.2699
      5 C           1.4354   -0.1115   29.5031 C.3     1  UNL1        0.0939
      6 C           0.1355   -0.1541   28.7559 C.3     1  UNL1        0.0257
      7 C          -0.2932    1.0218   27.9293 C.3     1  UNL1        0.0525
      8 C           0.5780    2.2403   27.8499 C.3     1  UNL1        0.2170
      9 C          -0.5562    2.6731   26.9688 C.2     1  UNL1        0.2636
     10 O          -1.4951    2.9182   27.1337 O.2     1  UNL1       -0.2711
     11 N          -0.3493    2.8018   25.4887 N.am    1  UNL1       -0.2732
     12 C           0.9919    2.4978   24.8897 C.3     1  UNL1        0.1149
     13 C           1.1989    2.6265   23.4097 C.3     1  UNL1        0.1124
     14 N           0.0648    3.0593   22.5286 N.pl3   1  UNL1       -0.3017
     15 C          -1.2764    3.3634   23.1276 C.3     1  UNL1        0.1124
     16 C          -1.4834    3.2346   24.6076 C.3     1  UNL1        0.1149
     17 C           0.2717    3.1880   21.0486 C.ar    1  UNL1        0.0824
     18 C           0.4596    4.5428   20.4326 C.ar    1  UNL1        0.0176
     19 C           0.6665    4.6716   18.9526 C.ar    1  UNL1        0.0015
     20 C           0.6856    3.4457   18.0884 C.ar    1  UNL1        0.0032
     21 C           0.4977    2.0909   18.7044 C.ar    1  UNL1        0.0382
     22 C           0.2908    1.9621   20.1844 C.ar    1  UNL1        0.1517
     23 O           0.1029    0.6073   20.8004 O.3     1  UNL1       -0.4742
     24 C           0.8057   -0.5842   20.2204 C.3     1  UNL1        0.2059
     25 C           2.2298   -0.8706   20.5947 C.3     1  UNL1        0.0532
     26 C           3.1362   -1.5638   19.6212 C.3     1  UNL1        0.0455
     27 C           3.6407   -2.9447   19.9189 C.2     1  UNL1        0.0505
     28 O           4.6436   -3.1570   21.0139 O.co2   1  UNL1       -0.5492
     29 O           3.1421   -4.1134   19.1215 O.co2   1  UNL1       -0.5492
     30 C           4.0352   -0.0264   30.9977 C.ar    1  UNL1        0.0766
     31 C           3.4794   -0.2154   32.3781 C.ar    1  UNL1        0.1033
     32 N           3.9082   -1.3915   33.2047 N.ar    1  UNL1       -0.2422
     33 C           4.8927   -2.3784   32.6509 C.ar    1  UNL1        0.0988
     34 C           5.4485   -2.1894   31.2706 C.ar    1  UNL1        0.0247
     35 C           5.0198   -1.0134   30.4440 C.ar    1  UNL1        0.0788
     36 C           5.5756   -0.8244   29.0636 C.3     1  UNL1        0.4188
     37 F           6.1314   -0.6354   27.6833 F       1  UNL1       -0.1659
     38 F           4.4167   -1.5866   28.4926 F       1  UNL1       -0.1659
     39 F           6.7345   -0.0623   29.6346 F       1  UNL1       -0.1659
     40 C           2.7490    3.5014   28.5178 C.3     1  UNL1        0.0239
     41 C           4.2363    2.3904   26.7003 C.3     1  UNL1        0.0001
     42 C           3.7816    3.6160   27.4359 C.3     1  UNL1        0.0018
     43 O           1.0552    3.6091   27.4645 O.3     1  UNL1       -0.4718
     44 C           0.3833    4.8248   28.0308 C.ar    1  UNL1        0.1459
     45 C           0.0567    6.0818   27.2803 C.ar    1  UNL1        0.0722
     46 S          -0.6084    7.0308   28.2326 S.2     1  UNL1       -0.0794
     47 C          -0.6929    6.3602   29.5718 C.ar    1  UNL1        0.1041
     48 C          -0.0800    4.9969   29.4470 C.ar    1  UNL1        0.0478
     49 C          -1.2862    6.9496   30.8171 C.3     1  UNL1        0.4242
     50 F          -1.8794    7.5389   32.0624 F       1  UNL1       -0.1654
     51 F          -2.6002    7.1148   30.1129 F       1  UNL1       -0.1654
     52 F           0.0279    6.7844   31.5212 F       1  UNL1       -0.1654
@<TRIPOS>UNITY_ATOM_ATTR
28 1
charge -1
@<TRIPOS>BOND
     1    41    42    1
     2    42    40    1
     3     1    40    1
     4     1     2    1
     5     2     3   am
     6     3     4    2
     7     3    30    1
     8    30    31   ar
     9    31    32   ar
    10    32    33   ar
    11    33    34   ar
    12    34    35   ar
    13    35    36    1
    14    36    37    1
    15    36    38    1
    16    36    39    1
    17     2     5    1
    18     5     6    1
    19     6     7    1
    20     7     8    1
    21     8    43    1
    22    43    44    1
    23    44    45   ar
    24    45    46   ar
    25    46    47   ar
    26    47    49    1
    27    49    50    1
    28    49    51    1
    29    49    52    1
    30    47    48   ar
    31     8     9    1
    32     9    10    2
    33     9    11   am
    34    11    12    1
    35    12    13    1
    36    13    14    1
    37    14    17    1
    38    17    18   ar
    39    18    19   ar
    40    19    20   ar
    41    20    21   ar
    42    21    22   ar
    43    22    23    1
    44    23    24    1
    45    24    25    1
    46    25    26    1
    47    26    27    1
    48    27    28   ar
    49    27    29   ar
    50    14    15    1
    51    15    16    1
    52     8     1    1
    53    48    44   ar
    54    16    11    1
    55    35    30   ar
    56    22    17   ar
@<TRIPOS>MOLECULE
*****
 52 56 0 0 0
SMALL
GASTEIGER

@<TRIPOS>ATOM
      1 C           2.0940    1.6158   28.1151 C.3     1  UNL1        0.1205
      2 N           3.4819    1.0481   28.1518 N.am    1  UNL1       -0.2737
      3 C           3.6907   -0.4316   28.0213 C.2     1  UNL1        0.2506
      4 O           2.5116   -1.3435   27.8540 O.2     1  UNL1       -0.2699
      5 C           4.6611    1.9601   28.3191 C.3     1  UNL1        0.0939
      6 C           4.4523    3.4397   28.4496 C.3     1  UNL1        0.0257
      7 C           3.0644    4.0074   28.4129 C.3     1  UNL1        0.0525
      8 C           1.8852    3.0954   28.2456 C.3     1  UNL1        0.2170
      9 C           1.1822    4.4179   28.3280 C.2     1  UNL1        0.2636
     10 O           0.9427    5.1073   27.6675 O.2     1  UNL1       -0.2711
     11 N           0.6819    4.9204   29.6498 N.am    1  UNL1       -0.2732
     12 C           0.8847    4.1003   30.8893 C.3     1  UNL1        0.1149
     13 C           0.3844    4.6027   32.2111 C.3     1  UNL1        0.1124
     14 N          -0.3186    5.9252   32.2935 N.pl3   1  UNL1       -0.3017
     15 C          -0.5214    6.7452   31.0540 C.3     1  UNL1        0.1124
     16 C          -0.0212    6.2428   29.7321 C.3     1  UNL1        0.1149
     17 C          -0.8189    6.4277   33.6153 C.ar    1  UNL1        0.0824
     18 C          -2.1703    7.0718   33.7100 C.ar    1  UNL1        0.0176
     19 C          -2.6706    7.5743   35.0317 C.ar    1  UNL1        0.0015
     20 C          -1.8197    7.4327   36.2589 C.ar    1  UNL1        0.0032
     21 C          -0.4683    6.7885   36.1642 C.ar    1  UNL1        0.0382
     22 C           0.0320    6.2860   34.8424 C.ar    1  UNL1        0.1517
     23 O           1.3834    5.6419   34.7477 O.3     1  UNL1       -0.4742
     24 C           1.6043    4.2743   35.3231 C.3     1  UNL1        0.2059
     25 C           1.9443    4.1178   36.7757 C.3     1  UNL1        0.0532
     26 C           2.8094    2.9776   37.2247 C.3     1  UNL1        0.0455
     27 C           2.3788    2.1178   38.3760 C.2     1  UNL1        0.0505
     28 O           0.9287    1.7807   38.5592 O.co2   1  UNL1       -0.5492
     29 O           3.3984    1.5951   39.3441 O.co2   1  UNL1       -0.5492
     30 C           5.0786   -0.9992   28.0580 C.ar    1  UNL1        0.0766
     31 C           5.6815   -1.4223   29.3648 C.ar    1  UNL1        0.1033
     32 N           7.0695   -1.9901   29.4015 N.ar    1  UNL1       -0.2422
     33 C           7.8545   -2.1346   28.1315 C.ar    1  UNL1        0.0988
     34 C           7.2516   -1.7115   26.8248 C.ar    1  UNL1        0.0247
     35 C           5.8637   -1.1439   26.7881 C.ar    1  UNL1        0.0788
     36 C           5.2608   -0.7207   25.4813 C.3     1  UNL1        0.4188
     37 F           4.6579   -0.2976   24.1746 F       1  UNL1       -0.1659
     38 F           4.5976   -2.0601   25.3537 F       1  UNL1       -0.1659
     39 F           5.9240    0.6186   25.6090 F       1  UNL1       -0.1659
     40 C           0.9149    0.7039   27.9478 C.3     1  UNL1        0.0239
     41 C          -1.2158   -0.3129   29.0323 C.3     1  UNL1        0.0001
     42 C           0.1963    0.1779   29.1548 C.3     1  UNL1        0.0018
     43 O           0.4619    2.6429   28.1069 O.3     1  UNL1       -0.4718
     44 C          -0.2739    2.8655   26.8189 C.ar    1  UNL1        0.1459
     45 C           0.3357    2.8924   25.4486 C.ar    1  UNL1        0.0722
     46 S          -0.7621    3.1439   24.4578 S.2     1  UNL1       -0.0794
     47 C          -2.0501    3.2724   25.2158 C.ar    1  UNL1        0.1041
     48 C          -1.7484    3.1004   26.6750 C.ar    1  UNL1        0.0478
     49 C          -3.4025    3.5281   24.6193 C.3     1  UNL1        0.4242
     50 F          -4.7548    3.7838   24.0227 F       1  UNL1       -0.1654
     51 F          -4.0072    3.5321   25.9919 F       1  UNL1       -0.1654
     52 F          -2.7977    3.5242   23.2466 F       1  UNL1       -0.1654
@<TRIPOS>UNITY_ATOM_ATTR
28 1
charge -1
@<TRIPOS>BOND
     1    41    42    1
     2    42    40    1
     3     1    40    1
     4     1     2    1
     5     2     3   am
     6     3     4    2
     7     3    30    1
     8    30    31   ar
     9    31    32   ar
    10    32    33   ar
    11    33    34   ar
    12    34    35   ar
    13    35    36    1
    14    36    37    1
    15    36    38    1
    16    36    39    1
    17     2     5    1
    18     5     6    1
    19     6     7    1
    20     7     8    1
    21     8    43    1
    22    43    44    1
    23    44    45   ar
    24    45    46   ar
    25    46    47   ar
    26    47    49    1
    27    49    50    1
    28    49    51    1
    29    49    52    1
    30    47    48   ar
    31     8     9    1
    32     9    10    2
    33     9    11   am
    34    11    12    1
    35    12    13    1
    36    13    14    1
    37    14    17    1
    38    17    18   ar
    39    18    19   ar
    40    19    20   ar
    41    20    21   ar
    42    21    22   ar
    43    22    23    1
    44    23    24    1
    45    24    25    1
    46    25    26    1
    47    26    27    1
    48    27    28   ar
    49    27    29   ar
    50    14    15    1
    51    15    16    1
    52     8     1    1
    53    48    44   ar
    54    16    11    1
    55    35    30   ar
    56    22    17   ar
