@<TRIPOS>MOLECULE
*****
 32 34 0 0 0
SMALL
GASTEIGER

@<TRIPOS>ATOM
      1 C          -7.5541  -19.0350   20.0007 C.ar    1  UNL1        0.0505
      2 C          -8.0590  -19.6974   18.7531 C.ar    1  UNL1        0.0170
      3 C          -9.4980  -20.1081   18.6518 C.ar    1  UNL1        0.0306
      4 C         -10.4323  -19.8565   19.7981 C.ar    1  UNL1        0.1380
      5 F         -11.8714  -20.2673   19.6967 F       1  UNL1       -0.2044
      6 C          -9.9275  -19.1942   21.0456 C.ar    1  UNL1        0.0293
      7 C          -8.4884  -18.7834   21.1469 C.ar    1  UNL1        0.0145
      8 C         -10.8618  -18.9426   22.1918 C.3     1  UNL1        0.1432
      9 C         -10.0286  -20.0465   22.7724 C.3     1  UNL1        0.0321
     10 N         -11.3705  -17.9260   21.2132 N.2     1  UNL1       -0.2214
     11 C         -12.5241  -17.0412   21.5824 C.2     1  UNL1        0.2769
     12 N         -13.0328  -16.0246   20.6038 N.pl3   1  UNL1       -0.3133
     13 O         -13.1690  -17.1730   22.9303 O.2     1  UNL1       -0.4480
     14 C         -12.6603  -18.1896   23.9089 C.3     1  UNL1        0.2383
     15 C         -11.5067  -19.0744   23.5396 C.3     1  UNL1        0.2277
     16 F         -10.9980  -20.0910   24.5183 F       1  UNL1       -0.2309
     17 H         -12.6096  -15.9380   19.7191 H       1  UNL1        0.1466
     18 H         -13.7900  -15.4439   20.8461 H       1  UNL1        0.1466
     19 C         -13.3052  -18.3214   25.2568 C.3     1  UNL1        0.2394
     20 F         -14.7624  -18.6616   25.3609 F       1  UNL1       -0.2302
     21 C          -5.0430  -19.6678   20.2103 C.2     1  UNL1        0.2688
     22 O          -5.4101  -21.1221   20.2171 O.2     1  UNL1       -0.2681
     23 N          -6.1150  -18.6242   20.1021 N.am    1  UNL1       -0.2791
     24 H          -5.8741  -17.6696   20.0976 H       1  UNL1        0.1552
     25 C          -0.7258  -18.4354   20.5143 C.ar    1  UNL1        0.2449
     26 C          -1.4970  -18.1621   19.2572 C.ar    1  UNL1        0.1565
     27 N          -2.9361  -18.5728   19.1558 N.ar    1  UNL1       -0.2328
     28 C          -3.6039  -19.2570   20.3116 C.ar    1  UNL1        0.1541
     29 C          -2.8327  -19.5304   21.5687 C.ar    1  UNL1        0.1258
     30 N          -1.3936  -19.1196   21.6700 N.ar    1  UNL1       -0.2071
     31 C           1.2050  -16.8231   19.8644 C.3     1  UNL1        0.2543
     32 O           0.7133  -18.0247   20.6156 O.3     1  UNL1       -0.4551
@<TRIPOS>BOND
     1    31    32    1
     2    32    25    1
     3    25    26   ar
     4    26    27   ar
     5    27    28   ar
     6    28    21    1
     7    21    22    2
     8    21    23   am
     9    23     1    1
    10     1     2   ar
    11     2     3   ar
    12     3     4   ar
    13     4     5    1
    14     4     6   ar
    15     6     8    1
    16     8     9    1
    17     8    10    1
    18    10    11    2
    19    11    12    1
    20    11    13    1
    21    13    14    1
    22    14    19    1
    23    19    20    1
    24    14    15    1
    25    15    16    1
    26     6     7   ar
    27    28    29   ar
    28    29    30   ar
    29    30    25   ar
    30     7     1   ar
    31    15     8    1
    32    23    24    1
    33    12    17    1
    34    12    18    1
@<TRIPOS>MOLECULE
*****
 32 34 0 0 0
SMALL
GASTEIGER

@<TRIPOS>ATOM
      1 C          -7.6988  -18.9843   19.9516 C.ar    1  UNL1        0.0505
      2 C          -8.2070  -19.6678   18.7169 C.ar    1  UNL1        0.0170
      3 C          -9.6553  -20.0435   18.6098 C.ar    1  UNL1        0.0306
      4 C         -10.5953  -19.7357   19.7376 C.ar    1  UNL1        0.1380
      5 F         -12.0435  -20.1113   19.6306 F       1  UNL1       -0.2044
      6 C         -10.0870  -19.0522   20.9723 C.ar    1  UNL1        0.0293
      7 C          -8.6388  -18.6765   21.0793 C.ar    1  UNL1        0.0145
      8 C         -11.0270  -18.7444   22.0999 C.3     1  UNL1        0.1432
      9 C         -11.5590  -17.8091   21.0548 C.3     1  UNL1        0.0321
     10 N         -10.1686  -19.7865   22.7535 N.2     1  UNL1       -0.2214
     11 C         -10.4350  -20.1960   24.1717 C.2     1  UNL1        0.2769
     12 N          -9.5765  -21.2381   24.8253 N.pl3   1  UNL1       -0.3133
     13 O         -11.5597  -19.5634   24.9364 O.2     1  UNL1       -0.4480
     14 C         -12.4181  -18.5212   24.2828 C.3     1  UNL1        0.2383
     15 C         -12.1517  -18.1118   22.8646 C.3     1  UNL1        0.2277
     16 F         -13.0101  -17.0696   22.2110 F       1  UNL1       -0.2309
     17 H          -8.8383  -21.6533   24.3234 H       1  UNL1        0.1466
     18 H          -9.7514  -21.5069   25.7561 H       1  UNL1        0.1466
     19 C         -13.5428  -17.8886   25.0475 C.3     1  UNL1        0.2394
     20 F         -14.3828  -18.7201   25.9711 F       1  UNL1       -0.2302
     21 C          -5.2081  -19.6762   20.2121 C.2     1  UNL1        0.2688
     22 O          -5.6140  -21.1195   20.2585 O.2     1  UNL1       -0.2681
     23 N          -6.2505  -18.6086   20.0586 N.am    1  UNL1       -0.2791
     24 H          -5.9842  -17.6613   20.0282 H       1  UNL1        0.1552
     25 C          -0.8634  -18.5492   20.5331 C.ar    1  UNL1        0.2449
     26 C          -1.6537  -18.1520   19.3217 C.ar    1  UNL1        0.1565
     27 N          -3.1020  -18.5277   19.2147 N.ar    1  UNL1       -0.2328
     28 C          -3.7599  -19.3005   20.3191 C.ar    1  UNL1        0.1541
     29 C          -2.9696  -19.6977   21.5305 C.ar    1  UNL1        0.1258
     30 N          -1.5213  -19.3221   21.6375 N.ar    1  UNL1       -0.2071
     31 C           1.1142  -17.0001   19.8702 C.3     1  UNL1        0.2543
     32 O           0.5848  -18.1735   20.6402 O.3     1  UNL1       -0.4551
@<TRIPOS>BOND
     1    31    32    1
     2    32    25    1
     3    25    26   ar
     4    26    27   ar
     5    27    28   ar
     6    28    21    1
     7    21    22    2
     8    21    23   am
     9    23     1    1
    10     1     2   ar
    11     2     3   ar
    12     3     4   ar
    13     4     5    1
    14     4     6   ar
    15     6     8    1
    16     8     9    1
    17     8    10    1
    18    10    11    2
    19    11    12    1
    20    11    13    1
    21    13    14    1
    22    14    19    1
    23    19    20    1
    24    14    15    1
    25    15    16    1
    26     6     7   ar
    27    28    29   ar
    28    29    30   ar
    29    30    25   ar
    30     7     1   ar
    31    15     8    1
    32    23    24    1
    33    12    17    1
    34    12    18    1
@<TRIPOS>MOLECULE
*****
 32 34 0 0 0
SMALL
GASTEIGER

@<TRIPOS>ATOM
      1 C           0.7269    0.8415   20.0414 C.ar    1  UNL1        0.0505
      2 C           1.1620    1.2902   18.6778 C.ar    1  UNL1        0.0170
      3 C           2.4601    0.8020   18.1063 C.ar    1  UNL1        0.0306
      4 C           3.3231   -0.1349   18.8984 C.ar    1  UNL1        0.1380
      5 F           4.6212   -0.6231   18.3269 F       1  UNL1       -0.2044
      6 C           2.8881   -0.5836   20.2620 C.ar    1  UNL1        0.0293
      7 C           1.5900   -0.0954   20.8335 C.ar    1  UNL1        0.0145
      8 C           3.7511   -1.5205   21.0540 C.3     1  UNL1        0.1432
      9 C           3.8525   -0.2900   21.9059 C.3     1  UNL1        0.0321
     10 N           3.3501   -2.4257   19.9272 N.2     1  UNL1       -0.2214
     11 C           3.8473   -3.8403   19.8883 C.2     1  UNL1        0.2769
     12 N           3.4462   -4.7455   18.7614 N.pl3   1  UNL1       -0.3133
     13 O           4.7455   -4.3498   20.9761 O.2     1  UNL1       -0.4480
     14 C           5.1466   -3.4446   22.1030 C.3     1  UNL1        0.2383
     15 C           4.6494   -2.0300   22.1419 C.3     1  UNL1        0.2277
     16 F           5.0505   -1.1248   23.2688 F       1  UNL1       -0.2309
     17 H           2.8566   -4.4111   18.0473 H       1  UNL1        0.1466
     18 H           3.7725   -5.6740   18.7358 H       1  UNL1        0.1466
     19 C           6.0449   -3.9542   23.1909 C.3     1  UNL1        0.2394
     20 F           5.7719   -3.5911   24.6204 F       1  UNL1       -0.2302
     21 C          -0.6965    2.7478   21.0853 C.2     1  UNL1        0.2688
     22 O           0.4762    3.6777   20.9861 O.2     1  UNL1       -0.2681
     23 N          -0.5711    1.3297   20.6130 N.am    1  UNL1       -0.2791
     24 H          -1.3408    0.7193   20.6781 H       1  UNL1        0.1552
     25 C          -4.5908    4.2124   22.7998 C.ar    1  UNL1        0.2449
     26 C          -4.5878    3.3634   21.5632 C.ar    1  UNL1        0.1565
     27 N          -3.2898    2.8752   20.9917 N.ar    1  UNL1       -0.2328
     28 C          -1.9946    3.2360   21.6568 C.ar    1  UNL1        0.1541
     29 C          -1.9975    4.0849   22.8934 C.ar    1  UNL1        0.1258
     30 N          -3.2956    4.5731   23.4649 N.ar    1  UNL1       -0.2071
     31 C          -7.1735    4.4451   22.6403 C.3     1  UNL1        0.2543
     32 O          -5.8889    4.7006   23.3714 O.3     1  UNL1       -0.4551
@<TRIPOS>BOND
     1    31    32    1
     2    32    25    1
     3    25    26   ar
     4    26    27   ar
     5    27    28   ar
     6    28    21    1
     7    21    22    2
     8    21    23   am
     9    23     1    1
    10     1     2   ar
    11     2     3   ar
    12     3     4   ar
    13     4     5    1
    14     4     6   ar
    15     6     8    1
    16     8     9    1
    17     8    10    1
    18    10    11    2
    19    11    12    1
    20    11    13    1
    21    13    14    1
    22    14    19    1
    23    19    20    1
    24    14    15    1
    25    15    16    1
    26     6     7   ar
    27    28    29   ar
    28    29    30   ar
    29    30    25   ar
    30     7     1   ar
    31    15     8    1
    32    23    24    1
    33    12    17    1
    34    12    18    1
@<TRIPOS>MOLECULE
*****
 32 34 0 0 0
SMALL
GASTEIGER

@<TRIPOS>ATOM
      1 C          -5.8218  -16.0376   24.2778 C.ar    1  UNL1        0.0505
      2 C          -5.7907  -15.3538   25.6126 C.ar    1  UNL1        0.0170
      3 C          -7.0614  -15.1607   26.3860 C.ar    1  UNL1        0.0306
      4 C          -8.3630  -15.6513   25.8246 C.ar    1  UNL1        0.1380
      5 F          -9.6337  -15.4581   26.5980 F       1  UNL1       -0.2044
      6 C          -8.3940  -16.3349   24.4899 C.ar    1  UNL1        0.0293
      7 C          -7.1234  -16.5281   23.7165 C.ar    1  UNL1        0.0145
      8 C          -9.6956  -16.8255   23.9286 C.3     1  UNL1        0.1432
      9 C          -9.6676  -17.5841   25.2223 C.3     1  UNL1        0.0321
     10 N          -9.2718  -15.8966   22.8297 N.2     1  UNL1       -0.2214
     11 C         -10.1397  -15.7217   21.6189 C.2     1  UNL1        0.2769
     12 N          -9.7157  -14.7927   20.5201 N.pl3   1  UNL1       -0.3133
     13 O         -11.4315  -16.4756   21.5069 O.2     1  UNL1       -0.4480
     14 C         -11.8555  -17.4046   22.6057 C.3     1  UNL1        0.2383
     15 C         -10.9875  -17.5795   23.8165 C.3     1  UNL1        0.2277
     16 F         -11.4114  -18.5084   24.9153 F       1  UNL1       -0.2309
     17 H          -8.8678  -14.2978   20.5936 H       1  UNL1        0.1466
     18 H         -10.2854  -14.6779   19.7254 H       1  UNL1        0.1466
     19 C         -13.1473  -18.1586   22.4937 C.3     1  UNL1        0.2394
     20 F         -14.1219  -18.1503   23.6339 F       1  UNL1       -0.2302
     21 C          -4.3167  -17.5081   22.7539 C.2     1  UNL1        0.2688
     22 O          -5.3530  -18.5923   22.7767 O.2     1  UNL1       -0.2681
     23 N          -4.5511  -16.2307   23.5044 N.am    1  UNL1       -0.2791
     24 H          -3.8710  -15.5191   23.4894 H       1  UNL1        0.1552
     25 C          -0.5048  -18.0875   20.4337 C.ar    1  UNL1        0.2449
     26 C          -1.0077  -16.7029   20.7162 C.ar    1  UNL1        0.1565
     27 N          -2.2784  -16.5097   21.4896 N.ar    1  UNL1       -0.2328
     28 C          -3.0461  -17.7012   21.9805 C.ar    1  UNL1        0.1541
     29 C          -2.5431  -19.0858   21.6979 C.ar    1  UNL1        0.1258
     30 N          -1.2725  -19.2789   20.9245 N.ar    1  UNL1       -0.2071
     31 C           2.0347  -17.6320   20.1283 C.3     1  UNL1        0.2543
     32 O           0.7659  -18.2806   19.6603 O.3     1  UNL1       -0.4551
@<TRIPOS>BOND
     1    31    32    1
     2    32    25    1
     3    25    26   ar
     4    26    27   ar
     5    27    28   ar
     6    28    21    1
     7    21    22    2
     8    21    23   am
     9    23     1    1
    10     1     2   ar
    11     2     3   ar
    12     3     4   ar
    13     4     5    1
    14     4     6   ar
    15     6     8    1
    16     8     9    1
    17     8    10    1
    18    10    11    2
    19    11    12    1
    20    11    13    1
    21    13    14    1
    22    14    19    1
    23    19    20    1
    24    14    15    1
    25    15    16    1
    26     6     7   ar
    27    28    29   ar
    28    29    30   ar
    29    30    25   ar
    30     7     1   ar
    31    15     8    1
    32    23    24    1
    33    12    17    1
    34    12    18    1
@<TRIPOS>MOLECULE
*****
 32 34 0 0 0
SMALL
GASTEIGER

@<TRIPOS>ATOM
      1 C          -5.8715  -16.1749   24.4664 C.ar    1  UNL1        0.0505
      2 C          -5.7997  -15.6200   25.8581 C.ar    1  UNL1        0.0170
      3 C          -7.0537  -15.4505   26.6636 C.ar    1  UNL1        0.0306
      4 C          -8.3795  -15.8359   26.0772 C.ar    1  UNL1        0.1380
      5 F          -9.6335  -15.6664   26.8827 F       1  UNL1       -0.2044
      6 C          -8.4513  -16.3908   24.6855 C.ar    1  UNL1        0.0293
      7 C          -7.1973  -16.5603   23.8801 C.ar    1  UNL1        0.0145
      8 C          -9.7770  -16.7763   24.0993 C.3     1  UNL1        0.1432
      9 C          -9.6739  -15.3642   23.6039 C.3     1  UNL1        0.0321
     10 N          -9.4199  -18.0545   24.7982 N.2     1  UNL1       -0.2214
     11 C         -10.3526  -19.2277   24.7388 C.2     1  UNL1        0.2769
     12 N          -9.9954  -20.5060   25.4378 N.pl3   1  UNL1       -0.3133
     13 O         -11.6426  -19.1227   23.9805 O.2     1  UNL1       -0.4480
     14 C         -11.9998  -17.8445   23.2815 C.3     1  UNL1        0.2383
     15 C         -11.0670  -16.6713   23.3410 C.3     1  UNL1        0.2277
     16 F         -11.4242  -15.3930   22.6420 F       1  UNL1       -0.2309
     17 H          -9.1488  -20.5749   25.9355 H       1  UNL1        0.1466
     18 H         -10.6076  -21.2760   25.3988 H       1  UNL1        0.1466
     19 C         -13.2897  -17.7395   22.5232 C.3     1  UNL1        0.2394
     20 F         -13.2729  -17.4570   21.0502 F       1  UNL1       -0.2302
     21 C          -4.4104  -17.5880   22.8482 C.2     1  UNL1        0.2688
     22 O          -5.4574  -18.6621   22.8409 O.2     1  UNL1       -0.2681
     23 N          -4.6175  -16.3444   23.6609 N.am    1  UNL1       -0.2791
     24 H          -3.9303  -15.6394   23.6657 H       1  UNL1        0.1552
     25 C          -0.6484  -18.0965   20.4319 C.ar    1  UNL1        0.2449
     26 C          -1.1891  -16.7228   20.6978 C.ar    1  UNL1        0.1565
     27 N          -2.4431  -16.5533   21.5033 N.ar    1  UNL1       -0.2328
     28 C          -3.1564  -17.7575   22.0428 C.ar    1  UNL1        0.1541
     29 C          -2.6158  -19.1311   21.7768 C.ar    1  UNL1        0.1258
     30 N          -1.3618  -19.3006   20.9714 N.ar    1  UNL1       -0.2071
     31 C           1.8455  -17.5093   20.0009 C.3     1  UNL1        0.2543
     32 O           0.6056  -18.2660   19.6265 O.3     1  UNL1       -0.4551
@<TRIPOS>BOND
     1    31    32    1
     2    32    25    1
     3    25    26   ar
     4    26    27   ar
     5    27    28   ar
     6    28    21    1
     7    21    22    2
     8    21    23   am
     9    23     1    1
    10     1     2   ar
    11     2     3   ar
    12     3     4   ar
    13     4     5    1
    14     4     6   ar
    15     6     8    1
    16     8     9    1
    17     8    10    1
    18    10    11    2
    19    11    12    1
    20    11    13    1
    21    13    14    1
    22    14    19    1
    23    19    20    1
    24    14    15    1
    25    15    16    1
    26     6     7   ar
    27    28    29   ar
    28    29    30   ar
    29    30    25   ar
    30     7     1   ar
    31    15     8    1
    32    23    24    1
    33    12    17    1
    34    12    18    1
@<TRIPOS>MOLECULE
*****
 32 34 0 0 0
SMALL
GASTEIGER

@<TRIPOS>ATOM
      1 C           5.5785   -2.0597   20.2077 C.ar    1  UNL1        0.0505
      2 C           5.6959   -2.9460   19.0032 C.ar    1  UNL1        0.0170
      3 C           5.0386   -2.5506   17.7141 C.ar    1  UNL1        0.0306
      4 C           4.2640   -1.2689   17.6296 C.ar    1  UNL1        0.1380
      5 F           3.6067   -0.8735   16.3405 F       1  UNL1       -0.2044
      6 C           4.1466   -0.3826   18.8340 C.ar    1  UNL1        0.0293
      7 C           4.8039   -0.7780   20.1230 C.ar    1  UNL1        0.0145
      8 C           3.3720    0.8991   18.7494 C.3     1  UNL1        0.1432
      9 C           4.6627    1.3329   18.1201 C.3     1  UNL1        0.0321
     10 N           2.3503    0.0204   19.4080 N.2     1  UNL1       -0.2214
     11 C           1.0022    0.5739   19.7634 C.2     1  UNL1        0.2769
     12 N          -0.0195   -0.3050   20.4221 N.pl3   1  UNL1       -0.3133
     13 O           0.6759    2.0062   19.4603 O.2     1  UNL1       -0.4480
     14 C           1.6976    2.8850   18.8017 C.3     1  UNL1        0.2383
     15 C           3.0456    2.3314   18.4462 C.3     1  UNL1        0.2277
     16 F           4.0674    3.2103   17.7876 F       1  UNL1       -0.2309
     17 H           0.1947   -1.2451   20.6211 H       1  UNL1        0.1466
     18 H          -0.9043    0.0583   20.6554 H       1  UNL1        0.1466
     19 C           1.3712    4.3173   18.4985 C.3     1  UNL1        0.2394
     20 F           1.7231    4.9001   17.1619 F       1  UNL1       -0.2302
     21 C           5.7017   -3.6130   22.2866 C.2     1  UNL1        0.2688
     22 O           4.5104   -4.3755   21.7874 O.2     1  UNL1       -0.2681
     23 N           6.2358   -2.4551   21.4967 N.am    1  UNL1       -0.2791
     24 H           7.0177   -1.9546   21.8243 H       1  UNL1        0.1552
     25 C           7.6735   -4.7992   26.1537 C.ar    1  UNL1        0.2449
     26 C           7.9091   -5.6081   24.9128 C.ar    1  UNL1        0.1565
     27 N           7.2518   -5.2127   23.6237 N.ar    1  UNL1       -0.2328
     28 C           6.3590   -4.0084   23.5756 C.ar    1  UNL1        0.1541
     29 C           6.1234   -3.1994   24.8166 C.ar    1  UNL1        0.1258
     30 N           6.7807   -3.5948   26.1057 N.ar    1  UNL1       -0.2071
     31 C           7.5075   -5.7599   28.5619 C.3     1  UNL1        0.2543
     32 O           8.3308   -5.1946   27.4428 O.3     1  UNL1       -0.4551
@<TRIPOS>BOND
     1    31    32    1
     2    32    25    1
     3    25    26   ar
     4    26    27   ar
     5    27    28   ar
     6    28    21    1
     7    21    22    2
     8    21    23   am
     9    23     1    1
    10     1     2   ar
    11     2     3   ar
    12     3     4   ar
    13     4     5    1
    14     4     6   ar
    15     6     8    1
    16     8     9    1
    17     8    10    1
    18    10    11    2
    19    11    12    1
    20    11    13    1
    21    13    14    1
    22    14    19    1
    23    19    20    1
    24    14    15    1
    25    15    16    1
    26     6     7   ar
    27    28    29   ar
    28    29    30   ar
    29    30    25   ar
    30     7     1   ar
    31    15     8    1
    32    23    24    1
    33    12    17    1
    34    12    18    1
@<TRIPOS>MOLECULE
*****
 32 34 0 0 0
SMALL
GASTEIGER

@<TRIPOS>ATOM
      1 C           5.5436   -2.1819   20.2765 C.ar    1  UNL1        0.0505
      2 C           5.9230   -2.7093   18.9245 C.ar    1  UNL1        0.0170
      3 C           5.1758   -2.2554   17.7056 C.ar    1  UNL1        0.0306
      4 C           4.0492   -1.2740   17.8388 C.ar    1  UNL1        0.1380
      5 F           3.3020   -0.8201   16.6199 F       1  UNL1       -0.2044
      6 C           3.6697   -0.7467   19.1907 C.ar    1  UNL1        0.0293
      7 C           4.4169   -1.2006   20.4096 C.ar    1  UNL1        0.0145
      8 C           2.5431    0.2346   19.3239 C.3     1  UNL1        0.1432
      9 C           1.8857   -0.9937   19.8798 C.3     1  UNL1        0.0321
     10 N           3.5917    1.1222   18.7217 N.2     1  UNL1       -0.2214
     11 C           3.2854    2.5643   18.4457 C.2     1  UNL1        0.2769
     12 N           4.3341    3.4519   17.8435 N.pl3   1  UNL1       -0.3133
     13 O           1.9305    3.1191   18.7719 O.2     1  UNL1       -0.4480
     14 C           0.8818    2.2315   19.3741 C.3     1  UNL1        0.2383
     15 C           1.1882    0.7893   19.6500 C.3     1  UNL1        0.2277
     16 F           0.1395   -0.0982   20.2523 F       1  UNL1       -0.2309
     17 H           5.2234    3.0878   17.6294 H       1  UNL1        0.1466
     18 H           4.1331    4.3985   17.6623 H       1  UNL1        0.1466
     19 C          -0.4731    2.7863   19.7003 C.3     1  UNL1        0.2394
     20 F          -1.1392    2.4259   20.9950 F       1  UNL1       -0.2302
     21 C           5.7686   -3.7804   22.3122 C.2     1  UNL1        0.2688
     22 O           4.4993   -4.4711   21.9101 O.2     1  UNL1       -0.2681
     23 N           6.2908   -2.6358   21.4954 N.am    1  UNL1       -0.2791
     24 H           7.1239   -2.1825   21.7592 H       1  UNL1        0.1552
     25 C           8.0102   -5.1422   25.9688 C.ar    1  UNL1        0.2449
     26 C           8.1723   -5.8787   24.6722 C.ar    1  UNL1        0.1565
     27 N           7.4251   -5.4248   23.4533 N.ar    1  UNL1       -0.2328
     28 C           6.5158   -4.2344   23.5310 C.ar    1  UNL1        0.1541
     29 C           6.3538   -3.4978   24.8276 C.ar    1  UNL1        0.1258
     30 N           7.1010   -3.9518   26.0465 N.ar    1  UNL1       -0.2071
     31 C           8.0531   -6.3925   28.2458 C.3     1  UNL1        0.2543
     32 O           8.7574   -5.5962   27.1876 O.3     1  UNL1       -0.4551
@<TRIPOS>BOND
     1    31    32    1
     2    32    25    1
     3    25    26   ar
     4    26    27   ar
     5    27    28   ar
     6    28    21    1
     7    21    22    2
     8    21    23   am
     9    23     1    1
    10     1     2   ar
    11     2     3   ar
    12     3     4   ar
    13     4     5    1
    14     4     6   ar
    15     6     8    1
    16     8     9    1
    17     8    10    1
    18    10    11    2
    19    11    12    1
    20    11    13    1
    21    13    14    1
    22    14    19    1
    23    19    20    1
    24    14    15    1
    25    15    16    1
    26     6     7   ar
    27    28    29   ar
    28    29    30   ar
    29    30    25   ar
    30     7     1   ar
    31    15     8    1
    32    23    24    1
    33    12    17    1
    34    12    18    1
@<TRIPOS>MOLECULE
*****
 32 34 0 0 0
SMALL
GASTEIGER

@<TRIPOS>ATOM
      1 C           4.4544   -2.8617   21.7773 C.ar    1  UNL1        0.0505
      2 C           4.9846   -3.7812   20.7174 C.ar    1  UNL1        0.0170
      3 C           4.7591   -3.4647   19.2686 C.ar    1  UNL1        0.0306
      4 C           4.0032   -2.2287   18.8797 C.ar    1  UNL1        0.1380
      5 F           3.7777   -1.9122   17.4310 F       1  UNL1       -0.2044
      6 C           3.4730   -1.3093   19.9397 C.ar    1  UNL1        0.0293
      7 C           3.6986   -1.6257   21.3884 C.ar    1  UNL1        0.0145
      8 C           2.7172   -0.0734   19.5508 C.3     1  UNL1        0.1432
      9 C           1.5834   -0.9340   20.0236 C.3     1  UNL1        0.0321
     10 N           4.1135    0.3582   19.2130 N.2     1  UNL1       -0.2214
     11 C           4.3602    1.7266   18.6505 C.2     1  UNL1        0.2769
     12 N           5.7566    2.1581   18.3127 N.pl3   1  UNL1       -0.3133
     13 O           3.2106    2.6637   18.4259 O.2     1  UNL1       -0.4480
     14 C           1.8143    2.2321   18.7637 C.3     1  UNL1        0.2383
     15 C           1.5677    0.8637   19.3261 C.3     1  UNL1        0.2277
     16 F           0.1713    0.4321   19.6640 F       1  UNL1       -0.2309
     17 H           6.5111    1.5432   18.4601 H       1  UNL1        0.1466
     18 H           5.9185    3.0563   17.9435 H       1  UNL1        0.1466
     19 C           0.6647    3.1692   18.5390 C.3     1  UNL1        0.2394
     20 F          -0.3682    2.8531   17.4983 F       1  UNL1       -0.2302
     21 C           6.0091   -2.8899   23.8586 C.2     1  UNL1        0.2688
     22 O           7.1127   -2.2851   23.0424 O.2     1  UNL1       -0.2681
     23 N           4.6799   -3.1781   23.2261 N.am    1  UNL1       -0.2791
     24 H           3.9556   -3.5751   23.7618 H       1  UNL1        0.1552
     25 C           6.6858   -3.8393   28.2050 C.ar    1  UNL1        0.2449
     26 C           5.9348   -2.6005   27.8160 C.ar    1  UNL1        0.1565
     27 N           5.7092   -2.2841   26.3672 N.ar    1  UNL1       -0.2328
     28 C           6.2347   -3.2063   25.3074 C.ar    1  UNL1        0.1541
     29 C           6.9857   -4.4451   25.6964 C.ar    1  UNL1        0.1258
     30 N           7.2113   -4.7616   27.1452 N.ar    1  UNL1       -0.2071
     31 C           6.8837   -5.5800   30.1235 C.3     1  UNL1        0.2543
     32 O           6.9114   -4.1558   29.6537 O.3     1  UNL1       -0.4551
@<TRIPOS>BOND
     1    31    32    1
     2    32    25    1
     3    25    26   ar
     4    26    27   ar
     5    27    28   ar
     6    28    21    1
     7    21    22    2
     8    21    23   am
     9    23     1    1
    10     1     2   ar
    11     2     3   ar
    12     3     4   ar
    13     4     5    1
    14     4     6   ar
    15     6     8    1
    16     8     9    1
    17     8    10    1
    18    10    11    2
    19    11    12    1
    20    11    13    1
    21    13    14    1
    22    14    19    1
    23    19    20    1
    24    14    15    1
    25    15    16    1
    26     6     7   ar
    27    28    29   ar
    28    29    30   ar
    29    30    25   ar
    30     7     1   ar
    31    15     8    1
    32    23    24    1
    33    12    17    1
    34    12    18    1
@<TRIPOS>MOLECULE
*****
 32 34 0 0 0
SMALL
GASTEIGER

@<TRIPOS>ATOM
      1 C           6.9128   -4.3355   24.6609 C.ar    1  UNL1        0.0505
      2 C           8.0785   -5.1742   24.2275 C.ar    1  UNL1        0.0170
      3 C           8.4650   -5.2299   22.7792 C.ar    1  UNL1        0.0306
      4 C           7.6857   -4.4469   21.7643 C.ar    1  UNL1        0.1380
      5 F           8.0722   -4.5026   20.3160 F       1  UNL1       -0.2044
      6 C           6.5201   -3.6083   22.1978 C.ar    1  UNL1        0.0293
      7 C           6.1337   -3.5525   23.6461 C.ar    1  UNL1        0.0145
      8 C           5.7409   -2.8253   21.1830 C.3     1  UNL1        0.1432
      9 C           6.6895   -1.7648   21.6579 C.3     1  UNL1        0.0321
     10 N           5.0629   -4.1577   21.0605 N.2     1  UNL1       -0.2214
     11 C           3.9353   -4.3389   20.0882 C.2     1  UNL1        0.2769
     12 N           3.2573   -5.6713   19.9657 N.pl3   1  UNL1       -0.3133
     13 O           3.4855   -3.1876   19.2383 O.2     1  UNL1       -0.4480
     14 C           4.1635   -1.8552   19.3608 C.3     1  UNL1        0.2383
     15 C           5.2912   -1.6741   20.3331 C.3     1  UNL1        0.2277
     16 F           5.9692   -0.3416   20.4556 F       1  UNL1       -0.2309
     17 H           3.5525   -6.4270   20.5235 H       1  UNL1        0.1466
     18 H           2.5172   -5.7902   19.3275 H       1  UNL1        0.1466
     19 C           3.7137   -0.7039   18.5109 C.3     1  UNL1        0.2394
     20 F           3.6318   -0.8585   17.0211 F       1  UNL1       -0.2302
     21 C           7.2934   -3.4062   27.0571 C.2     1  UNL1        0.2688
     22 O           8.4469   -2.5883   26.5566 O.2     1  UNL1       -0.2681
     23 N           6.5264   -4.2797   26.1092 N.am    1  UNL1       -0.2791
     24 H           5.7693   -4.8166   26.4377 H       1  UNL1        0.1552
     25 C           6.1340   -3.2390   31.4019 C.ar    1  UNL1        0.2449
     26 C           6.8557   -4.4388   30.8639 C.ar    1  UNL1        0.1565
     27 N           7.2422   -4.4946   29.4156 N.ar    1  UNL1       -0.2328
     28 C           6.9070   -3.3505   28.5054 C.ar    1  UNL1        0.1541
     29 C           6.1852   -2.1506   29.0434 C.ar    1  UNL1        0.1258
     30 N           5.7988   -2.0949   30.4917 N.ar    1  UNL1       -0.2071
     31 C           4.4838   -2.4888   33.2631 C.3     1  UNL1        0.2543
     32 O           5.7476   -3.1833   32.8502 O.3     1  UNL1       -0.4551
@<TRIPOS>BOND
     1    31    32    1
     2    32    25    1
     3    25    26   ar
     4    26    27   ar
     5    27    28   ar
     6    28    21    1
     7    21    22    2
     8    21    23   am
     9    23     1    1
    10     1     2   ar
    11     2     3   ar
    12     3     4   ar
    13     4     5    1
    14     4     6   ar
    15     6     8    1
    16     8     9    1
    17     8    10    1
    18    10    11    2
    19    11    12    1
    20    11    13    1
    21    13    14    1
    22    14    19    1
    23    19    20    1
    24    14    15    1
    25    15    16    1
    26     6     7   ar
    27    28    29   ar
    28    29    30   ar
    29    30    25   ar
    30     7     1   ar
    31    15     8    1
    32    23    24    1
    33    12    17    1
    34    12    18    1
