@<TRIPOS>MOLECULE
*****
 32 35 0 0 0
SMALL
GASTEIGER

@<TRIPOS>ATOM
      1 C           7.0009   -2.3762   18.8717 C.2     1  UNL1        0.2551
      2 O           7.2857   -2.0905   17.4270 O.2     1  UNL1       -0.2694
      3 N           8.1162   -2.7779   19.7909 N.am    1  UNL1       -0.2738
      4 C           9.5162   -2.8940   19.2652 C.3     1  UNL1        0.1152
      5 C           7.8313   -3.0636   21.2356 C.3     1  UNL1        0.0972
      6 C           7.4818   -2.0482   22.2829 C.3     1  UNL1        0.0431
      7 C           7.2805   -2.7719   23.5812 C.3     1  UNL1        0.0968
      8 N           7.5055   -4.2345   23.3364 N.am    1  UNL1       -0.2623
      9 C           7.4074   -5.3254   24.3613 C.2     1  UNL1        0.3073
     10 O           7.6610   -6.7502   23.9668 O.2     1  UNL1       -0.2523
     11 N           7.0557   -4.9914   25.7807 N.am    1  UNL1       -0.2626
     12 C           6.7763   -3.6201   26.3205 C.3     1  UNL1        0.0964
     13 C           6.4695   -3.7514   27.7830 C.3     1  UNL1        0.0390
     14 C           6.5593   -5.2038   28.1469 C.3     1  UNL1        0.0759
     15 C           6.9215   -5.9702   26.9095 C.3     1  UNL1        0.1106
     16 C           7.8460   -4.4149   21.8868 C.3     1  UNL1        0.1147
     17 N           6.3274   -5.7872   29.5092 N.3     1  UNL1       -0.2960
     18 C           7.4335   -5.7892   30.5224 C.3     1  UNL1        0.0859
     19 H           6.0537   -6.7599   29.3702 H       1  UNL1        0.1233
     20 C           3.5286   -1.3379   20.2612 C.ar    1  UNL1        0.0296
     21 C           3.3639   -2.8247   20.1510 C.ar    1  UNL1        0.0071
     22 C           4.6446   -3.3947   19.6171 C.ar    1  UNL1        0.0115
     23 C           5.6008   -2.2601   19.3973 C.ar    1  UNL1        0.0830
     24 S           4.9111   -0.9889   19.7954 S.2     1  UNL1       -0.0824
     25 C           0.4209    1.5659   21.7311 C.ar    1  UNL1       -0.0222
     26 C           0.1609    0.7480   20.5009 C.ar    1  UNL1       -0.0043
     27 C           1.1967   -0.2199   20.0110 C.ar    1  UNL1        0.0002
     28 C           2.4927   -0.3699   20.7511 C.ar    1  UNL1        0.0060
     29 C           2.7528    0.4480   21.9813 C.ar    1  UNL1        0.0002
     30 C           1.7169    1.4159   22.4713 C.ar    1  UNL1       -0.0043
     31 C          -1.4947    3.2510   21.2404 C.3     1  UNL1        0.0050
     32 C          -0.6150    2.5338   22.2210 C.3     1  UNL1        0.0264
@<TRIPOS>BOND
     1    31    32    1
     2    32    25    1
     3    25    26   ar
     4    26    27   ar
     5    27    28   ar
     6    28    20    1
     7    20    21   ar
     8    21    22   ar
     9    22    23   ar
    10    23     1    1
    11     1     2    2
    12     1     3   am
    13     3     4    1
    14     5     3    1
    15     5     6    1
    16     6     7    1
    17     7     8    1
    18     8     9   am
    19     9    10    2
    20     9    11   am
    21    11    12    1
    22    12    13    1
    23    13    14    1
    24    14    17    1
    25    17    18    1
    26    14    15    1
    27     8    16    1
    28    23    24   ar
    29    28    29   ar
    30    29    30   ar
    31    30    25   ar
    32    24    20   ar
    33    16     5    1
    34    15    11    1
    35    17    19    1
@<TRIPOS>MOLECULE
*****
 32 35 0 0 0
SMALL
GASTEIGER

@<TRIPOS>ATOM
      1 C           7.0114   -2.0899   18.8458 C.2     1  UNL1        0.2551
      2 O           7.2383   -1.5177   17.4780 O.2     1  UNL1       -0.2694
      3 N           8.1556   -2.6925   19.6060 N.am    1  UNL1       -0.2738
      4 C           9.5266   -2.7228   18.9983 C.3     1  UNL1        0.1152
      5 C           7.9287   -3.2648   20.9738 C.3     1  UNL1        0.0972
      6 C           7.8660   -4.7228   21.3203 C.3     1  UNL1        0.0431
      7 C           7.6232   -4.8386   22.7960 C.3     1  UNL1        0.0968
      8 N           7.5359   -3.4521   23.3616 N.am    1  UNL1       -0.2623
      9 C           7.3010   -3.1001   24.8006 C.2     1  UNL1        0.3073
     10 O           7.2378   -1.6613   25.2201 O.2     1  UNL1       -0.2523
     11 N           7.1292   -4.1868   25.8202 N.am    1  UNL1       -0.2626
     12 C           7.1675   -5.6620   25.5513 C.3     1  UNL1        0.0964
     13 C           6.9509   -6.3760   26.8526 C.3     1  UNL1        0.0390
     14 C           6.7789   -5.3421   27.9257 C.3     1  UNL1        0.0759
     15 C           6.8890   -3.9891   27.2876 C.3     1  UNL1        0.1106
     16 C           7.7247   -2.4794   22.2355 C.3     1  UNL1        0.1147
     17 N           6.5388   -5.6136   29.3812 N.3     1  UNL1       -0.2960
     18 C           7.1651   -4.7331   30.4216 C.3     1  UNL1        0.0859
     19 H           6.8671   -6.5623   29.5618 H       1  UNL1        0.1233
     20 C           3.6960   -1.3658   20.7297 C.ar    1  UNL1        0.0296
     21 C           3.3651   -2.6600   20.0476 C.ar    1  UNL1        0.0071
     22 C           4.5667   -3.0889   19.2588 C.ar    1  UNL1        0.0115
     23 C           5.6404   -2.0596   19.4535 C.ar    1  UNL1        0.0830
     24 S           5.1023   -0.9947   20.3626 S.2     1  UNL1       -0.0824
     25 C           0.9521    0.9901   23.4075 C.ar    1  UNL1       -0.0222
     26 C           0.6955    0.9374   21.9306 C.ar    1  UNL1       -0.0043
     27 C           1.6101    0.1521   21.0380 C.ar    1  UNL1        0.0002
     28 C           2.7814   -0.5805   21.6223 C.ar    1  UNL1        0.0060
     29 C           3.0380   -0.5277   23.0992 C.ar    1  UNL1        0.0002
     30 C           2.1233    0.2576   23.9918 C.ar    1  UNL1       -0.0043
     31 C          -0.0855    1.4156   25.7511 C.3     1  UNL1        0.0050
     32 C           0.0374    1.7754   24.3001 C.3     1  UNL1        0.0264
@<TRIPOS>BOND
     1    31    32    1
     2    32    25    1
     3    25    26   ar
     4    26    27   ar
     5    27    28   ar
     6    28    20    1
     7    20    21   ar
     8    21    22   ar
     9    22    23   ar
    10    23     1    1
    11     1     2    2
    12     1     3   am
    13     3     4    1
    14     5     3    1
    15     5     6    1
    16     6     7    1
    17     7     8    1
    18     8     9   am
    19     9    10    2
    20     9    11   am
    21    11    12    1
    22    12    13    1
    23    13    14    1
    24    14    17    1
    25    17    18    1
    26    14    15    1
    27     8    16    1
    28    23    24   ar
    29    28    29   ar
    30    29    30   ar
    31    30    25   ar
    32    24    20   ar
    33    16     5    1
    34    15    11    1
    35    17    19    1
@<TRIPOS>MOLECULE
*****
 32 35 0 0 0
SMALL
GASTEIGER

@<TRIPOS>ATOM
      1 C           0.4666    4.7645   20.2708 C.2     1  UNL1        0.2551
      2 O           0.4882    5.6311   19.0467 O.2     1  UNL1       -0.2694
      3 N           0.3595    5.3893   21.6303 N.am    1  UNL1       -0.2738
      4 C           0.2740    6.8807   21.7655 C.3     1  UNL1        0.1152
      5 C           0.3379    4.5227   22.8544 C.3     1  UNL1        0.0972
      6 C          -0.8864    4.0760   23.5970 C.3     1  UNL1        0.0431
      7 C          -0.4442    3.2279   24.7524 C.3     1  UNL1        0.0968
      8 N           1.0535    3.1503   24.7239 N.am    1  UNL1       -0.2623
      9 C           1.9164    2.4036   25.6975 C.2     1  UNL1        0.3073
     10 O           3.4082    2.4171   25.5412 O.2     1  UNL1       -0.2523
     11 N           1.2875    1.6435   26.8274 N.am    1  UNL1       -0.2626
     12 C          -0.1819    1.5392   27.1098 C.3     1  UNL1        0.0964
     13 C          -0.3599    0.6854   28.3302 C.3     1  UNL1        0.0390
     14 C           0.9995    0.2621   28.8021 C.3     1  UNL1        0.0759
     15 C           2.0177    0.8542   27.8733 C.3     1  UNL1        0.1106
     16 C           1.5369    3.9505   23.5509 C.3     1  UNL1        0.1147
     17 N           1.2897   -0.6017   29.9935 N.3     1  UNL1       -0.2960
     18 C           2.6657   -0.6182   30.5906 C.3     1  UNL1        0.0859
     19 H           1.0755   -1.5610   29.7210 H       1  UNL1        0.1233
     20 C           1.4142    1.0344   19.7664 C.ar    1  UNL1        0.0296
     21 C          -0.0466    0.9215   20.0879 C.ar    1  UNL1        0.0071
     22 C          -0.5794    2.3050   20.3160 C.ar    1  UNL1        0.0115
     23 C           0.5521    3.2730   20.1354 C.ar    1  UNL1        0.0830
     24 S           1.7842    2.4878   19.7957 S.2     1  UNL1       -0.0824
     25 C           4.1977   -2.3861   18.8708 C.ar    1  UNL1       -0.0222
     26 C           3.9493   -1.3303   17.8347 C.ar    1  UNL1       -0.0043
     27 C           3.0215   -0.1901   18.1333 C.ar    1  UNL1        0.0002
     28 C           2.3420   -0.1057   19.4679 C.ar    1  UNL1        0.0060
     29 C           2.5905   -1.1615   20.5039 C.ar    1  UNL1        0.0002
     30 C           3.5183   -2.3017   20.2054 C.ar    1  UNL1       -0.0043
     31 C           4.6516   -4.9404   18.7318 C.3     1  UNL1        0.0050
     32 C           5.1256   -3.5263   18.5723 C.3     1  UNL1        0.0264
@<TRIPOS>BOND
     1    31    32    1
     2    32    25    1
     3    25    26   ar
     4    26    27   ar
     5    27    28   ar
     6    28    20    1
     7    20    21   ar
     8    21    22   ar
     9    22    23   ar
    10    23     1    1
    11     1     2    2
    12     1     3   am
    13     3     4    1
    14     5     3    1
    15     5     6    1
    16     6     7    1
    17     7     8    1
    18     8     9   am
    19     9    10    2
    20     9    11   am
    21    11    12    1
    22    12    13    1
    23    13    14    1
    24    14    17    1
    25    17    18    1
    26    14    15    1
    27     8    16    1
    28    23    24   ar
    29    28    29   ar
    30    29    30   ar
    31    30    25   ar
    32    24    20   ar
    33    16     5    1
    34    15    11    1
    35    17    19    1
@<TRIPOS>MOLECULE
*****
 32 35 0 0 0
SMALL
GASTEIGER

@<TRIPOS>ATOM
      1 C          -0.9792    3.2729   23.8557 C.2     1  UNL1        0.2551
      2 O          -1.7697    3.9422   22.7708 O.2     1  UNL1       -0.2694
      3 N          -1.4981    3.2605   25.2631 N.am    1  UNL1       -0.2738
      4 C          -2.8074    3.9175   25.5855 C.3     1  UNL1        0.1152
      5 C          -0.7076    2.5912   26.3480 C.3     1  UNL1        0.0972
      6 C          -0.2721    1.1559   26.3642 C.3     1  UNL1        0.0431
      7 C           0.4909    0.9172   27.6334 C.3     1  UNL1        0.0968
      8 N           0.5269    2.2050   28.4017 N.am    1  UNL1       -0.2623
      9 C           1.1876    2.4205   29.7310 C.2     1  UNL1        0.3073
     10 O           1.1407    3.7712   30.3817 O.2     1  UNL1       -0.2523
     11 N           1.8951    1.2852   30.4097 N.am    1  UNL1       -0.2626
     12 C           2.0242   -0.1136   29.8837 C.3     1  UNL1        0.0964
     13 C           2.8066   -0.9139   30.8824 C.3     1  UNL1        0.0390
     14 C           3.1611   -0.0097   32.0255 C.3     1  UNL1        0.0759
     15 C           2.5977    1.3494   31.7334 C.3     1  UNL1        0.1106
     16 C          -0.2138    3.2396   27.6073 C.3     1  UNL1        0.1147
     17 N           3.9418   -0.3967   33.2465 N.3     1  UNL1       -0.2960
     18 C           4.3113   -1.8322   33.4766 C.3     1  UNL1        0.0859
     19 H           3.3922   -0.1012   34.0533 H       1  UNL1        0.1233
     20 C           1.9798    1.0403   22.7046 C.ar    1  UNL1        0.0296
     21 C           2.7101    2.1693   23.3694 C.ar    1  UNL1        0.0071
     22 C           1.6905    3.1431   23.8815 C.ar    1  UNL1        0.0115
     23 C           0.3301    2.6159   23.5333 C.ar    1  UNL1        0.0830
     24 S           0.5089    1.3163   22.8059 S.2     1  UNL1       -0.0824
     25 C           3.8698   -2.5453   20.7497 C.ar    1  UNL1       -0.0222
     26 C           2.9428   -1.6649   19.9652 C.ar    1  UNL1       -0.0043
     27 C           2.3128   -0.4697   20.6168 C.ar    1  UNL1        0.0002
     28 C           2.6098   -0.1549   22.0530 C.ar    1  UNL1        0.0060
     29 C           3.5368   -1.0353   22.8375 C.ar    1  UNL1        0.0002
     30 C           4.1668   -2.2305   22.1859 C.ar    1  UNL1       -0.0043
     31 C           3.7393   -4.5204   19.0670 C.3     1  UNL1        0.0050
     32 C           4.4998   -3.7405   20.0981 C.3     1  UNL1        0.0264
@<TRIPOS>BOND
     1    31    32    1
     2    32    25    1
     3    25    26   ar
     4    26    27   ar
     5    27    28   ar
     6    28    20    1
     7    20    21   ar
     8    21    22   ar
     9    22    23   ar
    10    23     1    1
    11     1     2    2
    12     1     3   am
    13     3     4    1
    14     5     3    1
    15     5     6    1
    16     6     7    1
    17     7     8    1
    18     8     9   am
    19     9    10    2
    20     9    11   am
    21    11    12    1
    22    12    13    1
    23    13    14    1
    24    14    17    1
    25    17    18    1
    26    14    15    1
    27     8    16    1
    28    23    24   ar
    29    28    29   ar
    30    29    30   ar
    31    30    25   ar
    32    24    20   ar
    33    16     5    1
    34    15    11    1
    35    17    19    1
@<TRIPOS>MOLECULE
*****
 32 35 0 0 0
SMALL
GASTEIGER

@<TRIPOS>ATOM
      1 C           5.8601   -1.7585   18.5097 C.2     1  UNL1        0.2551
      2 O           6.5968   -2.2903   17.3163 O.2     1  UNL1       -0.2694
      3 N           4.5434   -1.0628   18.3296 N.am    1  UNL1       -0.2738
      4 C           3.9635   -0.8991   16.9561 C.3     1  UNL1        0.1152
      5 C           3.8067   -0.5310   19.5231 C.3     1  UNL1        0.0972
      6 C           2.8523   -1.3023   20.3858 C.3     1  UNL1        0.0431
      7 C           2.3508   -0.3825   21.4593 C.3     1  UNL1        0.0968
      8 N           2.9952    0.9573   21.2601 N.am    1  UNL1       -0.2623
      9 C           2.7780    2.1750   22.1086 C.2     1  UNL1        0.3073
     10 O           3.4960    3.4518   21.7857 O.2     1  UNL1       -0.2523
     11 N           1.8429    2.1159   23.2799 N.am    1  UNL1       -0.2626
     12 C           1.0594    0.9160   23.7229 C.3     1  UNL1        0.0964
     13 C           0.2593    1.3049   24.9307 C.3     1  UNL1        0.0390
     14 C           0.5484    2.7451   25.2341 C.3     1  UNL1        0.0759
     15 C           1.5271    3.2464   24.2139 C.3     1  UNL1        0.1106
     16 C           3.8950    0.8655   20.0635 C.3     1  UNL1        0.1147
     17 N          -0.0382    3.5438   26.3601 N.3     1  UNL1       -0.2960
     18 C          -1.4682    3.3353   26.7621 C.3     1  UNL1        0.0859
     19 H           0.0553    4.5267   26.1040 H       1  UNL1        0.1233
     20 C           7.0393   -2.8634   22.0388 C.ar    1  UNL1        0.0296
     21 C           7.6260   -1.4855   21.9554 C.ar    1  UNL1        0.0071
     22 C           7.2557   -0.9038   20.6233 C.ar    1  UNL1        0.0115
     23 C           6.4401   -1.9223   19.8833 C.ar    1  UNL1        0.0830
     24 S           6.3064   -3.1334   20.7582 S.2     1  UNL1       -0.0824
     25 C           7.4124   -5.6910   25.5195 C.ar    1  UNL1       -0.0222
     26 C           8.0057   -6.0548   24.1908 C.ar    1  UNL1       -0.0043
     27 C           7.8813   -5.1123   23.0305 C.ar    1  UNL1        0.0002
     28 C           7.1637   -3.8059   23.1990 C.ar    1  UNL1        0.0060
     29 C           6.5704   -3.4421   24.5278 C.ar    1  UNL1        0.0002
     30 C           6.6947   -4.3846   25.6880 C.ar    1  UNL1       -0.0043
     31 C           7.6018   -8.1128   26.4407 C.3     1  UNL1        0.0050
     32 C           7.5368   -6.6335   26.6798 C.3     1  UNL1        0.0264
@<TRIPOS>BOND
     1    31    32    1
     2    32    25    1
     3    25    26   ar
     4    26    27   ar
     5    27    28   ar
     6    28    20    1
     7    20    21   ar
     8    21    22   ar
     9    22    23   ar
    10    23     1    1
    11     1     2    2
    12     1     3   am
    13     3     4    1
    14     5     3    1
    15     5     6    1
    16     6     7    1
    17     7     8    1
    18     8     9   am
    19     9    10    2
    20     9    11   am
    21    11    12    1
    22    12    13    1
    23    13    14    1
    24    14    17    1
    25    17    18    1
    26    14    15    1
    27     8    16    1
    28    23    24   ar
    29    28    29   ar
    30    29    30   ar
    31    30    25   ar
    32    24    20   ar
    33    16     5    1
    34    15    11    1
    35    17    19    1
@<TRIPOS>MOLECULE
*****
 32 35 0 0 0
SMALL
GASTEIGER

@<TRIPOS>ATOM
      1 C           3.7935   -0.6995   17.6744 C.2     1  UNL1        0.2551
      2 O           3.9223   -1.0396   16.2192 O.2     1  UNL1       -0.2694
      3 N           4.3748   -1.6131   18.7124 N.am    1  UNL1       -0.2738
      4 C           5.0847   -2.8667   18.2952 C.3     1  UNL1        0.1152
      5 C           4.2461   -1.2729   20.1676 C.3     1  UNL1        0.0972
      6 C           3.0287   -1.4842   21.0182 C.3     1  UNL1        0.0431
      7 C           3.3424   -1.0037   22.4041 C.3     1  UNL1        0.0968
      8 N           4.7536   -0.4954   22.4101 N.am    1  UNL1       -0.2623
      9 C           5.4790    0.0785   23.5909 C.2     1  UNL1        0.3073
     10 O           6.8959    0.5485   23.4448 O.2     1  UNL1       -0.2523
     11 N           4.7874    0.1825   24.9179 N.am    1  UNL1       -0.2626
     12 C           3.3802   -0.2439   25.2145 C.3     1  UNL1        0.0964
     13 C           3.1047    0.0412   26.6612 C.3     1  UNL1        0.0390
     14 C           4.3416    0.6439   27.2586 C.3     1  UNL1        0.0759
     15 C           5.3815    0.7312   26.1812 C.3     1  UNL1        0.1106
     16 C           5.3121   -0.6618   21.0280 C.3     1  UNL1        0.1147
     17 N           4.5090    1.0822   28.6833 N.3     1  UNL1       -0.2960
     18 C           4.2280    0.1225   29.8013 C.3     1  UNL1        0.0859
     19 H           3.8912    1.8823   28.8198 H       1  UNL1        0.1233
     20 C           1.3328    2.1272   18.6843 C.ar    1  UNL1        0.0296
     21 C           2.6490    2.8398   18.7829 C.ar    1  UNL1        0.0071
     22 C           3.7310    1.8677   18.4165 C.ar    1  UNL1        0.0115
     23 C           3.0835    0.5543   18.0916 C.ar    1  UNL1        0.0830
     24 S           1.6013    0.7147   18.2571 S.2     1  UNL1       -0.0824
     25 C          -2.7115    3.9135   19.5231 C.ar    1  UNL1       -0.0222
     26 C          -2.0052    3.1244   20.5853 C.ar    1  UNL1       -0.0043
     27 C          -0.6571    2.5290   20.3057 C.ar    1  UNL1        0.0002
     28 C          -0.0153    2.7227   18.9639 C.ar    1  UNL1        0.0060
     29 C          -0.7216    3.5117   17.9016 C.ar    1  UNL1        0.0002
     30 C          -2.0697    4.1071   18.1812 C.ar    1  UNL1       -0.0043
     31 C          -5.2929    3.6642   19.6786 C.3     1  UNL1        0.0050
     32 C          -4.0596    4.5089   19.8026 C.3     1  UNL1        0.0264
@<TRIPOS>BOND
     1    31    32    1
     2    32    25    1
     3    25    26   ar
     4    26    27   ar
     5    27    28   ar
     6    28    20    1
     7    20    21   ar
     8    21    22   ar
     9    22    23   ar
    10    23     1    1
    11     1     2    2
    12     1     3   am
    13     3     4    1
    14     5     3    1
    15     5     6    1
    16     6     7    1
    17     7     8    1
    18     8     9   am
    19     9    10    2
    20     9    11   am
    21    11    12    1
    22    12    13    1
    23    13    14    1
    24    14    17    1
    25    17    18    1
    26    14    15    1
    27     8    16    1
    28    23    24   ar
    29    28    29   ar
    30    29    30   ar
    31    30    25   ar
    32    24    20   ar
    33    16     5    1
    34    15    11    1
    35    17    19    1
@<TRIPOS>MOLECULE
*****
 32 35 0 0 0
SMALL
GASTEIGER

@<TRIPOS>ATOM
      1 C           0.8335    3.1713   19.8414 C.2     1  UNL1        0.2551
      2 O           0.8232    3.8257   18.4917 O.2     1  UNL1       -0.2694
      3 N           0.4860    3.9681   21.0639 N.am    1  UNL1       -0.2738
      4 C           0.1284    5.4192   20.9367 C.3     1  UNL1        0.1152
      5 C           0.4963    3.3137   22.4136 C.3     1  UNL1        0.0972
      6 C          -0.7048    3.0364   23.2682 C.3     1  UNL1        0.0431
      7 C          -0.2339    2.3730   24.5284 C.3     1  UNL1        0.0968
      8 N           1.2582    2.2403   24.4527 N.am    1  UNL1       -0.2623
      9 C           2.1437    1.6329   25.5001 C.2     1  UNL1        0.3073
     10 O           3.6266    1.5694   25.2837 O.2     1  UNL1       -0.2523
     11 N           1.5461    1.0891   26.7639 N.am    1  UNL1       -0.2626
     12 C           0.0887    1.0828   27.1185 C.3     1  UNL1        0.0964
     13 C          -0.0571    0.4459   28.4688 C.3     1  UNL1        0.0390
     14 C           1.3103    0.0585   28.9486 C.3     1  UNL1        0.0759
     15 C           2.3011    0.4560   27.8950 C.3     1  UNL1        0.1106
     16 C           1.7096    2.8217   23.1457 C.3     1  UNL1        0.1147
     17 N           1.6306   -0.6092   30.2531 N.3     1  UNL1       -0.2960
     18 C           2.7486   -0.0891   31.1071 C.3     1  UNL1        0.0859
     19 H           1.8510   -1.5819   30.0396 H       1  UNL1        0.1233
     20 C           2.4700   -0.3348   20.1482 C.ar    1  UNL1        0.0296
     21 C           1.0133   -0.6911   20.1804 C.ar    1  UNL1        0.0071
     22 C           0.2229    0.5790   20.0694 C.ar    1  UNL1        0.0115
     23 C           1.1912    1.7202   19.9686 C.ar    1  UNL1        0.0830
     24 S           2.5799    1.1554   20.0173 S.2     1  UNL1       -0.0824
     25 C           5.9069   -3.2286   20.4001 C.ar    1  UNL1       -0.0222
     26 C           5.9521   -1.9418   21.1694 C.ar    1  UNL1       -0.0043
     27 C           4.8065   -0.9772   21.0854 C.ar    1  UNL1        0.0002
     28 C           3.6157   -1.2994   20.2321 C.ar    1  UNL1        0.0060
     29 C           3.5705   -2.5863   19.4629 C.ar    1  UNL1        0.0002
     30 C           4.7161   -3.5509   19.5468 C.ar    1  UNL1       -0.0043
     31 C           7.9356   -4.2052   21.6965 C.3     1  UNL1        0.0050
     32 C           7.0526   -4.1932   20.4840 C.3     1  UNL1        0.0264
@<TRIPOS>BOND
     1    31    32    1
     2    32    25    1
     3    25    26   ar
     4    26    27   ar
     5    27    28   ar
     6    28    20    1
     7    20    21   ar
     8    21    22   ar
     9    22    23   ar
    10    23     1    1
    11     1     2    2
    12     1     3   am
    13     3     4    1
    14     5     3    1
    15     5     6    1
    16     6     7    1
    17     7     8    1
    18     8     9   am
    19     9    10    2
    20     9    11   am
    21    11    12    1
    22    12    13    1
    23    13    14    1
    24    14    17    1
    25    17    18    1
    26    14    15    1
    27     8    16    1
    28    23    24   ar
    29    28    29   ar
    30    29    30   ar
    31    30    25   ar
    32    24    20   ar
    33    16     5    1
    34    15    11    1
    35    17    19    1
@<TRIPOS>MOLECULE
*****
 32 35 0 0 0
SMALL
GASTEIGER

@<TRIPOS>ATOM
      1 C           3.0375    2.8228   35.9065 C.2     1  UNL1        0.2551
      2 O           2.2238    3.7329   36.7779 O.2     1  UNL1       -0.2694
      3 N           3.8679    1.7373   36.5246 N.am    1  UNL1       -0.2738
      4 C           3.8846    1.5620   38.0142 C.3     1  UNL1        0.1152
      5 C           4.6816    0.8271   35.6532 C.3     1  UNL1        0.0972
      6 C           6.1450    0.9676   35.3551 C.3     1  UNL1        0.0431
      7 C           6.5426   -0.1560   34.4445 C.3     1  UNL1        0.0968
      8 N           5.3250   -0.9911   34.1797 N.am    1  UNL1       -0.2623
      9 C           5.2676   -2.2183   33.3191 C.2     1  UNL1        0.3073
     10 O           3.9716   -2.9536   33.1469 O.2     1  UNL1       -0.2523
     11 N           6.5062   -2.7101   32.6307 N.am    1  UNL1       -0.2626
     12 C           7.8663   -2.0825   32.7085 C.3     1  UNL1        0.0964
     13 C           8.8029   -2.9005   31.8694 C.3     1  UNL1        0.0390
     14 C           8.0215   -4.0335   31.2731 C.3     1  UNL1        0.0759
     15 C           6.6021   -3.9159   31.7436 C.3     1  UNL1        0.1106
     16 C           4.1749   -0.3835   34.9267 C.3     1  UNL1        0.1147
     17 N           8.5643   -5.0974   30.3656 N.3     1  UNL1       -0.2960
     18 C           7.6252   -6.0102   29.6343 C.3     1  UNL1        0.0859
     19 H           9.1676   -5.6907   30.9353 H       1  UNL1        0.1233
     20 C           2.3440    2.8975   32.0882 C.ar    1  UNL1        0.0296
     21 C           3.6462    3.6384   32.1609 C.ar    1  UNL1        0.0071
     22 C           4.0645    3.7007   33.6000 C.ar    1  UNL1        0.0115
     23 C           3.0208    2.9981   34.4169 C.ar    1  UNL1        0.0830
     24 S           1.9575    2.5018   33.4825 S.2     1  UNL1       -0.0824
     25 C           0.0072    2.0165   28.3448 C.ar    1  UNL1       -0.0222
     26 C           0.4452    0.8933   29.2373 C.ar    1  UNL1       -0.0043
     27 C           1.2241    1.1870   30.4851 C.ar    1  UNL1        0.0002
     28 C           1.5650    2.6038   30.8404 C.ar    1  UNL1        0.0060
     29 C           1.1270    3.7270   29.9480 C.ar    1  UNL1        0.0002
     30 C           0.3481    3.4333   28.7001 C.ar    1  UNL1       -0.0043
     31 C          -0.0523    1.3617   25.8313 C.3     1  UNL1        0.0050
     32 C          -0.7718    1.7228   27.0970 C.3     1  UNL1        0.0264
@<TRIPOS>BOND
     1    31    32    1
     2    32    25    1
     3    25    26   ar
     4    26    27   ar
     5    27    28   ar
     6    28    20    1
     7    20    21   ar
     8    21    22   ar
     9    22    23   ar
    10    23     1    1
    11     1     2    2
    12     1     3   am
    13     3     4    1
    14     5     3    1
    15     5     6    1
    16     6     7    1
    17     7     8    1
    18     8     9   am
    19     9    10    2
    20     9    11   am
    21    11    12    1
    22    12    13    1
    23    13    14    1
    24    14    17    1
    25    17    18    1
    26    14    15    1
    27     8    16    1
    28    23    24   ar
    29    28    29   ar
    30    29    30   ar
    31    30    25   ar
    32    24    20   ar
    33    16     5    1
    34    15    11    1
    35    17    19    1
@<TRIPOS>MOLECULE
*****
 32 35 0 0 0
SMALL
GASTEIGER

@<TRIPOS>ATOM
      1 C           1.9953    4.9796   18.4189 C.2     1  UNL1        0.2551
      2 O           2.4184    5.6517   17.1465 O.2     1  UNL1       -0.2694
      3 N           1.7539    5.7959   19.6540 N.am    1  UNL1       -0.2738
      4 C           1.9355    7.2843   19.6166 C.3     1  UNL1        0.1152
      5 C           1.3308    5.1237   20.9264 C.3     1  UNL1        0.0972
      6 C          -0.0777    4.9810   21.4222 C.3     1  UNL1        0.0431
      7 C          -0.0370    4.2453   22.7287 C.3     1  UNL1        0.0968
      8 N           1.3966    3.9332   23.0405 N.am    1  UNL1       -0.2623
      9 C           1.8971    3.2060   24.2532 C.2     1  UNL1        0.3073
     10 O           3.3671    2.9659   24.4303 O.2     1  UNL1       -0.2523
     11 N           0.9275    2.7188   25.2888 N.am    1  UNL1       -0.2626
     12 C          -0.5628    2.8843   25.2484 C.3     1  UNL1        0.0964
     13 C          -1.1334    2.2484   26.4813 C.3     1  UNL1        0.0390
     14 C           0.0042    1.6899   27.2837 C.3     1  UNL1        0.0759
     15 C           1.2779    1.9806   26.5468 C.3     1  UNL1        0.1106
     16 C           2.2420    4.4761   21.9267 C.3     1  UNL1        0.1147
     17 N          -0.1115    0.9676   28.5932 N.3     1  UNL1       -0.2960
     18 C          -1.2332   -0.0027   28.8179 C.3     1  UNL1        0.0859
     19 H          -0.1903    1.6815   29.3174 H       1  UNL1        0.1233
     20 C           2.2685    1.1140   18.6397 C.ar    1  UNL1        0.0296
     21 C           0.7999    1.2869   18.3880 C.ar    1  UNL1        0.0071
     22 C           0.5188    2.7560   18.2746 C.ar    1  UNL1        0.0115
     23 C           1.8137    3.4911   18.4563 C.ar    1  UNL1        0.0830
     24 S           2.8950    2.4763   18.6819 S.2     1  UNL1       -0.0824
     25 C           4.4174   -2.8034   19.1742 C.ar    1  UNL1       -0.0222
     26 C           4.6508   -1.9821   17.9410 C.ar    1  UNL1       -0.0043
     27 C           3.9345   -0.6763   17.7628 C.ar    1  UNL1        0.0002
     28 C           2.9848   -0.1918   18.8178 C.ar    1  UNL1        0.0060
     29 C           2.7513   -1.0131   20.0511 C.ar    1  UNL1        0.0002
     30 C           3.4676   -2.3189   20.2292 C.ar    1  UNL1       -0.0043
     31 C           4.5931   -5.3544   18.7141 C.3     1  UNL1        0.0050
     32 C           5.1336   -4.1093   19.3524 C.3     1  UNL1        0.0264
@<TRIPOS>BOND
     1    31    32    1
     2    32    25    1
     3    25    26   ar
     4    26    27   ar
     5    27    28   ar
     6    28    20    1
     7    20    21   ar
     8    21    22   ar
     9    22    23   ar
    10    23     1    1
    11     1     2    2
    12     1     3   am
    13     3     4    1
    14     5     3    1
    15     5     6    1
    16     6     7    1
    17     7     8    1
    18     8     9   am
    19     9    10    2
    20     9    11   am
    21    11    12    1
    22    12    13    1
    23    13    14    1
    24    14    17    1
    25    17    18    1
    26    14    15    1
    27     8    16    1
    28    23    24   ar
    29    28    29   ar
    30    29    30   ar
    31    30    25   ar
    32    24    20   ar
    33    16     5    1
    34    15    11    1
    35    17    19    1
