@<TRIPOS>MOLECULE
*****
 34 38 0 0 0
SMALL
GASTEIGER

@<TRIPOS>ATOM
      1 C           2.8268    2.1166   35.0043 C.2     1  UNL1        0.2494
      2 O           1.6694    2.6136   34.1898 O.2     1  UNL1       -0.2699
      3 N           3.7397    1.0651   34.4466 N.am    1  UNL1       -0.2660
      4 C           4.8971    0.5680   35.2610 C.3     1  UNL1        0.1160
      5 C           5.8100   -0.4834   34.7033 C.3     1  UNL1        0.1197
      6 N           5.5654   -1.0378   33.3312 N.am    1  UNL1       -0.2555
      7 C           4.4081   -0.5408   32.5167 C.2     1  UNL1        0.2497
      8 O           4.1636   -1.0952   31.1446 O.2     1  UNL1       -0.2727
      9 C           3.4951    0.5107   33.0744 C.3     1  UNL1        0.1799
     10 C           3.5603    3.7798   39.1208 C.ar    1  UNL1        0.0685
     11 C           2.6947    2.5676   38.9450 C.ar    1  UNL1        0.0104
     12 C           2.4502    2.0132   37.5728 C.ar    1  UNL1        0.0052
     13 C           3.0713    2.6710   36.3764 C.ar    1  UNL1        0.0536
     14 C           3.9370    3.8833   36.5522 C.ar    1  UNL1        0.0052
     15 C           4.1815    4.4377   37.9244 C.ar    1  UNL1        0.0104
     16 N           4.0494    4.8887   41.8651 N.1     1  UNL1       -0.1908
     17 C           3.8049    4.3343   40.4929 C.1     1  UNL1        0.1004
     18 C           6.4784   -2.0893   32.7735 C.ar    1  UNL1        0.0541
     19 C           5.9463   -3.4573   32.4643 C.ar    1  UNL1        0.0180
     20 C           6.8592   -4.5087   31.9067 C.ar    1  UNL1        0.0382
     21 C           8.3042   -4.1922   31.6582 C.ar    1  UNL1        0.1385
     22 C           8.8363   -2.8243   31.9673 C.ar    1  UNL1        0.0382
     23 C           7.9234   -1.7728   32.5250 C.ar    1  UNL1        0.0180
     24 O           9.2172   -5.2437   31.1005 O.3     1  UNL1       -0.4791
     25 C           9.1302   -5.6204   29.6512 C.3     1  UNL1        0.1687
     26 C           9.3813   -7.0375   29.2282 C.3     1  UNL1        0.0609
     27 C           9.2943   -7.4142   27.7789 C.3     1  UNL1        0.0758
     28 N           8.9564   -6.3738   26.7525 N.3     1  UNL1       -0.2737
     29 C           8.7053   -4.9568   27.1755 C.3     1  UNL1        0.0758
     30 C           8.7923   -4.5801   28.6248 C.3     1  UNL1        0.0609
     31 C           8.8694   -6.7506   25.3032 C.3     1  UNL1        0.0575
     32 C           8.1084   -6.2361   24.1174 C.3     1  UNL1        0.0160
     33 C           8.7465   -7.2833   23.2536 C.3     1  UNL1        0.0028
     34 C           9.5075   -7.7978   24.4394 C.3     1  UNL1        0.0160
@<TRIPOS>BOND
     1    16    17    3
     2    17    10    1
     3    10    11   ar
     4    11    12   ar
     5    12    13   ar
     6    13     1    1
     7     1     2    2
     8     1     3   am
     9     3     4    1
    10     4     5    1
    11     5     6    1
    12     6    18    1
    13    18    19   ar
    14    19    20   ar
    15    20    21   ar
    16    21    24    1
    17    24    25    1
    18    25    26    1
    19    26    27    1
    20    27    28    1
    21    28    31    1
    22    31    32    1
    23    32    33    1
    24    33    34    1
    25    28    29    1
    26    29    30    1
    27    21    22   ar
    28    22    23   ar
    29     6     7   am
    30     7     8    2
    31     7     9    1
    32    13    14   ar
    33    14    15   ar
    34    15    10   ar
    35     9     3    1
    36    23    18   ar
    37    30    25    1
    38    34    31    1
@<TRIPOS>MOLECULE
*****
 34 38 0 0 0
SMALL
GASTEIGER

@<TRIPOS>ATOM
      1 C           0.7691    1.4693   21.1829 C.2     1  UNL1        0.2494
      2 O          -0.2672    2.1593   20.3462 O.2     1  UNL1       -0.2699
      3 N           0.7320    1.5952   22.6771 N.am    1  UNL1       -0.2660
      4 C           1.7683    0.9052   23.5138 C.3     1  UNL1        0.1160
      5 C           1.7312    1.0312   25.0081 C.3     1  UNL1        0.1197
      6 N           0.6579    1.8470   25.6656 N.am    1  UNL1       -0.2555
      7 C          -0.3783    2.5370   24.8289 C.2     1  UNL1        0.2497
      8 O          -1.4516    3.3529   25.4865 O.2     1  UNL1       -0.2727
      9 C          -0.3413    2.4111   23.3346 C.3     1  UNL1        0.1799
     10 C           3.9890   -0.9783   19.2103 C.ar    1  UNL1        0.0685
     11 C           4.1416    0.5095   19.3243 C.ar    1  UNL1        0.0104
     12 C           3.0683    1.3254   19.9818 C.ar    1  UNL1        0.0052
     13 C           1.8424    0.6534   20.5253 C.ar    1  UNL1        0.0536
     14 C           1.6897   -0.8344   20.4113 C.ar    1  UNL1        0.0052
     15 C           2.7630   -1.6503   19.7538 C.ar    1  UNL1        0.0104
     16 N           6.1355   -2.6101   17.8952 N.1     1  UNL1       -0.1908
     17 C           5.0622   -1.7942   18.5527 C.1     1  UNL1        0.1004
     18 C           0.6209    1.9729   27.1599 C.ar    1  UNL1        0.0541
     19 C           1.3664    3.0842   27.8376 C.ar    1  UNL1        0.0180
     20 C           1.3294    3.2100   29.3318 C.ar    1  UNL1        0.0382
     21 C           0.5468    2.2246   30.1483 C.ar    1  UNL1        0.1385
     22 C          -0.1986    1.1134   29.4706 C.ar    1  UNL1        0.0382
     23 C          -0.1616    0.9875   27.9764 C.ar    1  UNL1        0.0180
     24 O           0.5098    2.3505   31.6426 O.3     1  UNL1       -0.4791
     25 C           1.6671    1.8663   32.4650 C.3     1  UNL1        0.1687
     26 C           1.9319    2.4667   33.8139 C.3     1  UNL1        0.0609
     27 C           3.0892    1.9825   34.6362 C.3     1  UNL1        0.0758
     28 N           3.9817    0.8980   34.1097 N.3     1  UNL1       -0.2737
     29 C           3.7169    0.2976   32.7608 C.3     1  UNL1        0.0758
     30 C           2.5596    0.7818   31.9384 C.3     1  UNL1        0.0609
     31 C           5.1389    0.4138   34.9320 C.3     1  UNL1        0.0575
     32 C           5.2948   -0.1622   36.3082 C.3     1  UNL1        0.0160
     33 C           6.7756   -0.2709   36.0950 C.3     1  UNL1        0.0028
     34 C           6.6197    0.3050   34.7188 C.3     1  UNL1        0.0160
@<TRIPOS>BOND
     1    16    17    3
     2    17    10    1
     3    10    11   ar
     4    11    12   ar
     5    12    13   ar
     6    13     1    1
     7     1     2    2
     8     1     3   am
     9     3     4    1
    10     4     5    1
    11     5     6    1
    12     6    18    1
    13    18    19   ar
    14    19    20   ar
    15    20    21   ar
    16    21    24    1
    17    24    25    1
    18    25    26    1
    19    26    27    1
    20    27    28    1
    21    28    31    1
    22    31    32    1
    23    32    33    1
    24    33    34    1
    25    28    29    1
    26    29    30    1
    27    21    22   ar
    28    22    23   ar
    29     6     7   am
    30     7     8    2
    31     7     9    1
    32    13    14   ar
    33    14    15   ar
    34    15    10   ar
    35     9     3    1
    36    23    18   ar
    37    30    25    1
    38    34    31    1
@<TRIPOS>MOLECULE
*****
 34 38 0 0 0
SMALL
GASTEIGER

@<TRIPOS>ATOM
      1 C          -1.8122    3.2803   20.8438 C.2     1  UNL1        0.2494
      2 O          -2.4317    3.8478   19.6012 O.2     1  UNL1       -0.2699
      3 N          -0.5829    2.4264   20.7462 N.am    1  UNL1       -0.2660
      4 C           0.0367    1.8589   21.9888 C.3     1  UNL1        0.1160
      5 C           1.2660    1.0049   21.8913 C.3     1  UNL1        0.1197
      6 N           1.8757    0.7185   20.5511 N.am    1  UNL1       -0.2555
      7 C           1.2562    1.2859   19.3085 C.2     1  UNL1        0.2497
      8 O           1.8660    0.9995   17.9683 O.2     1  UNL1       -0.2727
      9 C           0.0268    2.1399   19.4060 C.3     1  UNL1        0.1799
     10 C          -3.6415    4.1398   24.8643 C.ar    1  UNL1        0.0685
     11 C          -2.2086    4.4961   24.6007 C.ar    1  UNL1        0.0104
     12 C          -1.5988    4.2096   23.2605 C.ar    1  UNL1        0.0052
     13 C          -2.4220    3.5668   22.1840 C.ar    1  UNL1        0.0536
     14 C          -3.8550    3.2105   22.4476 C.ar    1  UNL1        0.0052
     15 C          -4.4648    3.4970   23.7877 C.ar    1  UNL1        0.0104
     16 N          -4.8611    4.7127   27.5447 N.1     1  UNL1       -0.1908
     17 C          -4.2513    4.4262   26.2045 C.1     1  UNL1        0.1004
     18 C           3.1051   -0.1355   20.4535 C.ar    1  UNL1        0.0541
     19 C           4.4515    0.4504   20.7596 C.ar    1  UNL1        0.0180
     20 C           5.6808   -0.4036   20.6620 C.ar    1  UNL1        0.0382
     21 C           5.5636   -1.8435   20.2584 C.ar    1  UNL1        0.1385
     22 C           4.2172   -2.4294   19.9524 C.ar    1  UNL1        0.0382
     23 C           2.9879   -1.5755   20.0499 C.ar    1  UNL1        0.0180
     24 O           6.7930   -2.6975   20.1609 O.3     1  UNL1       -0.4791
     25 C           7.1165   -3.6738   21.2527 C.3     1  UNL1        0.1687
     26 C           8.2399   -4.6519   21.0756 C.3     1  UNL1        0.0609
     27 C           8.5635   -5.6282   22.1674 C.3     1  UNL1        0.0758
     28 N           7.7636   -5.6265   23.4364 N.3     1  UNL1       -0.2737
     29 C           6.6402   -4.6484   23.6135 C.3     1  UNL1        0.0758
     30 C           6.3167   -3.6721   22.5216 C.3     1  UNL1        0.0609
     31 C           8.0871   -6.6028   24.5282 C.3     1  UNL1        0.0575
     32 C           7.5374   -6.8864   25.8947 C.3     1  UNL1        0.0160
     33 C           8.5447   -7.9836   26.0723 C.3     1  UNL1        0.0028
     34 C           9.0945   -7.7000   24.7058 C.3     1  UNL1        0.0160
@<TRIPOS>BOND
     1    16    17    3
     2    17    10    1
     3    10    11   ar
     4    11    12   ar
     5    12    13   ar
     6    13     1    1
     7     1     2    2
     8     1     3   am
     9     3     4    1
    10     4     5    1
    11     5     6    1
    12     6    18    1
    13    18    19   ar
    14    19    20   ar
    15    20    21   ar
    16    21    24    1
    17    24    25    1
    18    25    26    1
    19    26    27    1
    20    27    28    1
    21    28    31    1
    22    31    32    1
    23    32    33    1
    24    33    34    1
    25    28    29    1
    26    29    30    1
    27    21    22   ar
    28    22    23   ar
    29     6     7   am
    30     7     8    2
    31     7     9    1
    32    13    14   ar
    33    14    15   ar
    34    15    10   ar
    35     9     3    1
    36    23    18   ar
    37    30    25    1
    38    34    31    1
@<TRIPOS>MOLECULE
*****
 34 38 0 0 0
SMALL
GASTEIGER

@<TRIPOS>ATOM
      1 C           4.2780   -2.4573   19.6855 C.2     1  UNL1        0.2494
      2 O           4.6097   -3.4342   18.5967 O.2     1  UNL1       -0.2699
      3 N           4.8677   -2.6305   21.0537 N.am    1  UNL1       -0.2660
      4 C           4.5360   -1.6535   22.1426 C.3     1  UNL1        0.1160
      5 C           5.1257   -1.8267   23.5109 C.3     1  UNL1        0.1197
      6 N           6.0470   -2.9769   23.7904 N.am    1  UNL1       -0.2555
      7 C           6.3787   -3.9539   22.7016 C.2     1  UNL1        0.2497
      8 O           7.3001   -5.1041   22.9811 O.2     1  UNL1       -0.2727
      9 C           5.7891   -3.7807   21.3332 C.3     1  UNL1        0.1799
     10 C           1.5139    0.9933   18.8470 C.ar    1  UNL1        0.0685
     11 C           2.8648    0.9395   18.1972 C.ar    1  UNL1        0.0104
     12 C           3.7862   -0.2107   18.4768 C.ar    1  UNL1        0.0052
     13 C           3.3567   -1.3071   19.4060 C.ar    1  UNL1        0.0536
     14 C           2.0058   -1.2532   20.0557 C.ar    1  UNL1        0.0052
     15 C           1.0844   -0.1030   19.7762 C.ar    1  UNL1        0.0104
     16 N          -0.3288    3.2937   18.2880 N.1     1  UNL1       -0.1908
     17 C           0.5925    2.1435   18.5675 C.1     1  UNL1        0.1004
     18 C           6.6367   -3.1502   25.1588 C.ar    1  UNL1        0.0541
     19 C           7.2696   -1.9826   25.8560 C.ar    1  UNL1        0.0180
     20 C           7.8592   -2.1558   27.2243 C.ar    1  UNL1        0.0382
     21 C           7.8160   -3.4966   27.8953 C.ar    1  UNL1        0.1385
     22 C           7.1832   -4.6642   27.1981 C.ar    1  UNL1        0.0382
     23 C           6.5935   -4.4910   25.8298 C.ar    1  UNL1        0.0180
     24 O           8.4057   -3.6699   29.2637 O.3     1  UNL1       -0.4791
     25 C           7.7412   -3.0402   30.4519 C.3     1  UNL1        0.1687
     26 C           6.7113   -3.8059   31.2285 C.3     1  UNL1        0.0609
     27 C           6.0468   -3.1762   32.4167 C.3     1  UNL1        0.0758
     28 N           6.4122   -1.7808   32.8284 N.3     1  UNL1       -0.2737
     29 C           7.4421   -1.0152   32.0519 C.3     1  UNL1        0.0758
     30 C           8.1066   -1.6449   30.8636 C.3     1  UNL1        0.0609
     31 C           5.7477   -1.1512   34.0167 C.3     1  UNL1        0.0575
     32 C           4.3443   -1.1004   34.5439 C.3     1  UNL1        0.0160
     33 C           4.8079   -0.2607   35.6971 C.3     1  UNL1        0.0028
     34 C           6.2113   -0.3114   35.1699 C.3     1  UNL1        0.0160
@<TRIPOS>BOND
     1    16    17    3
     2    17    10    1
     3    10    11   ar
     4    11    12   ar
     5    12    13   ar
     6    13     1    1
     7     1     2    2
     8     1     3   am
     9     3     4    1
    10     4     5    1
    11     5     6    1
    12     6    18    1
    13    18    19   ar
    14    19    20   ar
    15    20    21   ar
    16    21    24    1
    17    24    25    1
    18    25    26    1
    19    26    27    1
    20    27    28    1
    21    28    31    1
    22    31    32    1
    23    32    33    1
    24    33    34    1
    25    28    29    1
    26    29    30    1
    27    21    22   ar
    28    22    23   ar
    29     6     7   am
    30     7     8    2
    31     7     9    1
    32    13    14   ar
    33    14    15   ar
    34    15    10   ar
    35     9     3    1
    36    23    18   ar
    37    30    25    1
    38    34    31    1
@<TRIPOS>MOLECULE
*****
 34 38 0 0 0
SMALL
GASTEIGER

@<TRIPOS>ATOM
      1 C           6.8908   -4.6325   31.3545 C.2     1  UNL1        0.2494
      2 O           6.9110   -5.9311   32.1050 O.2     1  UNL1       -0.2699
      3 N           6.9702   -4.6308   29.8566 N.am    1  UNL1       -0.2660
      4 C           6.9500   -3.3322   29.1060 C.3     1  UNL1        0.1160
      5 C           7.0294   -3.3304   27.6081 C.3     1  UNL1        0.1197
      6 N           7.1289   -4.6272   26.8608 N.am    1  UNL1       -0.2555
      7 C           7.1491   -5.9257   27.6113 C.2     1  UNL1        0.2497
      8 O           7.2487   -7.2224   26.8640 O.2     1  UNL1       -0.2727
      9 C           7.0697   -5.9275   29.1093 C.3     1  UNL1        0.1799
     10 C           6.5921   -0.7423   33.5965 C.ar    1  UNL1        0.0685
     11 C           5.3469   -1.4923   33.2266 C.ar    1  UNL1        0.0104
     12 C           5.4465   -2.7890   32.4793 C.ar    1  UNL1        0.0052
     13 C           6.7913   -3.3358   32.1018 C.ar    1  UNL1        0.0536
     14 C           8.0365   -2.5858   32.4717 C.ar    1  UNL1        0.0052
     15 C           7.9369   -1.2890   33.2190 C.ar    1  UNL1        0.0104
     16 N           6.3930    1.8512   35.0912 N.1     1  UNL1       -0.1908
     17 C           6.4926    0.5545   34.3438 C.1     1  UNL1        0.1004
     18 C           7.2083   -4.6253   25.3629 C.ar    1  UNL1        0.0541
     19 C           8.3349   -5.3335   24.6706 C.ar    1  UNL1        0.0180
     20 C           8.4142   -5.3317   23.1728 C.ar    1  UNL1        0.0382
     21 C           7.3669   -4.6216   22.3671 C.ar    1  UNL1        0.1385
     22 C           6.2403   -3.9134   23.0593 C.ar    1  UNL1        0.0382
     23 C           6.1610   -3.9153   24.5572 C.ar    1  UNL1        0.0180
     24 O           7.4463   -4.6198   20.8692 O.3     1  UNL1       -0.4791
     25 C           7.2093   -3.3497   20.1071 C.3     1  UNL1        0.1687
     26 C           5.9077   -3.1353   19.3931 C.3     1  UNL1        0.0609
     27 C           5.6707   -1.8653   18.6310 C.3     1  UNL1        0.0758
     28 N           6.7353   -0.8096   18.5830 N.3     1  UNL1       -0.2737
     29 C           8.0369   -1.0240   19.2970 C.3     1  UNL1        0.0758
     30 C           8.2739   -2.2942   20.0591 C.3     1  UNL1        0.0609
     31 C           6.4982    0.4605   17.8209 C.3     1  UNL1        0.0575
     32 C           6.8618    0.9611   16.4544 C.3     1  UNL1        0.0160
     33 C           6.1630    2.2566   16.7432 C.3     1  UNL1        0.0028
     34 C           5.7995    1.7560   18.1097 C.3     1  UNL1        0.0160
@<TRIPOS>BOND
     1    16    17    3
     2    17    10    1
     3    10    11   ar
     4    11    12   ar
     5    12    13   ar
     6    13     1    1
     7     1     2    2
     8     1     3   am
     9     3     4    1
    10     4     5    1
    11     5     6    1
    12     6    18    1
    13    18    19   ar
    14    19    20   ar
    15    20    21   ar
    16    21    24    1
    17    24    25    1
    18    25    26    1
    19    26    27    1
    20    27    28    1
    21    28    31    1
    22    31    32    1
    23    32    33    1
    24    33    34    1
    25    28    29    1
    26    29    30    1
    27    21    22   ar
    28    22    23   ar
    29     6     7   am
    30     7     8    2
    31     7     9    1
    32    13    14   ar
    33    14    15   ar
    34    15    10   ar
    35     9     3    1
    36    23    18   ar
    37    30    25    1
    38    34    31    1
@<TRIPOS>MOLECULE
*****
 34 38 0 0 0
SMALL
GASTEIGER

@<TRIPOS>ATOM
      1 C          -2.3727    3.7041   22.1476 C.2     1  UNL1        0.2494
      2 O          -2.6359    4.1501   23.5553 O.2     1  UNL1       -0.2699
      3 N          -1.1562    2.8838   21.8358 N.am    1  UNL1       -0.2660
      4 C          -0.8930    2.4377   20.4280 C.3     1  UNL1        0.1160
      5 C           0.3235    1.6173   20.1163 C.3     1  UNL1        0.1197
      6 N           1.2767    1.2429   21.2123 N.am    1  UNL1       -0.2555
      7 C           1.0135    1.6889   22.6200 C.2     1  UNL1        0.2497
      8 O           1.9667    1.3146   23.7160 O.2     1  UNL1       -0.2727
      9 C          -0.2030    2.5094   22.9318 C.3     1  UNL1        0.1799
     10 C          -5.2323    4.8273   18.8596 C.ar    1  UNL1        0.0685
     11 C          -4.0431    5.6947   19.1480 C.ar    1  UNL1        0.0104
     12 C          -3.0899    5.3203   20.2440 C.ar    1  UNL1        0.0052
     13 C          -3.3259    4.0785   21.0516 C.ar    1  UNL1        0.0536
     14 C          -4.5151    3.2111   20.7631 C.ar    1  UNL1        0.0052
     15 C          -5.4683    3.5855   19.6671 C.ar    1  UNL1        0.0104
     16 N          -7.1388    5.5761   16.6676 N.1     1  UNL1       -0.1908
     17 C          -6.1855    5.2017   17.7636 C.1     1  UNL1        0.1004
     18 C           2.4932    0.4225   20.9005 C.ar    1  UNL1        0.0541
     19 C           2.3421   -0.9917   20.4239 C.ar    1  UNL1        0.0180
     20 C           3.5585   -1.8120   20.1122 C.ar    1  UNL1        0.0382
     21 C           4.9261   -1.2182   20.2770 C.ar    1  UNL1        0.1385
     22 C           5.0771    0.1960   20.7535 C.ar    1  UNL1        0.0382
     23 C           3.8607    1.0164   21.0653 C.ar    1  UNL1        0.0180
     24 O           6.1425   -2.0386   19.9652 O.3     1  UNL1       -0.4791
     25 C           6.6160   -3.0776   20.9379 C.3     1  UNL1        0.1687
     26 C           7.7606   -3.9772   20.5765 C.3     1  UNL1        0.0609
     27 C           8.2340   -5.0161   21.5493 C.3     1  UNL1        0.0758
     28 N           7.5629   -5.1556   22.8836 N.3     1  UNL1       -0.2737
     29 C           6.4182   -4.2560   23.2450 C.3     1  UNL1        0.0758
     30 C           5.9448   -3.2170   22.2721 C.3     1  UNL1        0.0609
     31 C           8.0363   -6.1945   23.8563 C.3     1  UNL1        0.0575
     32 C           9.0330   -7.3146   23.8104 C.3     1  UNL1        0.0160
     33 C           8.7059   -7.6639   25.2321 C.3     1  UNL1        0.0028
     34 C           7.7092   -6.5438   25.2780 C.3     1  UNL1        0.0160
@<TRIPOS>BOND
     1    16    17    3
     2    17    10    1
     3    10    11   ar
     4    11    12   ar
     5    12    13   ar
     6    13     1    1
     7     1     2    2
     8     1     3   am
     9     3     4    1
    10     4     5    1
    11     5     6    1
    12     6    18    1
    13    18    19   ar
    14    19    20   ar
    15    20    21   ar
    16    21    24    1
    17    24    25    1
    18    25    26    1
    19    26    27    1
    20    27    28    1
    21    28    31    1
    22    31    32    1
    23    32    33    1
    24    33    34    1
    25    28    29    1
    26    29    30    1
    27    21    22   ar
    28    22    23   ar
    29     6     7   am
    30     7     8    2
    31     7     9    1
    32    13    14   ar
    33    14    15   ar
    34    15    10   ar
    35     9     3    1
    36    23    18   ar
    37    30    25    1
    38    34    31    1
@<TRIPOS>MOLECULE
*****
 34 38 0 0 0
SMALL
GASTEIGER

@<TRIPOS>ATOM
      1 C           4.4333    0.2536   34.7717 C.2     1  UNL1        0.2494
      2 O           5.3620   -0.9235   34.7288 O.2     1  UNL1       -0.2699
      3 N           3.6067    0.6009   33.5692 N.am    1  UNL1       -0.2660
      4 C           2.6780    1.7781   33.6121 C.3     1  UNL1        0.1160
      5 C           1.8514    2.1254   32.4096 C.3     1  UNL1        0.1197
      6 N           1.9534    1.2956   31.1642 N.am    1  UNL1       -0.2555
      7 C           2.8821    0.1185   31.1213 C.2     1  UNL1        0.2497
      8 O           2.9842   -0.7113   29.8759 O.2     1  UNL1       -0.2727
      9 C           3.7088   -0.2289   32.3238 C.3     1  UNL1        0.1799
     10 C           4.1271    2.7430   38.5079 C.ar    1  UNL1        0.0685
     11 C           3.4071    1.4300   38.4204 C.ar    1  UNL1        0.0104
     12 C           3.5092    0.6002   37.1750 C.ar    1  UNL1        0.0052
     13 C           4.3312    1.0834   36.0171 C.ar    1  UNL1        0.0536
     14 C           5.0512    2.3964   36.1046 C.ar    1  UNL1        0.0052
     15 C           4.9491    3.2262   37.3500 C.ar    1  UNL1        0.0104
     16 N           3.9229    4.4026   40.9987 N.1     1  UNL1       -0.1908
     17 C           4.0250    3.5728   39.7533 C.1     1  UNL1        0.1004
     18 C           1.1268    1.6430   29.9616 C.ar    1  UNL1        0.0541
     19 C           1.4307    2.8838   29.1756 C.ar    1  UNL1        0.0180
     20 C           0.6040    3.2312   27.9731 C.ar    1  UNL1        0.0382
     21 C          -0.5265    2.3376   27.5567 C.ar    1  UNL1        0.1385
     22 C          -0.8304    1.0968   28.3427 C.ar    1  UNL1        0.0382
     23 C          -0.0038    0.7495   29.5452 C.ar    1  UNL1        0.0180
     24 O          -1.3532    2.6850   26.3542 O.3     1  UNL1       -0.4791
     25 C          -0.8155    2.4341   24.9765 C.3     1  UNL1        0.1687
     26 C          -1.2984    3.2598   23.8211 C.3     1  UNL1        0.0609
     27 C          -0.7608    3.0089   22.4435 C.3     1  UNL1        0.0758
     28 N           0.2599    1.9324   22.2212 N.3     1  UNL1       -0.2737
     29 C           0.7428    1.1067   23.3767 C.3     1  UNL1        0.0758
     30 C           0.2051    1.3576   24.7544 C.3     1  UNL1        0.0609
     31 C           0.7976    1.6815   20.8436 C.3     1  UNL1        0.0575
     32 C           1.7588    2.3891   19.9350 C.3     1  UNL1        0.0160
     33 C           1.5580    1.3267   18.8953 C.3     1  UNL1        0.0028
     34 C           0.5968    0.6191   19.8038 C.3     1  UNL1        0.0160
@<TRIPOS>BOND
     1    16    17    3
     2    17    10    1
     3    10    11   ar
     4    11    12   ar
     5    12    13   ar
     6    13     1    1
     7     1     2    2
     8     1     3   am
     9     3     4    1
    10     4     5    1
    11     5     6    1
    12     6    18    1
    13    18    19   ar
    14    19    20   ar
    15    20    21   ar
    16    21    24    1
    17    24    25    1
    18    25    26    1
    19    26    27    1
    20    27    28    1
    21    28    31    1
    22    31    32    1
    23    32    33    1
    24    33    34    1
    25    28    29    1
    26    29    30    1
    27    21    22   ar
    28    22    23   ar
    29     6     7   am
    30     7     8    2
    31     7     9    1
    32    13    14   ar
    33    14    15   ar
    34    15    10   ar
    35     9     3    1
    36    23    18   ar
    37    30    25    1
    38    34    31    1
@<TRIPOS>MOLECULE
*****
 34 38 0 0 0
SMALL
GASTEIGER

@<TRIPOS>ATOM
      1 C           8.1883   -4.7919   28.5550 C.2     1  UNL1        0.2494
      2 O           8.9352   -6.0859   28.6876 O.2     1  UNL1       -0.2699
      3 N           7.6402   -4.3755   27.2223 N.am    1  UNL1       -0.2660
      4 C           6.8933   -3.0814   27.0896 C.3     1  UNL1        0.1160
      5 C           6.3452   -2.6651   25.7569 C.3     1  UNL1        0.1197
      6 N           6.5439   -3.5428   24.5568 N.am    1  UNL1       -0.2555
      7 C           7.2907   -4.8368   24.6894 C.2     1  UNL1        0.2497
      8 O           7.4895   -5.7145   23.4893 O.2     1  UNL1       -0.2727
      9 C           7.8389   -5.2532   26.0222 C.3     1  UNL1        0.1799
     10 C           7.5922   -2.1589   32.1552 C.ar    1  UNL1        0.0685
     11 C           8.7456   -1.9124   31.2285 C.ar    1  UNL1        0.0104
     12 C           8.9443   -2.7901   30.0285 C.ar    1  UNL1        0.0052
     13 C           7.9896   -3.9142   29.7550 C.ar    1  UNL1        0.0536
     14 C           6.8362   -4.1607   30.6817 C.ar    1  UNL1        0.0052
     15 C           6.6374   -3.2830   31.8818 C.ar    1  UNL1        0.0104
     16 N           7.1947   -0.4035   34.5554 N.1     1  UNL1       -0.1908
     17 C           7.3934   -1.2812   33.3553 C.1     1  UNL1        0.1004
     18 C           5.9957   -3.1263   23.2240 C.ar    1  UNL1        0.0541
     19 C           6.6276   -1.9909   22.4748 C.ar    1  UNL1        0.0180
     20 C           6.0794   -1.5745   21.1421 C.ar    1  UNL1        0.0382
     21 C           4.8993   -2.2936   20.5587 C.ar    1  UNL1        0.1385
     22 C           4.2675   -3.4291   21.3079 C.ar    1  UNL1        0.0382
     23 C           4.8157   -3.8454   22.6406 C.ar    1  UNL1        0.0180
     24 O           4.3512   -1.8772   19.2259 O.3     1  UNL1       -0.4791
     25 C           3.3155   -0.7951   19.1459 C.3     1  UNL1        0.1687
     26 C           3.5913    0.4502   18.3565 C.3     1  UNL1        0.0609
     27 C           2.5556    1.5322   18.2764 C.3     1  UNL1        0.0758
     28 N           1.2440    1.3690   18.9858 N.3     1  UNL1       -0.2737
     29 C           0.9682    0.1237   19.7752 C.3     1  UNL1        0.0758
     30 C           2.0039   -0.9584   19.8552 C.3     1  UNL1        0.0609
     31 C           0.2083    2.4510   18.9057 C.3     1  UNL1        0.0575
     32 C          -0.2742    3.3800   17.8314 C.3     1  UNL1        0.0160
     33 C          -1.2564    3.9813   18.7925 C.3     1  UNL1        0.0028
     34 C          -0.7740    3.0523   19.8668 C.3     1  UNL1        0.0160
@<TRIPOS>BOND
     1    16    17    3
     2    17    10    1
     3    10    11   ar
     4    11    12   ar
     5    12    13   ar
     6    13     1    1
     7     1     2    2
     8     1     3   am
     9     3     4    1
    10     4     5    1
    11     5     6    1
    12     6    18    1
    13    18    19   ar
    14    19    20   ar
    15    20    21   ar
    16    21    24    1
    17    24    25    1
    18    25    26    1
    19    26    27    1
    20    27    28    1
    21    28    31    1
    22    31    32    1
    23    32    33    1
    24    33    34    1
    25    28    29    1
    26    29    30    1
    27    21    22   ar
    28    22    23   ar
    29     6     7   am
    30     7     8    2
    31     7     9    1
    32    13    14   ar
    33    14    15   ar
    34    15    10   ar
    35     9     3    1
    36    23    18   ar
    37    30    25    1
    38    34    31    1
@<TRIPOS>MOLECULE
*****
 34 38 0 0 0
SMALL
GASTEIGER

@<TRIPOS>ATOM
      1 C           5.0439   -2.5212   23.5871 C.2     1  UNL1        0.2494
      2 O           5.9223   -3.6687   23.9890 O.2     1  UNL1       -0.2699
      3 N           4.4040   -1.6627   24.6376 N.am    1  UNL1       -0.2660
      4 C           3.5255   -0.5152   24.2357 C.3     1  UNL1        0.1160
      5 C           2.8857    0.3433   25.2862 C.3     1  UNL1        0.1197
      6 N           3.1244    0.0543   26.7386 N.am    1  UNL1       -0.2555
      7 C           4.0028   -1.0932   27.1405 C.2     1  UNL1        0.2497
      8 O           4.2415   -1.3822   28.5930 O.2     1  UNL1       -0.2727
      9 C           4.6427   -1.9517   26.0900 C.3     1  UNL1        0.1799
     10 C           4.3279   -1.6542   19.2298 C.ar    1  UNL1        0.0685
     11 C           5.3060   -0.8255   20.0086 C.ar    1  UNL1        0.0104
     12 C           5.5446   -1.1145   21.4610 C.ar    1  UNL1        0.0052
     13 C           4.8052   -2.2322   22.1346 C.ar    1  UNL1        0.0536
     14 C           3.8271   -3.0609   21.3559 C.ar    1  UNL1        0.0052
     15 C           3.5885   -2.7719   19.9035 C.ar    1  UNL1        0.0104
     16 N           3.8506   -1.0762   16.3250 N.1     1  UNL1       -0.1908
     17 C           4.0892   -1.3652   17.7774 C.1     1  UNL1        0.1004
     18 C           2.4845    0.9128   27.7892 C.ar    1  UNL1        0.0541
     19 C           1.0836    0.6254   28.2417 C.ar    1  UNL1        0.0180
     20 C           0.4438    1.4839   29.2922 C.ar    1  UNL1        0.0382
     21 C           1.2049    2.6298   29.8902 C.ar    1  UNL1        0.1385
     22 C           2.6058    2.9173   29.4376 C.ar    1  UNL1        0.0382
     23 C           3.2456    2.0587   28.3871 C.ar    1  UNL1        0.0180
     24 O           0.5650    3.4884   30.9407 O.3     1  UNL1       -0.4791
     25 C           1.0466    3.4213   32.3597 C.3     1  UNL1        0.1687
     26 C           0.7757    4.5597   33.2982 C.3     1  UNL1        0.0609
     27 C           1.2573    4.4926   34.7172 C.3     1  UNL1        0.0758
     28 N           2.0097    3.2872   35.1977 N.3     1  UNL1       -0.2737
     29 C           2.2806    2.1489   34.2592 C.3     1  UNL1        0.0758
     30 C           1.7990    2.2159   32.8402 C.3     1  UNL1        0.0609
     31 C           2.4913    3.2202   36.6167 C.3     1  UNL1        0.0575
     32 C           3.5638    2.4590   37.3380 C.3     1  UNL1        0.0160
     33 C           3.1723    3.1254   38.6235 C.3     1  UNL1        0.0028
     34 C           2.0997    3.8866   37.9023 C.3     1  UNL1        0.0160
@<TRIPOS>BOND
     1    16    17    3
     2    17    10    1
     3    10    11   ar
     4    11    12   ar
     5    12    13   ar
     6    13     1    1
     7     1     2    2
     8     1     3   am
     9     3     4    1
    10     4     5    1
    11     5     6    1
    12     6    18    1
    13    18    19   ar
    14    19    20   ar
    15    20    21   ar
    16    21    24    1
    17    24    25    1
    18    25    26    1
    19    26    27    1
    20    27    28    1
    21    28    31    1
    22    31    32    1
    23    32    33    1
    24    33    34    1
    25    28    29    1
    26    29    30    1
    27    21    22   ar
    28    22    23   ar
    29     6     7   am
    30     7     8    2
    31     7     9    1
    32    13    14   ar
    33    14    15   ar
    34    15    10   ar
    35     9     3    1
    36    23    18   ar
    37    30    25    1
    38    34    31    1
