@<TRIPOS>MOLECULE
*****
 27 30 0 0 0
SMALL
GASTEIGER

@<TRIPOS>ATOM
      1 C          -6.0750  -18.8518   21.3633 C.2     1  UNL1       -0.0246
      2 C          -7.5255  -18.7932   20.9856 C.2     1  UNL1       -0.0421
      3 C          -8.1898  -17.7674   21.8553 C.3     1  UNL1        0.0480
      4 C          -7.1499  -17.1920   22.7705 C.ar    1  UNL1       -0.0184
      5 C          -7.2243  -16.1445   23.8415 C.ar    1  UNL1       -0.0040
      6 C          -5.9917  -15.7671   24.6083 C.ar    1  UNL1       -0.0003
      7 C          -4.6847  -16.4372   24.3042 C.ar    1  UNL1       -0.0000
      8 C          -4.6103  -17.4848   23.2333 C.ar    1  UNL1       -0.0006
      9 C          -5.8429  -17.8622   22.4664 C.ar    1  UNL1       -0.0079
     10 C          -5.3436  -21.1920   20.5038 C.3     1  UNL1        0.0111
     11 C          -5.0386  -19.7434   20.7462 C.3     1  UNL1        0.0634
     12 C          -3.6972  -19.1866   20.3714 C.ar    1  UNL1        0.0818
     13 C          -2.4603  -19.6823   21.0601 C.ar    1  UNL1        0.1139
     14 N          -1.1189  -19.1255   20.6853 N.ar    1  UNL1       -0.2394
     15 C          -1.0143  -18.0728   19.6218 C.ar    1  UNL1        0.1195
     16 C          -2.2512  -17.5770   18.9331 C.ar    1  UNL1        0.1191
     17 N          -3.5926  -18.1339   19.3079 N.ar    1  UNL1       -0.2446
     18 C          -8.1943  -19.6159   19.9245 C.3     1  UNL1        0.0394
     19 C          -9.4540  -19.1233   19.2763 C.3     1  UNL1        0.0769
     20 N         -10.6788  -18.8787   20.1069 N.3     1  UNL1       -0.2648
     21 C         -11.4337  -17.5898   19.9687 C.3     1  UNL1        0.0900
     22 C         -11.1488  -19.9229   21.0758 C.3     1  UNL1        0.1377
     23 C         -11.0146  -19.6913   22.5517 C.ar    1  UNL1        0.1392
     24 C          -9.9963  -20.3225   23.4542 C.ar    1  UNL1        0.0376
     25 C         -10.2274  -19.8091   24.8445 C.ar    1  UNL1        0.0435
     26 C         -11.3887  -18.8607   24.8013 C.ar    1  UNL1        0.1792
     27 O         -11.8752  -18.7878   23.3843 O.2     1  UNL1       -0.4533
@<TRIPOS>BOND
     1    11    10    1
     2    11     1    1
     3     1     2    2
     4     2    18    1
     5    18    19    1
     6    19    20    1
     7    20    21    1
     8    20    22    1
     9    22    23    1
    10    23    24   ar
    11    24    25   ar
    12    25    26   ar
    13    26    27   ar
    14     2     3    1
    15     3     4    1
    16     4     5   ar
    17     5     6   ar
    18     6     7   ar
    19     7     8   ar
    20     8     9   ar
    21    11    12    1
    22    12    13   ar
    23    13    14   ar
    24    14    15   ar
    25    15    16   ar
    26    16    17   ar
    27     9     1    1
    28    17    12   ar
    29    27    23   ar
    30     9     4   ar
@<TRIPOS>MOLECULE
*****
 27 30 0 0 0
SMALL
GASTEIGER

@<TRIPOS>ATOM
      1 C          -8.4736  -17.1274   23.9887 C.2     1  UNL1       -0.0246
      2 C          -7.3265  -17.2295   23.0276 C.2     1  UNL1       -0.0421
      3 C          -6.1523  -16.5163   23.6299 C.3     1  UNL1        0.0480
      4 C          -6.5738  -15.9734   24.9632 C.ar    1  UNL1       -0.0184
      5 C          -5.8365  -15.1840   26.0040 C.ar    1  UNL1       -0.0040
      6 C          -6.5339  -14.7723   27.2666 C.ar    1  UNL1       -0.0003
      7 C          -7.9686  -15.1500   27.4883 C.ar    1  UNL1       -0.0000
      8 C          -8.7058  -15.9394   26.4476 C.ar    1  UNL1       -0.0006
      9 C          -8.0084  -16.3511   25.1850 C.ar    1  UNL1       -0.0079
     10 C         -10.3861  -18.7078   24.7602 C.3     1  UNL1        0.0111
     11 C          -9.8451  -17.7009   23.7887 C.3     1  UNL1        0.0634
     12 C         -10.6758  -17.2676   22.6174 C.ar    1  UNL1        0.0818
     13 C         -11.9579  -17.9798   22.3026 C.ar    1  UNL1        0.1139
     14 N         -12.7885  -17.5464   21.1312 N.ar    1  UNL1       -0.2394
     15 C         -12.3371  -16.4009   20.2745 C.ar    1  UNL1        0.1195
     16 C         -11.0550  -15.6886   20.5892 C.ar    1  UNL1        0.1191
     17 N         -10.2244  -16.1220   21.7606 N.ar    1  UNL1       -0.2446
     18 C          -7.3495  -17.9229   21.6978 C.3     1  UNL1        0.0394
     19 C          -7.2344  -19.4169   21.6289 C.3     1  UNL1        0.0769
     20 N          -5.9306  -20.0518   21.2453 N.3     1  UNL1       -0.2648
     21 C          -5.9093  -21.1899   20.2684 C.3     1  UNL1        0.0900
     22 C          -4.6481  -19.5486   21.8386 C.3     1  UNL1        0.1377
     23 C          -3.5839  -18.9769   20.9495 C.ar    1  UNL1        0.1392
     24 C          -2.1044  -19.0508   21.1854 C.ar    1  UNL1        0.0376
     25 C          -1.4184  -18.3505   20.0501 C.ar    1  UNL1        0.0435
     26 C          -2.4739  -17.8438   19.1125 C.ar    1  UNL1        0.1792
     27 O          -3.8122  -18.2310   19.6683 O.2     1  UNL1       -0.4533
@<TRIPOS>BOND
     1    11    10    1
     2    11     1    1
     3     1     2    2
     4     2    18    1
     5    18    19    1
     6    19    20    1
     7    20    21    1
     8    20    22    1
     9    22    23    1
    10    23    24   ar
    11    24    25   ar
    12    25    26   ar
    13    26    27   ar
    14     2     3    1
    15     3     4    1
    16     4     5   ar
    17     5     6   ar
    18     6     7   ar
    19     7     8   ar
    20     8     9   ar
    21    11    12    1
    22    12    13   ar
    23    13    14   ar
    24    14    15   ar
    25    15    16   ar
    26    16    17   ar
    27     9     1    1
    28    17    12   ar
    29    27    23   ar
    30     9     4   ar
@<TRIPOS>MOLECULE
*****
 27 30 0 0 0
SMALL
GASTEIGER

@<TRIPOS>ATOM
      1 C          -8.6696  -17.0208   22.2339 C.2     1  UNL1       -0.0246
      2 C          -8.0752  -18.2472   21.6074 C.2     1  UNL1       -0.0421
      3 C          -9.1958  -19.1876   21.2757 C.3     1  UNL1        0.0480
      4 C         -10.4826  -18.5424   21.6972 C.ar    1  UNL1       -0.0184
      5 C         -11.9085  -19.0013   21.6183 C.ar    1  UNL1       -0.0040
      6 C         -13.0092  -18.1210   22.1316 C.ar    1  UNL1       -0.0003
      7 C         -12.6840  -16.7818   22.7238 C.ar    1  UNL1       -0.0000
      8 C         -11.2581  -16.3228   22.8028 C.ar    1  UNL1       -0.0006
      9 C         -10.1574  -17.2032   22.2895 C.ar    1  UNL1       -0.0079
     10 C          -7.5791  -14.7085   21.7707 C.3     1  UNL1        0.0111
     11 C          -7.9096  -15.8223   22.7197 C.3     1  UNL1        0.0634
     12 C          -7.4800  -15.7374   24.1542 C.ar    1  UNL1        0.0818
     13 C          -8.4054  -16.1946   25.2426 C.ar    1  UNL1        0.1139
     14 N          -7.9757  -16.1097   26.6773 N.ar    1  UNL1       -0.2394
     15 C          -6.6207  -15.5675   27.0236 C.ar    1  UNL1        0.1195
     16 C          -5.6952  -15.1103   25.9352 C.ar    1  UNL1        0.1191
     17 N          -6.1249  -15.1952   24.5006 N.ar    1  UNL1       -0.2446
     18 C          -6.6165  -18.4905   21.3566 C.3     1  UNL1        0.0394
     19 C          -5.7969  -19.2400   22.3649 C.3     1  UNL1        0.0769
     20 N          -4.3400  -18.9244   22.5309 N.3     1  UNL1       -0.2648
     21 C          -3.9100  -17.8418   23.4761 C.3     1  UNL1        0.0900
     22 C          -3.3129  -19.6913   21.7519 C.3     1  UNL1        0.1377
     23 C          -2.4702  -18.9898   20.7283 C.ar    1  UNL1        0.1392
     24 C          -2.9402  -18.4814   19.3976 C.ar    1  UNL1        0.0376
     25 C          -1.7699  -17.8509   18.7026 C.ar    1  UNL1        0.0435
     26 C          -0.5767  -17.9697   19.6037 C.ar    1  UNL1        0.1792
     27 O          -1.0094  -18.6735   20.8556 O.2     1  UNL1       -0.4533
@<TRIPOS>BOND
     1    11    10    1
     2    11     1    1
     3     1     2    2
     4     2    18    1
     5    18    19    1
     6    19    20    1
     7    20    21    1
     8    20    22    1
     9    22    23    1
    10    23    24   ar
    11    24    25   ar
    12    25    26   ar
    13    26    27   ar
    14     2     3    1
    15     3     4    1
    16     4     5   ar
    17     5     6   ar
    18     6     7   ar
    19     7     8   ar
    20     8     9   ar
    21    11    12    1
    22    12    13   ar
    23    13    14   ar
    24    14    15   ar
    25    15    16   ar
    26    16    17   ar
    27     9     1    1
    28    17    12   ar
    29    27    23   ar
    30     9     4   ar
@<TRIPOS>MOLECULE
*****
 27 30 0 0 0
SMALL
GASTEIGER

@<TRIPOS>ATOM
      1 C          -6.4645  -17.9725   22.6346 C.2     1  UNL1       -0.0246
      2 C          -6.9654  -19.3237   22.2181 C.2     1  UNL1       -0.0421
      3 C          -5.7782  -20.1685   21.8620 C.3     1  UNL1        0.0480
      4 C          -4.5436  -19.3395   22.0583 C.ar    1  UNL1       -0.0184
      5 C          -3.0881  -19.6451   21.8640 C.ar    1  UNL1       -0.0040
      6 C          -2.0566  -18.5935   22.1471 C.ar    1  UNL1       -0.0003
      7 C          -2.4808  -17.2363   22.6246 C.ar    1  UNL1       -0.0000
      8 C          -3.9364  -16.9307   22.8190 C.ar    1  UNL1       -0.0006
      9 C          -4.9678  -17.9823   22.5358 C.ar    1  UNL1       -0.0079
     10 C          -8.2356  -16.1493   22.0963 C.3     1  UNL1        0.0111
     11 C          -7.3116  -16.8148   23.0729 C.3     1  UNL1        0.0634
     12 C          -7.2349  -16.3225   24.4876 C.ar    1  UNL1        0.0818
     13 C          -8.4295  -16.4373   25.3876 C.ar    1  UNL1        0.1139
     14 N          -8.3527  -15.9450   26.8024 N.ar    1  UNL1       -0.2394
     15 C          -7.0815  -15.3378   27.3173 C.ar    1  UNL1        0.1195
     16 C          -5.8869  -15.2229   26.4174 C.ar    1  UNL1        0.1191
     17 N          -5.9636  -15.7153   25.0026 N.ar    1  UNL1       -0.2446
     18 C          -8.4013  -19.7544   22.1668 C.3     1  UNL1        0.0394
     19 C          -9.1876  -19.8963   23.4363 C.3     1  UNL1        0.0769
     20 N         -10.6292  -19.4838   23.4757 N.3     1  UNL1       -0.2648
     21 C         -11.2457  -19.0344   24.7672 C.3     1  UNL1        0.0900
     22 C         -11.4544  -19.5208   22.2236 C.3     1  UNL1        0.1377
     23 C         -11.6374  -18.2748   21.4089 C.ar    1  UNL1        0.1392
     24 C         -10.9458  -17.9570   20.1163 C.ar    1  UNL1        0.0376
     25 C         -11.4251  -16.6135   19.6522 C.ar    1  UNL1        0.0435
     26 C         -12.4129  -16.1010   20.6580 C.ar    1  UNL1        0.1792
     27 O         -12.5441  -17.1277   21.7436 O.2     1  UNL1       -0.4533
@<TRIPOS>BOND
     1    11    10    1
     2    11     1    1
     3     1     2    2
     4     2    18    1
     5    18    19    1
     6    19    20    1
     7    20    21    1
     8    20    22    1
     9    22    23    1
    10    23    24   ar
    11    24    25   ar
    12    25    26   ar
    13    26    27   ar
    14     2     3    1
    15     3     4    1
    16     4     5   ar
    17     5     6   ar
    18     6     7   ar
    19     7     8   ar
    20     8     9   ar
    21    11    12    1
    22    12    13   ar
    23    13    14   ar
    24    14    15   ar
    25    15    16   ar
    26    16    17   ar
    27     9     1    1
    28    17    12   ar
    29    27    23   ar
    30     9     4   ar
@<TRIPOS>MOLECULE
*****
 27 30 0 0 0
SMALL
GASTEIGER

@<TRIPOS>ATOM
      1 C          -6.7206  -17.7606   22.7577 C.2     1  UNL1       -0.0246
      2 C          -7.4731  -19.0123   22.4155 C.2     1  UNL1       -0.0421
      3 C          -6.4769  -20.0517   21.9947 C.3     1  UNL1        0.0480
      4 C          -5.1086  -19.4425   22.0768 C.ar    1  UNL1       -0.0184
      5 C          -3.7450  -19.9941   21.7832 C.ar    1  UNL1       -0.0040
      6 C          -2.5321  -19.1298   21.9610 C.ar    1  UNL1       -0.0003
      7 C          -2.6827  -17.7138   22.4326 C.ar    1  UNL1       -0.0000
      8 C          -4.0463  -17.1622   22.7263 C.ar    1  UNL1       -0.0006
      9 C          -5.2592  -18.0265   22.5484 C.ar    1  UNL1       -0.0079
     10 C          -8.0543  -15.5876   22.2584 C.3     1  UNL1        0.0111
     11 C          -7.3235  -16.4698   23.2269 C.3     1  UNL1        0.0634
     12 C          -7.1957  -16.0609   24.6643 C.ar    1  UNL1        0.0818
     13 C          -5.9233  -15.4374   25.1565 C.ar    1  UNL1        0.1139
     14 N          -5.7955  -15.0285   26.5940 N.ar    1  UNL1       -0.2394
     15 C          -6.9400  -15.2432   27.5395 C.ar    1  UNL1        0.1195
     16 C          -8.2125  -15.8668   27.0474 C.ar    1  UNL1        0.1191
     17 N          -8.3403  -16.2756   25.6098 N.ar    1  UNL1       -0.2446
     18 C          -8.9607  -19.1928   22.4824 C.3     1  UNL1        0.0394
     19 C          -9.6831  -19.8859   21.3654 C.3     1  UNL1        0.0769
     20 N          -9.7674  -19.2420   20.0132 N.3     1  UNL1       -0.2648
     21 C          -8.7980  -19.6297   18.9361 C.3     1  UNL1        0.0900
     22 C         -10.8210  -18.2104   19.7381 C.3     1  UNL1        0.1377
     23 C         -11.5197  -17.5296   20.8775 C.ar    1  UNL1        0.1392
     24 C         -12.5642  -18.1414   21.7633 C.ar    1  UNL1        0.0376
     25 C         -12.9866  -17.1073   22.7645 C.ar    1  UNL1        0.0435
     26 C         -12.2031  -15.8564   22.4975 C.ar    1  UNL1        0.1792
     27 O         -11.2965  -16.1174   21.3313 O.2     1  UNL1       -0.4533
@<TRIPOS>BOND
     1    11    10    1
     2    11     1    1
     3     1     2    2
     4     2    18    1
     5    18    19    1
     6    19    20    1
     7    20    21    1
     8    20    22    1
     9    22    23    1
    10    23    24   ar
    11    24    25   ar
    12    25    26   ar
    13    26    27   ar
    14     2     3    1
    15     3     4    1
    16     4     5   ar
    17     5     6   ar
    18     6     7   ar
    19     7     8   ar
    20     8     9   ar
    21    11    12    1
    22    12    13   ar
    23    13    14   ar
    24    14    15   ar
    25    15    16   ar
    26    16    17   ar
    27     9     1    1
    28    17    12   ar
    29    27    23   ar
    30     9     4   ar
@<TRIPOS>MOLECULE
*****
 27 30 0 0 0
SMALL
GASTEIGER

@<TRIPOS>ATOM
      1 C          -8.3975  -16.9505   23.8826 C.2     1  UNL1       -0.0246
      2 C          -9.5585  -17.7435   24.4051 C.2     1  UNL1       -0.0421
      3 C          -9.6138  -17.5591   25.8927 C.3     1  UNL1        0.0480
      4 C          -8.4869  -16.6520   26.2895 C.ar    1  UNL1       -0.0184
      5 C          -8.0482  -16.1200   27.6216 C.ar    1  UNL1       -0.0040
      6 C          -6.8578  -15.2119   27.7113 C.ar    1  UNL1       -0.0003
      7 C          -6.1061  -14.8357   26.4689 C.ar    1  UNL1       -0.0000
      8 C          -6.5448  -15.3677   25.1369 C.ar    1  UNL1       -0.0006
      9 C          -7.7352  -16.2759   25.0472 C.ar    1  UNL1       -0.0079
     10 C          -8.2861  -15.6131   21.6579 C.3     1  UNL1        0.0111
     11 C          -7.9733  -16.8497   22.4473 C.3     1  UNL1        0.0634
     12 C          -7.2363  -17.9853   21.8015 C.ar    1  UNL1        0.0818
     13 C          -7.9336  -18.8604   20.8026 C.ar    1  UNL1        0.1139
     14 N          -7.1965  -19.9960   20.1568 N.ar    1  UNL1       -0.2394
     15 C          -5.7622  -20.2566   20.5099 C.ar    1  UNL1        0.1195
     16 C          -5.0648  -19.3815   21.5089 C.ar    1  UNL1        0.1191
     17 N          -5.8019  -18.2459   22.1547 N.ar    1  UNL1       -0.2446
     18 C         -10.4992  -18.5751   23.5843 C.3     1  UNL1        0.0394
     19 C         -11.6803  -19.2330   24.2337 C.3     1  UNL1        0.0769
     20 N         -13.0229  -18.5648   24.2013 N.3     1  UNL1       -0.2648
     21 C         -13.7864  -18.3535   25.4751 C.3     1  UNL1        0.0900
     22 C         -13.6018  -18.1078   22.8952 C.3     1  UNL1        0.1377
     23 C         -12.6961  -17.6256   21.8011 C.ar    1  UNL1        0.1392
     24 C         -12.2780  -16.2046   21.5647 C.ar    1  UNL1        0.0376
     25 C         -11.3729  -16.1804   20.3688 C.ar    1  UNL1        0.0435
     26 C         -11.2316  -17.5866   19.8660 C.ar    1  UNL1        0.1792
     27 O         -12.0494  -18.4797   20.7512 O.2     1  UNL1       -0.4533
@<TRIPOS>BOND
     1    11    10    1
     2    11     1    1
     3     1     2    2
     4     2    18    1
     5    18    19    1
     6    19    20    1
     7    20    21    1
     8    20    22    1
     9    22    23    1
    10    23    24   ar
    11    24    25   ar
    12    25    26   ar
    13    26    27   ar
    14     2     3    1
    15     3     4    1
    16     4     5   ar
    17     5     6   ar
    18     6     7   ar
    19     7     8   ar
    20     8     9   ar
    21    11    12    1
    22    12    13   ar
    23    13    14   ar
    24    14    15   ar
    25    15    16   ar
    26    16    17   ar
    27     9     1    1
    28    17    12   ar
    29    27    23   ar
    30     9     4   ar
@<TRIPOS>MOLECULE
*****
 27 30 0 0 0
SMALL
GASTEIGER

@<TRIPOS>ATOM
      1 C          -5.7611  -17.8998   22.6141 C.2     1  UNL1       -0.0246
      2 C          -7.0917  -17.9117   21.9218 C.2     1  UNL1       -0.0421
      3 C          -7.9840  -16.9257   22.6156 C.3     1  UNL1        0.0480
      4 C          -7.2050  -16.3044   23.7368 C.ar    1  UNL1       -0.0184
      5 C          -7.5691  -15.2683   24.7585 C.ar    1  UNL1       -0.0040
      6 C          -6.5593  -14.8342   25.7792 C.ar    1  UNL1       -0.0003
      7 C          -5.1855  -15.4363   25.7783 C.ar    1  UNL1       -0.0000
      8 C          -4.8214  -16.4724   24.7566 C.ar    1  UNL1       -0.0006
      9 C          -5.8311  -16.9065   23.7359 C.ar    1  UNL1       -0.0079
     10 C          -4.5773  -20.2106   22.5174 C.3     1  UNL1        0.0111
     11 C          -4.5697  -18.7347   22.2489 C.3     1  UNL1        0.0634
     12 C          -3.3706  -18.0940   21.6152 C.ar    1  UNL1        0.0818
     13 C          -2.6464  -18.7932   20.5032 C.ar    1  UNL1        0.1139
     14 N          -1.4473  -18.1523   19.8695 N.ar    1  UNL1       -0.2394
     15 C          -0.9724  -16.8123   20.3478 C.ar    1  UNL1        0.1195
     16 C          -1.6967  -16.1130   21.4598 C.ar    1  UNL1        0.1191
     17 N          -2.8957  -16.7539   22.0935 N.ar    1  UNL1       -0.2446
     18 C          -7.4645  -18.7606   20.7426 C.3     1  UNL1        0.0394
     19 C          -8.7395  -19.5505   20.7602 C.3     1  UNL1        0.0769
     20 N          -9.6102  -19.5965   19.5396 N.3     1  UNL1       -0.2648
     21 C          -9.2046  -20.4297   18.3600 C.3     1  UNL1        0.0900
     22 C         -10.8864  -18.8095   19.4987 C.3     1  UNL1        0.1377
     23 C         -11.3023  -17.9926   20.6860 C.ar    1  UNL1        0.1392
     24 C         -11.2576  -16.4966   20.7864 C.ar    1  UNL1        0.0376
     25 C         -11.7636  -16.1078   22.1439 C.ar    1  UNL1        0.0435
     26 C         -12.1210  -17.3634   22.8825 C.ar    1  UNL1        0.1792
     27 O         -11.8359  -18.5283   21.9815 O.2     1  UNL1       -0.4533
@<TRIPOS>BOND
     1    11    10    1
     2    11     1    1
     3     1     2    2
     4     2    18    1
     5    18    19    1
     6    19    20    1
     7    20    21    1
     8    20    22    1
     9    22    23    1
    10    23    24   ar
    11    24    25   ar
    12    25    26   ar
    13    26    27   ar
    14     2     3    1
    15     3     4    1
    16     4     5   ar
    17     5     6   ar
    18     6     7   ar
    19     7     8   ar
    20     8     9   ar
    21    11    12    1
    22    12    13   ar
    23    13    14   ar
    24    14    15   ar
    25    15    16   ar
    26    16    17   ar
    27     9     1    1
    28    17    12   ar
    29    27    23   ar
    30     9     4   ar
@<TRIPOS>MOLECULE
*****
 27 30 0 0 0
SMALL
GASTEIGER

@<TRIPOS>ATOM
      1 C          -6.2396  -16.2366   23.7535 C.2     1  UNL1       -0.0246
      2 C          -7.4393  -16.8360   23.0815 C.2     1  UNL1       -0.0421
      3 C          -8.5868  -16.7802   24.0459 C.3     1  UNL1        0.0480
      4 C          -8.0965  -16.1464   25.3139 C.ar    1  UNL1       -0.0184
      5 C          -8.7835  -15.8318   26.6096 C.ar    1  UNL1       -0.0040
      6 C          -8.0198  -15.1812   27.7247 C.ar    1  UNL1       -0.0003
      7 C          -6.5691  -14.8452   27.5440 C.ar    1  UNL1       -0.0000
      8 C          -5.8821  -15.1598   26.2483 C.ar    1  UNL1       -0.0006
      9 C          -6.6458  -15.8104   25.1332 C.ar    1  UNL1       -0.0079
     10 C          -4.2411  -14.7329   23.0500 C.3     1  UNL1        0.0111
     11 C          -4.8736  -16.0893   23.1516 C.3     1  UNL1        0.0634
     12 C          -4.1401  -17.2982   22.6513 C.ar    1  UNL1        0.0818
     13 C          -4.5012  -18.6605   23.1649 C.ar    1  UNL1        0.1139
     14 N          -3.7676  -19.8694   22.6645 N.ar    1  UNL1       -0.2394
     15 C          -2.6729  -19.7160   21.6506 C.ar    1  UNL1        0.1195
     16 C          -2.3117  -18.3537   21.1369 C.ar    1  UNL1        0.1191
     17 N          -3.0453  -17.1448   21.6373 N.ar    1  UNL1       -0.2446
     18 C          -7.4836  -17.3933   21.6896 C.3     1  UNL1        0.0394
     19 C          -7.6883  -18.8639   21.4767 C.3     1  UNL1        0.0769
     20 N          -8.9811  -19.5076   21.8819 N.3     1  UNL1       -0.2648
     21 C          -9.0971  -20.1819   23.2168 C.3     1  UNL1        0.0900
     22 C         -10.1578  -19.4771   20.9523 C.3     1  UNL1        0.1377
     23 C         -10.9036  -18.1950   20.7281 C.ar    1  UNL1        0.1392
     24 C         -12.0794  -17.7085   21.5224 C.ar    1  UNL1        0.0376
     25 C         -12.5069  -16.3872   20.9556 C.ar    1  UNL1        0.0435
     26 C         -11.5953  -16.0570   19.8110 C.ar    1  UNL1        0.1792
     27 O         -10.6044  -17.1743   19.6705 O.2     1  UNL1       -0.4533
@<TRIPOS>BOND
     1    11    10    1
     2    11     1    1
     3     1     2    2
     4     2    18    1
     5    18    19    1
     6    19    20    1
     7    20    21    1
     8    20    22    1
     9    22    23    1
    10    23    24   ar
    11    24    25   ar
    12    25    26   ar
    13    26    27   ar
    14     2     3    1
    15     3     4    1
    16     4     5   ar
    17     5     6   ar
    18     6     7   ar
    19     7     8   ar
    20     8     9   ar
    21    11    12    1
    22    12    13   ar
    23    13    14   ar
    24    14    15   ar
    25    15    16   ar
    26    16    17   ar
    27     9     1    1
    28    17    12   ar
    29    27    23   ar
    30     9     4   ar
@<TRIPOS>MOLECULE
*****
 27 30 0 0 0
SMALL
GASTEIGER

@<TRIPOS>ATOM
      1 C          -7.7672  -18.4011   22.2508 C.2     1  UNL1       -0.0246
      2 C          -9.0281  -19.0929   22.6767 C.2     1  UNL1       -0.0421
      3 C          -9.5941  -18.3452   23.8475 C.3     1  UNL1        0.0480
      4 C          -8.6830  -17.1914   24.1451 C.ar    1  UNL1       -0.0184
      5 C          -8.7356  -16.1138   25.1871 C.ar    1  UNL1       -0.0040
      6 C          -7.6591  -15.0707   25.2424 C.ar    1  UNL1       -0.0003
      7 C          -6.5300  -15.1053   24.2556 C.ar    1  UNL1       -0.0000
      8 C          -6.4773  -16.1829   23.2135 C.ar    1  UNL1       -0.0006
      9 C          -7.5538  -17.2259   23.1583 C.ar    1  UNL1       -0.0079
     10 C          -7.4652  -19.1098   19.7695 C.3     1  UNL1        0.0111
     11 C          -6.8759  -18.8123   21.1165 C.3     1  UNL1        0.0634
     12 C          -5.3955  -18.9260   21.3290 C.ar    1  UNL1        0.0818
     13 C          -4.8629  -19.4707   22.6212 C.ar    1  UNL1        0.1139
     14 N          -3.3824  -19.5844   22.8337 N.ar    1  UNL1       -0.2394
     15 C          -2.4344  -19.1535   21.7541 C.ar    1  UNL1        0.1195
     16 C          -2.9669  -18.6088   20.4619 C.ar    1  UNL1        0.1191
     17 N          -4.4474  -18.4951   20.2494 N.ar    1  UNL1       -0.2446
     18 C          -9.6193  -20.3172   22.0432 C.3     1  UNL1        0.0394
     19 C         -10.8214  -20.1957   21.1543 C.3     1  UNL1        0.0769
     20 N         -10.7100  -19.4925   19.8341 N.3     1  UNL1       -0.2648
     21 C         -10.0859  -20.1910   18.6625 C.3     1  UNL1        0.0900
     22 C         -11.2227  -18.0907   19.6855 C.3     1  UNL1        0.1377
     23 C         -11.7055  -17.3371   20.8892 C.ar    1  UNL1        0.1392
     24 C         -11.0603  -16.1213   21.4855 C.ar    1  UNL1        0.0376
     25 C         -11.8744  -15.6997   22.6728 C.ar    1  UNL1        0.0435
     26 C         -13.0227  -16.6550   22.8102 C.ar    1  UNL1        0.1792
     27 O         -12.9183  -17.6669   21.7079 O.2     1  UNL1       -0.4533
@<TRIPOS>BOND
     1    11    10    1
     2    11     1    1
     3     1     2    2
     4     2    18    1
     5    18    19    1
     6    19    20    1
     7    20    21    1
     8    20    22    1
     9    22    23    1
    10    23    24   ar
    11    24    25   ar
    12    25    26   ar
    13    26    27   ar
    14     2     3    1
    15     3     4    1
    16     4     5   ar
    17     5     6   ar
    18     6     7   ar
    19     7     8   ar
    20     8     9   ar
    21    11    12    1
    22    12    13   ar
    23    13    14   ar
    24    14    15   ar
    25    15    16   ar
    26    16    17   ar
    27     9     1    1
    28    17    12   ar
    29    27    23   ar
    30     9     4   ar
