@<TRIPOS>MOLECULE
*****
 34 38 0 0 0
SMALL
GASTEIGER

@<TRIPOS>ATOM
      1 N         -10.7821  -19.1363   21.5658 N.3     1  UNL1       -0.2672
      2 C          -9.6936  -18.9478   20.5510 C.3     1  UNL1        0.0898
      3 C          -8.2918  -19.3792   20.8658 C.3     1  UNL1        0.0899
      4 N          -7.9786  -19.9990   22.1954 N.3     1  UNL1       -0.2665
      5 C          -9.0671  -20.1874   23.2101 C.3     1  UNL1        0.0899
      6 C         -10.4688  -19.7561   22.8953 C.3     1  UNL1        0.0898
      7 C         -12.1838  -18.7050   21.2509 C.3     1  UNL1        0.1201
      8 C         -12.8982  -17.7524   22.1633 C.3     1  UNL1        0.2226
      9 O         -12.1313  -16.6764   22.8734 O.3     1  UNL1       -0.4739
     10 C          -5.7382  -15.6352   25.1743 C.3     1  UNL1        0.0521
     11 C          -7.0390  -15.7375   24.4344 C.ar    1  UNL1        0.0593
     12 C          -8.2289  -16.3698   25.0932 C.ar    1  UNL1        0.0148
     13 C          -9.5297  -16.4720   24.3533 C.ar    1  UNL1        0.0057
     14 C          -9.6406  -15.9419   22.9545 C.ar    1  UNL1        0.0516
     15 C         -10.9413  -16.0441   22.2146 C.ar    1  UNL1        0.1400
     16 C         -11.0522  -15.5140   20.8158 C.ar    1  UNL1        0.0370
     17 C          -9.8622  -14.8816   20.1569 C.ar    1  UNL1        0.0047
     18 C          -8.5614  -14.7794   20.8968 C.ar    1  UNL1        0.0193
     19 C          -8.4506  -15.3096   22.2957 C.ar    1  UNL1        0.0838
     20 N          -7.1498  -15.2074   23.0356 N.ar    1  UNL1       -0.2496
     21 C          -6.5769  -20.4303   22.5102 C.3     1  UNL1        0.1015
     22 C          -5.4552  -20.0714   21.5812 C.ar    1  UNL1        0.0228
     23 C          -5.2521  -20.8493   20.3149 C.ar    1  UNL1        0.0025
     24 C          -4.1304  -20.4903   19.3859 C.ar    1  UNL1        0.0381
     25 C          -3.2119  -19.3535   19.7233 C.ar    1  UNL1        0.1550
     26 C          -3.4150  -18.5755   20.9896 C.ar    1  UNL1        0.1156
     27 C          -4.5367  -18.9345   21.9185 C.ar    1  UNL1        0.1540
     28 F          -4.7398  -18.1566   23.1849 F       1  UNL1       -0.2030
     29 N          -2.4965  -17.4387   21.3269 N.am    1  UNL1       -0.2494
     30 C          -2.6996  -16.6607   22.5932 C.3     1  UNL1        0.1203
     31 C          -1.3748  -17.0797   20.3979 C.2     1  UNL1        0.2740
     32 O          -0.4563  -15.9428   20.7353 O.2     1  UNL1       -0.2705
     33 C          -1.1717  -17.8576   19.1316 C.3     1  UNL1        0.2900
     34 O          -2.0902  -18.9945   18.7942 O.3     1  UNL1       -0.4643
@<TRIPOS>BOND
     1    10    11    1
     2    11    12   ar
     3    12    13   ar
     4    13    14   ar
     5    14    15   ar
     6    15     9    1
     7     9     8    1
     8     8     7    1
     9     7     1    1
    10     1     2    1
    11     2     3    1
    12     3     4    1
    13     4    21    1
    14    21    22    1
    15    22    23   ar
    16    23    24   ar
    17    24    25   ar
    18    25    26   ar
    19    26    27   ar
    20    27    28    1
    21    26    29    1
    22    29    30    1
    23    29    31   am
    24    31    32    2
    25    31    33    1
    26    33    34    1
    27     4     5    1
    28     5     6    1
    29    15    16   ar
    30    16    17   ar
    31    17    18   ar
    32    18    19   ar
    33    19    20   ar
    34    20    11   ar
    35    19    14   ar
    36     6     1    1
    37    27    22   ar
    38    34    25    1
@<TRIPOS>MOLECULE
*****
 34 38 0 0 0
SMALL
GASTEIGER

@<TRIPOS>ATOM
      1 N          -4.1490  -18.4431   21.6810 N.3     1  UNL1       -0.2672
      2 C          -4.3413  -18.5381   20.1964 C.3     1  UNL1        0.0898
      3 C          -5.6019  -19.1307   19.6398 C.3     1  UNL1        0.0899
      4 N          -6.6702  -19.6283   20.5678 N.3     1  UNL1       -0.2665
      5 C          -6.4779  -19.5333   22.0524 C.3     1  UNL1        0.0899
      6 C          -5.2173  -18.9407   22.6090 C.3     1  UNL1        0.0898
      7 C          -2.8885  -17.8505   22.2376 C.3     1  UNL1        0.1201
      8 C          -2.9603  -16.6938   23.1900 C.3     1  UNL1        0.2226
      9 O          -4.1144  -15.7380   23.1233 O.3     1  UNL1       -0.4739
     10 C         -10.9852  -15.7435   22.9193 C.3     1  UNL1        0.0521
     11 C          -9.5213  -15.7350   23.2463 C.ar    1  UNL1        0.0593
     12 C          -8.5061  -15.7633   22.1424 C.ar    1  UNL1        0.0148
     13 C          -7.0422  -15.7549   22.4694 C.ar    1  UNL1        0.0057
     14 C          -6.5935  -15.7181   23.9002 C.ar    1  UNL1        0.0516
     15 C          -5.1296  -15.7097   24.2271 C.ar    1  UNL1        0.1400
     16 C          -4.6809  -15.6729   25.6579 C.ar    1  UNL1        0.0370
     17 C          -5.6961  -15.6446   26.7619 C.ar    1  UNL1        0.0047
     18 C          -7.1600  -15.6531   26.4349 C.ar    1  UNL1        0.0193
     19 C          -7.6087  -15.6898   25.0040 C.ar    1  UNL1        0.0838
     20 N          -9.0726  -15.6983   24.6771 N.ar    1  UNL1       -0.2496
     21 C          -7.9307  -20.2209   20.0112 C.3     1  UNL1        0.1015
     22 C          -9.2598  -19.6177   20.3577 C.ar    1  UNL1        0.0228
     23 C         -10.0888  -18.9664   19.2907 C.ar    1  UNL1        0.0025
     24 C         -11.4177  -18.3632   19.6372 C.ar    1  UNL1        0.0381
     25 C         -11.9176  -18.4113   21.0506 C.ar    1  UNL1        0.1550
     26 C         -11.0886  -19.0626   22.1176 C.ar    1  UNL1        0.1156
     27 C          -9.7596  -19.6658   21.7711 C.ar    1  UNL1        0.1540
     28 F          -8.9305  -20.3171   22.8381 F       1  UNL1       -0.2030
     29 N         -11.5885  -19.1107   23.5310 N.am    1  UNL1       -0.2494
     30 C         -10.7594  -19.7620   24.5980 C.3     1  UNL1        0.1203
     31 C         -12.9174  -18.5075   23.8775 C.2     1  UNL1        0.2740
     32 O         -13.4173  -18.5556   25.2909 O.2     1  UNL1       -0.2705
     33 C         -13.7465  -17.8562   22.8105 C.3     1  UNL1        0.2900
     34 O         -13.2466  -17.8081   21.3970 O.3     1  UNL1       -0.4643
@<TRIPOS>BOND
     1    10    11    1
     2    11    12   ar
     3    12    13   ar
     4    13    14   ar
     5    14    15   ar
     6    15     9    1
     7     9     8    1
     8     8     7    1
     9     7     1    1
    10     1     2    1
    11     2     3    1
    12     3     4    1
    13     4    21    1
    14    21    22    1
    15    22    23   ar
    16    23    24   ar
    17    24    25   ar
    18    25    26   ar
    19    26    27   ar
    20    27    28    1
    21    26    29    1
    22    29    30    1
    23    29    31   am
    24    31    32    2
    25    31    33    1
    26    33    34    1
    27     4     5    1
    28     5     6    1
    29    15    16   ar
    30    16    17   ar
    31    17    18   ar
    32    18    19   ar
    33    19    20   ar
    34    20    11   ar
    35    19    14   ar
    36     6     1    1
    37    27    22   ar
    38    34    25    1
@<TRIPOS>MOLECULE
*****
 34 38 0 0 0
SMALL
GASTEIGER

@<TRIPOS>ATOM
      1 N         -12.8247   -7.0356   17.5447 N.3     1  UNL1       -0.2672
      2 C         -12.5459   -6.6780   18.9745 C.3     1  UNL1        0.0898
      3 C         -11.8747   -5.3779   19.3053 C.3     1  UNL1        0.0899
      4 N         -11.4823   -4.4355   18.2062 N.3     1  UNL1       -0.2665
      5 C         -11.7612   -4.7931   16.7764 C.3     1  UNL1        0.0899
      6 C         -12.4324   -6.0931   16.4457 C.3     1  UNL1        0.0898
      7 C         -13.4959   -8.3356   17.2139 C.3     1  UNL1        0.1201
      8 C         -14.9381   -8.5466   17.5684 C.3     1  UNL1        0.2226
      9 O         -15.3840   -8.4322   18.9960 O.3     1  UNL1       -0.4739
     10 C         -18.9383   -2.6390   20.0233 C.3     1  UNL1        0.0521
     11 C         -18.4121   -4.0324   19.8459 C.ar    1  UNL1        0.0593
     12 C         -16.9627   -4.2520   19.5282 C.ar    1  UNL1        0.0148
     13 C         -16.4364   -5.6454   19.3508 C.ar    1  UNL1        0.0057
     14 C         -17.3596   -6.8192   19.4912 C.ar    1  UNL1        0.0516
     15 C         -16.8333   -8.2127   19.3138 C.ar    1  UNL1        0.1400
     16 C         -17.7565   -9.3865   19.4542 C.ar    1  UNL1        0.0370
     17 C         -19.2060   -9.1670   19.7720 C.ar    1  UNL1        0.0047
     18 C         -19.7322   -7.7736   19.9494 C.ar    1  UNL1        0.0193
     19 C         -18.8090   -6.5997   19.8090 C.ar    1  UNL1        0.0838
     20 N         -19.3352   -5.2063   19.9863 N.ar    1  UNL1       -0.2496
     21 C         -10.8111   -3.1355   18.5370 C.3     1  UNL1        0.1015
     22 C         -11.4775   -1.8374   18.1887 C.ar    1  UNL1        0.0228
     23 C         -10.7836   -0.8549   17.2926 C.ar    1  UNL1        0.0025
     24 C         -11.4499    0.4430   16.9444 C.ar    1  UNL1        0.0381
     25 C         -12.8102    0.7584   17.4923 C.ar    1  UNL1        0.1550
     26 C         -13.5041   -0.2241   18.3884 C.ar    1  UNL1        0.1156
     27 C         -12.8378   -1.5221   18.7366 C.ar    1  UNL1        0.1540
     28 F         -13.5317   -2.5047   19.6328 F       1  UNL1       -0.2030
     29 N         -14.8644    0.0912   18.9363 N.am    1  UNL1       -0.2494
     30 C         -15.5583   -0.8913   19.8324 C.3     1  UNL1        0.1203
     31 C         -15.5308    1.3892   18.5881 C.2     1  UNL1        0.2740
     32 O         -16.8910    1.7045   19.1360 O.2     1  UNL1       -0.2705
     33 C         -14.8369    2.3718   17.6919 C.3     1  UNL1        0.2900
     34 O         -13.4766    2.0564   17.1440 O.3     1  UNL1       -0.4643
@<TRIPOS>BOND
     1    10    11    1
     2    11    12   ar
     3    12    13   ar
     4    13    14   ar
     5    14    15   ar
     6    15     9    1
     7     9     8    1
     8     8     7    1
     9     7     1    1
    10     1     2    1
    11     2     3    1
    12     3     4    1
    13     4    21    1
    14    21    22    1
    15    22    23   ar
    16    23    24   ar
    17    24    25   ar
    18    25    26   ar
    19    26    27   ar
    20    27    28    1
    21    26    29    1
    22    29    30    1
    23    29    31   am
    24    31    32    2
    25    31    33    1
    26    33    34    1
    27     4     5    1
    28     5     6    1
    29    15    16   ar
    30    16    17   ar
    31    17    18   ar
    32    18    19   ar
    33    19    20   ar
    34    20    11   ar
    35    19    14   ar
    36     6     1    1
    37    27    22   ar
    38    34    25    1
@<TRIPOS>MOLECULE
*****
 34 38 0 0 0
SMALL
GASTEIGER

@<TRIPOS>ATOM
      1 N         -10.5682  -19.1084   20.9852 N.3     1  UNL1       -0.2672
      2 C         -10.3855  -19.9906   22.1847 C.3     1  UNL1        0.0898
      3 C          -9.0087  -20.4198   22.5972 C.3     1  UNL1        0.0899
      4 N          -7.8146  -19.9669   21.8103 N.3     1  UNL1       -0.2665
      5 C          -7.9973  -19.0848   20.6109 C.3     1  UNL1        0.0899
      6 C          -9.3741  -18.6556   20.1984 C.3     1  UNL1        0.0898
      7 C         -11.9450  -18.6791   20.5727 C.3     1  UNL1        0.1201
      8 C         -12.3357  -17.2332   20.6543 C.3     1  UNL1        0.2226
      9 O         -12.3336  -16.5293   21.9789 O.3     1  UNL1       -0.4739
     10 C          -5.8514  -15.3041   23.9100 C.3     1  UNL1        0.0521
     11 C          -7.2706  -15.7477   23.7122 C.ar    1  UNL1        0.0593
     12 C          -8.0761  -15.1985   22.5723 C.ar    1  UNL1        0.0148
     13 C          -9.4953  -15.6421   22.3745 C.ar    1  UNL1        0.0057
     14 C         -10.1089  -16.6349   23.3166 C.ar    1  UNL1        0.0516
     15 C         -11.5281  -17.0786   23.1188 C.ar    1  UNL1        0.1400
     16 C         -12.1418  -18.0714   24.0609 C.ar    1  UNL1        0.0370
     17 C         -11.3362  -18.6207   25.2009 C.ar    1  UNL1        0.0047
     18 C          -9.9171  -18.1771   25.3987 C.ar    1  UNL1        0.0193
     19 C          -9.3034  -17.1842   24.4565 C.ar    1  UNL1        0.0838
     20 N          -7.8842  -16.7406   24.6543 N.ar    1  UNL1       -0.2496
     21 C          -6.4378  -20.3962   22.2228 C.3     1  UNL1        0.1015
     22 C          -5.2531  -20.0277   21.3796 C.ar    1  UNL1        0.0228
     23 C          -4.9340  -20.8209   20.1471 C.ar    1  UNL1        0.0025
     24 C          -3.7495  -20.4525   19.3040 C.ar    1  UNL1        0.0381
     25 C          -2.8840  -19.2908   19.6932 C.ar    1  UNL1        0.1550
     26 C          -3.2031  -18.4977   20.9257 C.ar    1  UNL1        0.1156
     27 C          -4.3877  -18.8661   21.7689 C.ar    1  UNL1        0.1540
     28 F          -4.7068  -18.0729   23.0014 F       1  UNL1       -0.2030
     29 N          -2.3376  -17.3360   21.3150 N.am    1  UNL1       -0.2494
     30 C          -2.6567  -16.5428   22.5474 C.3     1  UNL1        0.1203
     31 C          -1.1530  -16.9676   20.4718 C.2     1  UNL1        0.2740
     32 O          -0.2876  -15.8059   20.8611 O.2     1  UNL1       -0.2705
     33 C          -0.8339  -17.7608   19.2393 C.3     1  UNL1        0.2900
     34 O          -1.6993  -18.9224   18.8500 O.3     1  UNL1       -0.4643
@<TRIPOS>BOND
     1    10    11    1
     2    11    12   ar
     3    12    13   ar
     4    13    14   ar
     5    14    15   ar
     6    15     9    1
     7     9     8    1
     8     8     7    1
     9     7     1    1
    10     1     2    1
    11     2     3    1
    12     3     4    1
    13     4    21    1
    14    21    22    1
    15    22    23   ar
    16    23    24   ar
    17    24    25   ar
    18    25    26   ar
    19    26    27   ar
    20    27    28    1
    21    26    29    1
    22    29    30    1
    23    29    31   am
    24    31    32    2
    25    31    33    1
    26    33    34    1
    27     4     5    1
    28     5     6    1
    29    15    16   ar
    30    16    17   ar
    31    17    18   ar
    32    18    19   ar
    33    19    20   ar
    34    20    11   ar
    35    19    14   ar
    36     6     1    1
    37    27    22   ar
    38    34    25    1
@<TRIPOS>MOLECULE
*****
 34 38 0 0 0
SMALL
GASTEIGER

@<TRIPOS>ATOM
      1 N         -10.6539   -4.0807   17.0424 N.3     1  UNL1       -0.2672
      2 C         -10.6327   -4.4404   18.4985 C.3     1  UNL1        0.0898
      3 C         -11.4724   -5.5765   19.0027 C.3     1  UNL1        0.0899
      4 N         -12.3335   -6.3527   18.0508 N.3     1  UNL1       -0.2665
      5 C         -12.3547   -5.9930   16.5948 C.3     1  UNL1        0.0899
      6 C         -11.5150   -4.8569   16.0906 C.3     1  UNL1        0.0898
      7 C          -9.8142   -2.9446   16.5382 C.3     1  UNL1        0.1201
      8 C         -10.3909   -1.5620   16.4617 C.3     1  UNL1        0.2226
      9 O         -10.8700   -0.8792   17.7084 O.3     1  UNL1       -0.4739
     10 C         -17.2976   -1.9984   19.8726 C.3     1  UNL1        0.0521
     11 C         -15.9951   -1.4998   19.3204 C.ar    1  UNL1        0.0593
     12 C         -14.7775   -2.3747   19.3651 C.ar    1  UNL1        0.0148
     13 C         -13.4750   -1.8762   18.8129 C.ar    1  UNL1        0.0057
     14 C         -13.3901   -0.5028   18.2159 C.ar    1  UNL1        0.0516
     15 C         -12.0876   -0.0043   17.6637 C.ar    1  UNL1        0.1400
     16 C         -12.0026    1.3692   17.0667 C.ar    1  UNL1        0.0370
     17 C         -13.2202    2.2442   17.0220 C.ar    1  UNL1        0.0047
     18 C         -14.5227    1.7457   17.5742 C.ar    1  UNL1        0.0193
     19 C         -14.6076    0.3721   18.1712 C.ar    1  UNL1        0.0838
     20 N         -15.9101   -0.1264   18.7234 N.ar    1  UNL1       -0.2496
     21 C         -13.1732   -7.4888   18.5550 C.3     1  UNL1        0.1015
     22 C         -14.6324   -7.2778   18.8313 C.ar    1  UNL1        0.0228
     23 C         -15.1234   -5.9349   19.2848 C.ar    1  UNL1        0.0025
     24 C         -16.5825   -5.7240   19.5611 C.ar    1  UNL1        0.0381
     25 C         -17.5507   -6.8559   19.3839 C.ar    1  UNL1        0.1550
     26 C         -17.0597   -8.1988   18.9304 C.ar    1  UNL1        0.1156
     27 C         -15.6006   -8.4097   18.6542 C.ar    1  UNL1        0.1540
     28 F         -15.1096   -9.7526   18.2007 F       1  UNL1       -0.2030
     29 N         -18.0279   -9.3307   18.7533 N.am    1  UNL1       -0.2494
     30 C         -17.5370  -10.6735   18.2998 C.3     1  UNL1        0.1203
     31 C         -19.4871   -9.1197   19.0296 C.2     1  UNL1        0.2740
     32 O         -20.4552  -10.2517   18.8524 O.2     1  UNL1       -0.2705
     33 C         -19.9781   -7.7768   19.4830 C.3     1  UNL1        0.2900
     34 O         -19.0099   -6.6449   19.6602 O.3     1  UNL1       -0.4643
@<TRIPOS>BOND
     1    10    11    1
     2    11    12   ar
     3    12    13   ar
     4    13    14   ar
     5    14    15   ar
     6    15     9    1
     7     9     8    1
     8     8     7    1
     9     7     1    1
    10     1     2    1
    11     2     3    1
    12     3     4    1
    13     4    21    1
    14    21    22    1
    15    22    23   ar
    16    23    24   ar
    17    24    25   ar
    18    25    26   ar
    19    26    27   ar
    20    27    28    1
    21    26    29    1
    22    29    30    1
    23    29    31   am
    24    31    32    2
    25    31    33    1
    26    33    34    1
    27     4     5    1
    28     5     6    1
    29    15    16   ar
    30    16    17   ar
    31    17    18   ar
    32    18    19   ar
    33    19    20   ar
    34    20    11   ar
    35    19    14   ar
    36     6     1    1
    37    27    22   ar
    38    34    25    1
@<TRIPOS>MOLECULE
*****
 34 38 0 0 0
SMALL
GASTEIGER

@<TRIPOS>ATOM
      1 N           6.6950   -2.3765   19.7147 N.3     1  UNL1       -0.2672
      2 C           6.5952   -0.9011   19.9660 C.3     1  UNL1        0.0898
      3 C           5.4853   -0.1075   19.3429 C.3     1  UNL1        0.0899
      4 N           4.4751   -0.7895   18.4684 N.3     1  UNL1       -0.2665
      5 C           4.5749   -2.2649   18.2172 C.3     1  UNL1        0.0899
      6 C           5.6849   -3.0584   18.8403 C.3     1  UNL1        0.0898
      7 C           7.8050   -3.1701   20.3379 C.3     1  UNL1        0.1201
      8 C           7.4870   -4.2859   21.2887 C.3     1  UNL1        0.2226
      9 O           6.1586   -4.3228   21.9844 O.3     1  UNL1       -0.4739
     10 C           1.8506    0.6674   23.9310 C.3     1  UNL1        0.0521
     11 C           2.8842   -0.4084   23.7749 C.ar    1  UNL1        0.0593
     12 C           3.0578   -1.0954   22.4528 C.ar    1  UNL1        0.0148
     13 C           4.0914   -2.1712   22.2967 C.ar    1  UNL1        0.0057
     14 C           4.9514   -2.5600   23.4625 C.ar    1  UNL1        0.0516
     15 C           5.9849   -3.6358   23.3064 C.ar    1  UNL1        0.1400
     16 C           6.8449   -4.0245   24.4722 C.ar    1  UNL1        0.0370
     17 C           6.6713   -3.3375   25.7944 C.ar    1  UNL1        0.0047
     18 C           5.6377   -2.2617   25.9505 C.ar    1  UNL1        0.0193
     19 C           4.7777   -1.8729   24.7846 C.ar    1  UNL1        0.0838
     20 N           3.7441   -0.7972   24.9407 N.ar    1  UNL1       -0.2496
     21 C           3.3652    0.0041   17.8452 C.3     1  UNL1        0.1015
     22 C           2.2745    0.5712   18.7048 C.ar    1  UNL1        0.0228
     23 C           1.3936   -0.3456   19.5007 C.ar    1  UNL1        0.0025
     24 C           0.3029    0.2215   20.3602 C.ar    1  UNL1        0.0381
     25 C           0.0932    1.7054   20.4238 C.ar    1  UNL1        0.1550
     26 C           0.9741    2.6222   19.6280 C.ar    1  UNL1        0.1156
     27 C           2.0647    2.0551   18.7685 C.ar    1  UNL1        0.1540
     28 F           2.9457    2.9719   17.9725 F       1  UNL1       -0.2030
     29 N           0.7643    4.1061   19.6916 N.am    1  UNL1       -0.2494
     30 C           1.6452    5.0229   18.8957 C.3     1  UNL1        0.1203
     31 C          -0.3263    4.6732   20.5511 C.2     1  UNL1        0.2740
     32 O          -0.5361    6.1571   20.6147 O.2     1  UNL1       -0.2705
     33 C          -1.2073    3.7564   21.3471 C.3     1  UNL1        0.2900
     34 O          -0.9976    2.2725   21.2834 O.3     1  UNL1       -0.4643
@<TRIPOS>BOND
     1    10    11    1
     2    11    12   ar
     3    12    13   ar
     4    13    14   ar
     5    14    15   ar
     6    15     9    1
     7     9     8    1
     8     8     7    1
     9     7     1    1
    10     1     2    1
    11     2     3    1
    12     3     4    1
    13     4    21    1
    14    21    22    1
    15    22    23   ar
    16    23    24   ar
    17    24    25   ar
    18    25    26   ar
    19    26    27   ar
    20    27    28    1
    21    26    29    1
    22    29    30    1
    23    29    31   am
    24    31    32    2
    25    31    33    1
    26    33    34    1
    27     4     5    1
    28     5     6    1
    29    15    16   ar
    30    16    17   ar
    31    17    18   ar
    32    18    19   ar
    33    19    20   ar
    34    20    11   ar
    35    19    14   ar
    36     6     1    1
    37    27    22   ar
    38    34    25    1
@<TRIPOS>MOLECULE
*****
 34 38 0 0 0
SMALL
GASTEIGER

@<TRIPOS>ATOM
      1 N           3.2183    0.2758   17.8628 N.3     1  UNL1       -0.2672
      2 C           4.0281    1.4671   18.2812 C.3     1  UNL1        0.0898
      3 C           3.3423    2.6917   18.8105 C.3     1  UNL1        0.0899
      4 N           1.8467    2.7249   18.9213 N.3     1  UNL1       -0.2665
      5 C           1.0370    1.5336   18.5029 C.3     1  UNL1        0.0899
      6 C           1.7228    0.3090   17.9736 C.3     1  UNL1        0.0898
      7 C           3.9041   -0.9488   17.3335 C.3     1  UNL1        0.1201
      8 C           4.4371   -1.9797   18.2839 C.3     1  UNL1        0.2226
      9 O           3.5301   -2.5966   19.3071 O.3     1  UNL1       -0.4739
     10 C           1.7735    1.4354   24.5898 C.3     1  UNL1        0.0521
     11 C           2.3155    0.4184   23.6296 C.ar    1  UNL1        0.0593
     12 C           1.9043    0.4546   22.1875 C.ar    1  UNL1        0.0148
     13 C           2.4463   -0.5625   21.2274 C.ar    1  UNL1        0.0057
     14 C           3.3993   -1.6157   21.7093 C.ar    1  UNL1        0.0516
     15 C           3.9413   -2.6328   20.7491 C.ar    1  UNL1        0.1400
     16 C           4.8944   -3.6860   21.2311 C.ar    1  UNL1        0.0370
     17 C           5.3056   -3.7222   22.6732 C.ar    1  UNL1        0.0047
     18 C           4.7636   -2.7052   23.6334 C.ar    1  UNL1        0.0193
     19 C           3.8105   -1.6519   23.1514 C.ar    1  UNL1        0.0838
     20 N           3.2685   -0.6348   24.1115 N.ar    1  UNL1       -0.2496
     21 C           1.1609    3.9495   19.4506 C.3     1  UNL1        0.1015
     22 C          -0.1202    3.8182   20.2199 C.ar    1  UNL1        0.0228
     23 C          -0.0865    3.6507   21.7101 C.ar    1  UNL1        0.0025
     24 C          -1.3675    3.5195   22.4792 C.ar    1  UNL1        0.0381
     25 C          -2.6823    3.5558   21.7581 C.ar    1  UNL1        0.1550
     26 C          -2.7161    3.7233   20.2679 C.ar    1  UNL1        0.1156
     27 C          -1.4350    3.8545   19.4988 C.ar    1  UNL1        0.1540
     28 F          -1.4688    4.0220   18.0085 F       1  UNL1       -0.2030
     29 N          -4.0309    3.7596   19.5469 N.am    1  UNL1       -0.2494
     30 C          -4.0647    3.9271   18.0567 C.3     1  UNL1        0.1203
     31 C          -5.3120    3.6283   20.3160 C.2     1  UNL1        0.2740
     32 O          -6.6268    3.6646   19.5950 O.2     1  UNL1       -0.2705
     33 C          -5.2783    3.4608   21.8063 C.3     1  UNL1        0.2900
     34 O          -3.9634    3.4245   22.5274 O.3     1  UNL1       -0.4643
@<TRIPOS>BOND
     1    10    11    1
     2    11    12   ar
     3    12    13   ar
     4    13    14   ar
     5    14    15   ar
     6    15     9    1
     7     9     8    1
     8     8     7    1
     9     7     1    1
    10     1     2    1
    11     2     3    1
    12     3     4    1
    13     4    21    1
    14    21    22    1
    15    22    23   ar
    16    23    24   ar
    17    24    25   ar
    18    25    26   ar
    19    26    27   ar
    20    27    28    1
    21    26    29    1
    22    29    30    1
    23    29    31   am
    24    31    32    2
    25    31    33    1
    26    33    34    1
    27     4     5    1
    28     5     6    1
    29    15    16   ar
    30    16    17   ar
    31    17    18   ar
    32    18    19   ar
    33    19    20   ar
    34    20    11   ar
    35    19    14   ar
    36     6     1    1
    37    27    22   ar
    38    34    25    1
@<TRIPOS>MOLECULE
*****
 34 38 0 0 0
SMALL
GASTEIGER

@<TRIPOS>ATOM
      1 N           5.5346   -2.9811   21.1912 N.3     1  UNL1       -0.2672
      2 C           6.2506   -1.6633   21.2185 C.3     1  UNL1        0.0898
      3 C           6.0680   -0.7345   22.3822 C.3     1  UNL1        0.0899
      4 N           5.1693   -1.1236   23.5185 N.3     1  UNL1       -0.2665
      5 C           4.4533   -2.4414   23.4911 C.3     1  UNL1        0.0899
      6 C           4.6360   -3.3702   22.3274 C.3     1  UNL1        0.0898
      7 C           5.7172   -3.9099   20.0275 C.3     1  UNL1        0.1201
      8 C           4.9007   -3.7227   18.7832 C.3     1  UNL1        0.2226
      9 O           3.6746   -2.8591   18.8135 O.3     1  UNL1       -0.4739
     10 C          -0.2271    2.3136   21.1092 C.3     1  UNL1        0.0521
     11 C           0.7788    1.3911   20.4870 C.ar    1  UNL1        0.0593
     12 C           0.6569   -0.0914   20.6800 C.ar    1  UNL1        0.0148
     13 C           1.6628   -1.0140   20.0578 C.ar    1  UNL1        0.0057
     14 C           2.7906   -0.4540   19.2427 C.ar    1  UNL1        0.0516
     15 C           3.7965   -1.3766   18.6205 C.ar    1  UNL1        0.1400
     16 C           4.9243   -0.8166   17.8054 C.ar    1  UNL1        0.0370
     17 C           5.0462    0.6660   17.6124 C.ar    1  UNL1        0.0047
     18 C           4.0403    1.5885   18.2345 C.ar    1  UNL1        0.0193
     19 C           2.9125    1.0285   19.0497 C.ar    1  UNL1        0.0838
     20 N           1.9066    1.9510   19.6719 N.ar    1  UNL1       -0.2496
     21 C           4.9867   -0.1949   24.6821 C.3     1  UNL1        0.1015
     22 C           3.6106    0.2574   25.0720 C.ar    1  UNL1        0.0228
     23 C           2.6732    0.7911   24.0297 C.ar    1  UNL1        0.0025
     24 C           1.2971    1.2433   24.4196 C.ar    1  UNL1        0.0381
     25 C           0.8585    1.1618   25.8517 C.ar    1  UNL1        0.1550
     26 C           1.7959    0.6280   26.8939 C.ar    1  UNL1        0.1156
     27 C           3.1720    0.1758   26.5041 C.ar    1  UNL1        0.1540
     28 F           4.1094   -0.3580   27.5464 F       1  UNL1       -0.2030
     29 N           1.3573    0.5465   28.3261 N.am    1  UNL1       -0.2494
     30 C           2.2947    0.0128   29.3683 C.3     1  UNL1        0.1203
     31 C          -0.0187    0.9987   28.7159 C.2     1  UNL1        0.2740
     32 O          -0.4573    0.9172   30.1481 O.2     1  UNL1       -0.2705
     33 C          -0.9562    1.5325   27.6737 C.3     1  UNL1        0.2900
     34 O          -0.5176    1.6140   26.2415 O.3     1  UNL1       -0.4643
@<TRIPOS>BOND
     1    10    11    1
     2    11    12   ar
     3    12    13   ar
     4    13    14   ar
     5    14    15   ar
     6    15     9    1
     7     9     8    1
     8     8     7    1
     9     7     1    1
    10     1     2    1
    11     2     3    1
    12     3     4    1
    13     4    21    1
    14    21    22    1
    15    22    23   ar
    16    23    24   ar
    17    24    25   ar
    18    25    26   ar
    19    26    27   ar
    20    27    28    1
    21    26    29    1
    22    29    30    1
    23    29    31   am
    24    31    32    2
    25    31    33    1
    26    33    34    1
    27     4     5    1
    28     5     6    1
    29    15    16   ar
    30    16    17   ar
    31    17    18   ar
    32    18    19   ar
    33    19    20   ar
    34    20    11   ar
    35    19    14   ar
    36     6     1    1
    37    27    22   ar
    38    34    25    1
@<TRIPOS>MOLECULE
*****
 34 38 0 0 0
SMALL
GASTEIGER

@<TRIPOS>ATOM
      1 N           0.5843    2.5166   20.3900 N.3     1  UNL1       -0.2672
      2 C           1.7010    3.0812   19.5627 C.3     1  UNL1        0.0898
      3 C           2.4698    2.1903   18.6326 C.3     1  UNL1        0.0899
      4 N           2.1220    0.7348   18.5298 N.3     1  UNL1       -0.2665
      5 C           1.0053    0.1702   19.3571 C.3     1  UNL1        0.0899
      6 C           0.2365    1.0612   20.2872 C.3     1  UNL1        0.0898
      7 C          -0.1845    3.4076   21.3202 C.3     1  UNL1        0.1201
      8 C          -1.5282    3.9358   20.9131 C.3     1  UNL1        0.2226
      9 O          -2.6788    2.9924   20.7234 O.3     1  UNL1       -0.4739
     10 C          -8.2911    4.9221   24.1915 C.3     1  UNL1        0.0521
     11 C          -7.2187    4.5691   23.2039 C.ar    1  UNL1        0.0593
     12 C          -5.8961    4.0514   23.6861 C.ar    1  UNL1        0.0148
     13 C          -4.8237    3.6984   22.6985 C.ar    1  UNL1        0.0057
     14 C          -5.0739    3.8631   21.2288 C.ar    1  UNL1        0.0516
     15 C          -4.0015    3.5101   20.2412 C.ar    1  UNL1        0.1400
     16 C          -4.2517    3.6748   18.7714 C.ar    1  UNL1        0.0370
     17 C          -5.5744    4.1926   18.2892 C.ar    1  UNL1        0.0047
     18 C          -6.6468    4.5456   19.2768 C.ar    1  UNL1        0.0193
     19 C          -6.3965    4.3808   20.7466 C.ar    1  UNL1        0.0838
     20 N          -7.4689    4.7338   21.7342 N.ar    1  UNL1       -0.2496
     21 C           2.8908   -0.1562   17.5996 C.3     1  UNL1        0.1015
     22 C           4.2482   -0.6587   17.9934 C.ar    1  UNL1        0.0228
     23 C           5.4747   -0.1003   17.3349 C.ar    1  UNL1        0.0025
     24 C           6.8321   -0.6027   17.7287 C.ar    1  UNL1        0.0381
     25 C           6.9629   -1.6636   18.7811 C.ar    1  UNL1        0.1550
     26 C           5.7363   -2.2220   19.4396 C.ar    1  UNL1        0.1156
     27 C           4.3790   -1.7195   19.0458 C.ar    1  UNL1        0.1540
     28 F           3.1523   -2.2779   19.7043 F       1  UNL1       -0.2030
     29 N           5.8671   -3.2829   20.4920 N.am    1  UNL1       -0.2494
     30 C           4.6405   -3.8413   21.1505 C.3     1  UNL1        0.1203
     31 C           7.2244   -3.7854   20.8858 C.2     1  UNL1        0.2740
     32 O           7.3552   -4.8462   21.9381 O.2     1  UNL1       -0.2705
     33 C           8.4511   -3.2270   20.2272 C.3     1  UNL1        0.2900
     34 O           8.3203   -2.1661   19.1749 O.3     1  UNL1       -0.4643
@<TRIPOS>BOND
     1    10    11    1
     2    11    12   ar
     3    12    13   ar
     4    13    14   ar
     5    14    15   ar
     6    15     9    1
     7     9     8    1
     8     8     7    1
     9     7     1    1
    10     1     2    1
    11     2     3    1
    12     3     4    1
    13     4    21    1
    14    21    22    1
    15    22    23   ar
    16    23    24   ar
    17    24    25   ar
    18    25    26   ar
    19    26    27   ar
    20    27    28    1
    21    26    29    1
    22    29    30    1
    23    29    31   am
    24    31    32    2
    25    31    33    1
    26    33    34    1
    27     4     5    1
    28     5     6    1
    29    15    16   ar
    30    16    17   ar
    31    17    18   ar
    32    18    19   ar
    33    19    20   ar
    34    20    11   ar
    35    19    14   ar
    36     6     1    1
    37    27    22   ar
    38    34    25    1
