@<TRIPOS>MOLECULE
*****
 42 46 0 0 0
SMALL
GASTEIGER

@<TRIPOS>ATOM
      1 C          -1.9950    4.1947   18.1801 C.ar    1  UNL1        0.2400
      2 N          -0.6693    3.8331   17.5788 N.ar    1  UNL1       -0.2090
      3 C           0.2406    2.8756   18.2898 C.ar    1  UNL1        0.1021
      4 C          -0.1752    2.2798   19.6020 C.ar    1  UNL1        0.0208
      5 C          -1.5010    2.6415   20.2034 C.ar    1  UNL1        0.0221
      6 C          -2.4109    3.5989   19.4925 C.ar    1  UNL1        0.1178
      7 C           0.7347    1.3224   20.3130 C.ar    1  UNL1        0.0047
      8 C           1.3915    0.2079   19.5538 C.ar    1  UNL1        0.0385
      9 C           2.3013   -0.7495   20.2648 C.ar    1  UNL1        0.1560
     10 C           2.5543   -0.5924   21.7350 C.ar    1  UNL1        0.1191
     11 N           3.4642   -1.5499   22.4459 N.ar    1  UNL1       -0.2109
     12 C           3.7172   -1.3928   23.9161 C.ar    1  UNL1        0.2134
     13 N           4.6270   -2.3502   24.6271 N.pl3   1  UNL1       -0.3275
     14 N           3.0603   -0.2782   24.6752 N.ar    1  UNL1       -0.2184
     15 C           2.1505    0.6792   23.9643 C.ar    1  UNL1        0.0637
     16 C           1.4936    1.7937   24.7234 C.3     1  UNL1        0.0522
     17 C           1.8975    0.5221   22.4941 C.ar    1  UNL1        0.0344
     18 C           0.9876    1.4795   21.7831 C.ar    1  UNL1        0.0029
     19 H           5.0582   -3.0817   24.1288 H       1  UNL1        0.1452
     20 H           4.7931   -2.2471   25.5920 H       1  UNL1        0.1452
     21 O           2.9582   -1.8641   19.5057 O.3     1  UNL1       -0.4775
     22 C           4.2239   -1.6078   18.7426 C.3     1  UNL1        0.1710
     23 C           5.3913   -2.5378   18.8921 C.3     1  UNL1        0.0756
     24 C           6.6570   -2.2815   18.1290 C.3     1  UNL1        0.1459
     25 O           6.7553   -1.0950   17.2164 O.3     1  UNL1       -0.3535
     26 C           5.5880   -0.1650   17.0669 C.3     1  UNL1        0.1459
     27 C           4.3223   -0.4214   17.8300 C.3     1  UNL1        0.0756
     28 C          -3.9106    4.6383   16.4821 C.3     1  UNL1        0.2543
     29 O          -2.9049    5.1522   17.4692 O.3     1  UNL1       -0.4553
     30 N          -3.7366    3.9605   20.0938 N.pl3   1  UNL1       -0.2104
     31 H          -4.4958    4.1894   19.5103 H       1  UNL1        0.1739
     32 S          -3.9057    3.9734   21.5842 S.O2    1  UNL1        0.0759
     33 O          -3.2453    5.3187   21.6474 O.2     1  UNL1       -0.1499
     34 O          -4.5660    2.6281   21.5209 O.2     1  UNL1       -0.1499
     35 C          -4.0747    3.9864   23.0746 C.ar    1  UNL1        0.1526
     36 C          -5.4145    4.2941   23.6748 C.ar    1  UNL1        0.0248
     37 C          -5.5836    4.3071   25.1651 C.ar    1  UNL1        0.0312
     38 C          -4.4129    4.0123   26.0553 C.ar    1  UNL1        0.1425
     39 F          -4.5819    4.0252   27.5457 F       1  UNL1       -0.2041
     40 C          -3.0731    3.7045   25.4551 C.ar    1  UNL1        0.0606
     41 C          -2.9040    3.6916   23.9648 C.ar    1  UNL1        0.1611
     42 F          -1.5642    3.3838   23.3646 F       1  UNL1       -0.2027
@<TRIPOS>BOND
     1    28    29    1
     2    29     1    1
     3     1     2   ar
     4     2     3   ar
     5     3     4   ar
     6     4     7    1
     7     7     8   ar
     8     8     9   ar
     9     9    21    1
    10    21    22    1
    11    22    23    1
    12    23    24    1
    13    24    25    1
    14    25    26    1
    15    26    27    1
    16     9    10   ar
    17    10    11   ar
    18    11    12   ar
    19    12    13    1
    20    12    14   ar
    21    14    15   ar
    22    15    16    1
    23    15    17   ar
    24    17    18   ar
    25     4     5   ar
    26     5     6   ar
    27     6    30    1
    28    30    32    1
    29    32    33    2
    30    32    34    2
    31    32    35    1
    32    35    36   ar
    33    36    37   ar
    34    37    38   ar
    35    38    39    1
    36    38    40   ar
    37    40    41   ar
    38    41    42    1
    39     6     1   ar
    40    41    35   ar
    41    18     7   ar
    42    27    22    1
    43    17    10   ar
    44    13    19    1
    45    13    20    1
    46    30    31    1
@<TRIPOS>MOLECULE
*****
 42 46 0 0 0
SMALL
GASTEIGER

@<TRIPOS>ATOM
      1 C           6.8515   -3.1956   21.0255 C.ar    1  UNL1        0.2400
      2 N           8.1056   -3.0104   21.8274 N.ar    1  UNL1       -0.2090
      3 C           8.0515   -3.0571   23.3257 C.ar    1  UNL1        0.1021
      4 C           6.7434   -3.2890   24.0221 C.ar    1  UNL1        0.0208
      5 C           5.4894   -3.4743   23.2203 C.ar    1  UNL1        0.0221
      6 C           5.5434   -3.4276   21.7220 C.ar    1  UNL1        0.1178
      7 C           6.6893   -3.3357   25.5205 C.ar    1  UNL1        0.0047
      8 C           6.3083   -2.1096   26.2958 C.ar    1  UNL1        0.0385
      9 C           6.2542   -2.1563   27.7941 C.ar    1  UNL1        0.1560
     10 C           6.5812   -3.4292   28.5170 C.ar    1  UNL1        0.1191
     11 N           6.5271   -3.4760   30.0154 N.ar    1  UNL1       -0.2109
     12 C           6.8542   -4.7489   30.7383 C.ar    1  UNL1        0.2134
     13 N           6.8001   -4.7957   32.2366 N.pl3   1  UNL1       -0.3275
     14 N           7.2353   -5.9751   29.9629 N.ar    1  UNL1       -0.2184
     15 C           7.2894   -5.9284   28.4646 C.ar    1  UNL1        0.0637
     16 C           7.6704   -7.1546   27.6893 C.3     1  UNL1        0.0522
     17 C           6.9623   -4.6554   27.7417 C.ar    1  UNL1        0.0344
     18 C           7.0164   -4.6087   26.2434 C.ar    1  UNL1        0.0029
     19 H           6.5500   -3.9909   32.7455 H       1  UNL1        0.1452
     20 H           7.0148   -5.6311   32.7111 H       1  UNL1        0.1452
     21 O           5.8731   -0.9301   28.5695 O.3     1  UNL1       -0.4775
     22 C           4.4780   -0.7820   29.1004 C.3     1  UNL1        0.1710
     23 C           3.3190   -0.7013   28.1516 C.3     1  UNL1        0.0756
     24 C           1.9240   -0.5532   28.6826 C.3     1  UNL1        0.1459
     25 O           1.6880   -0.4858   30.1624 O.3     1  UNL1       -0.3535
     26 C           2.8470   -0.5664   31.1112 C.3     1  UNL1        0.1459
     27 C           4.2420   -0.7145   30.5802 C.3     1  UNL1        0.0756
     28 C           7.8828   -2.2420   18.8399 C.3     1  UNL1        0.2543
     29 O           6.9056   -3.1490   19.5272 O.3     1  UNL1       -0.4553
     30 N           4.2893   -3.6129   20.9201 N.pl3   1  UNL1       -0.2104
     31 H           3.9286   -4.5169   20.7724 H       1  UNL1        0.1739
     32 S           3.5849   -2.4208   20.3434 S.O2    1  UNL1        0.0759
     33 O           3.6871   -1.7205   21.6659 O.2     1  UNL1       -0.1499
     34 O           3.4827   -3.1211   19.0208 O.2     1  UNL1       -0.1499
     35 C           2.8805   -1.2287   19.7666 C.ar    1  UNL1        0.1526
     36 C           1.4707   -0.9201   20.1756 C.ar    1  UNL1        0.0248
     37 C           0.7663    0.2720   19.5989 C.ar    1  UNL1        0.0312
     38 C           1.4716    1.1555   18.6132 C.ar    1  UNL1        0.1425
     39 F           0.7672    2.3477   18.0364 F       1  UNL1       -0.2041
     40 C           2.8814    0.8470   18.2041 C.ar    1  UNL1        0.0606
     41 C           3.5858   -0.3451   18.7808 C.ar    1  UNL1        0.1611
     42 F           4.9956   -0.6537   18.3717 F       1  UNL1       -0.2027
@<TRIPOS>BOND
     1    28    29    1
     2    29     1    1
     3     1     2   ar
     4     2     3   ar
     5     3     4   ar
     6     4     7    1
     7     7     8   ar
     8     8     9   ar
     9     9    21    1
    10    21    22    1
    11    22    23    1
    12    23    24    1
    13    24    25    1
    14    25    26    1
    15    26    27    1
    16     9    10   ar
    17    10    11   ar
    18    11    12   ar
    19    12    13    1
    20    12    14   ar
    21    14    15   ar
    22    15    16    1
    23    15    17   ar
    24    17    18   ar
    25     4     5   ar
    26     5     6   ar
    27     6    30    1
    28    30    32    1
    29    32    33    2
    30    32    34    2
    31    32    35    1
    32    35    36   ar
    33    36    37   ar
    34    37    38   ar
    35    38    39    1
    36    38    40   ar
    37    40    41   ar
    38    41    42    1
    39     6     1   ar
    40    41    35   ar
    41    18     7   ar
    42    27    22    1
    43    17    10   ar
    44    13    19    1
    45    13    20    1
    46    30    31    1
@<TRIPOS>MOLECULE
*****
 42 46 0 0 0
SMALL
GASTEIGER

@<TRIPOS>ATOM
      1 C          -1.2378    3.3404   21.4098 C.ar    1  UNL1        0.2400
      2 N          -1.8162    3.4954   22.7850 N.ar    1  UNL1       -0.2090
      3 C          -1.1102    2.9002   23.9671 C.ar    1  UNL1        0.1021
      4 C           0.1743    2.1500   23.7739 C.ar    1  UNL1        0.0208
      5 C           0.7527    1.9950   22.3987 C.ar    1  UNL1        0.0221
      6 C           0.0467    2.5901   21.2166 C.ar    1  UNL1        0.1178
      7 C           0.8803    1.5548   24.9560 C.ar    1  UNL1        0.0047
      8 C           2.3410    1.2250   24.8692 C.ar    1  UNL1        0.0385
      9 C           3.0470    0.6298   26.0513 C.ar    1  UNL1        0.1560
     10 C           2.2923    0.3645   27.3202 C.ar    1  UNL1        0.1191
     11 N           2.9984   -0.2307   28.5023 N.ar    1  UNL1       -0.2109
     12 C           2.2437   -0.4960   29.7712 C.ar    1  UNL1        0.2134
     13 N           2.9497   -1.0911   30.9532 N.pl3   1  UNL1       -0.3275
     14 N           0.7829   -0.1660   29.8579 N.ar    1  UNL1       -0.2184
     15 C           0.0770    0.4291   28.6759 C.ar    1  UNL1        0.0637
     16 C          -1.3837    0.7590   28.7627 C.3     1  UNL1        0.0522
     17 C           0.8316    0.6944   27.4070 C.ar    1  UNL1        0.0344
     18 C           0.1257    1.2896   26.2249 C.ar    1  UNL1        0.0029
     19 H           3.9084   -1.3076   30.8963 H       1  UNL1        0.1452
     20 H           2.4543   -1.2652   31.7860 H       1  UNL1        0.1452
     21 O           4.5077    0.2999   25.9645 O.3     1  UNL1       -0.4775
     22 C           4.9498   -0.9863   25.3317 C.3     1  UNL1        0.1710
     23 C           6.0971   -1.7549   25.9176 C.3     1  UNL1        0.0756
     24 C           6.5391   -3.0410   25.2848 C.3     1  UNL1        0.1459
     25 O           5.8340   -3.5586   24.0662 O.3     1  UNL1       -0.3535
     26 C           4.6868   -2.7900   23.4804 C.3     1  UNL1        0.1459
     27 C           4.2447   -1.5038   24.1132 C.3     1  UNL1        0.0756
     28 C          -3.3772    3.5869   19.9567 C.3     1  UNL1        0.2543
     29 O          -1.9438    3.9355   20.2277 O.3     1  UNL1       -0.4553
     30 N           0.6252    2.4351   19.8413 N.pl3   1  UNL1       -0.2104
     31 H           0.4228    3.1002   19.1443 H       1  UNL1        0.1739
     32 S           1.5120    1.2666   19.5281 S.O2    1  UNL1        0.0759
     33 O           2.7188    2.1483   19.6557 O.2     1  UNL1       -0.1499
     34 O           0.3053    0.3850   19.4004 O.2     1  UNL1       -0.1499
     35 C           2.3990    0.0982   19.2148 C.ar    1  UNL1        0.1526
     36 C           3.0242   -0.0260   17.8570 C.ar    1  UNL1        0.0248
     37 C           3.9111   -1.1944   17.5436 C.ar    1  UNL1        0.0312
     38 C           4.1728   -2.2386   18.5881 C.ar    1  UNL1        0.1425
     39 F           5.0597   -3.4071   18.2749 F       1  UNL1       -0.2041
     40 C           3.5476   -2.1145   19.9460 C.ar    1  UNL1        0.0606
     41 C           2.6607   -0.9461   20.2593 C.ar    1  UNL1        0.1611
     42 F           2.0355   -0.8219   21.6171 F       1  UNL1       -0.2027
@<TRIPOS>BOND
     1    28    29    1
     2    29     1    1
     3     1     2   ar
     4     2     3   ar
     5     3     4   ar
     6     4     7    1
     7     7     8   ar
     8     8     9   ar
     9     9    21    1
    10    21    22    1
    11    22    23    1
    12    23    24    1
    13    24    25    1
    14    25    26    1
    15    26    27    1
    16     9    10   ar
    17    10    11   ar
    18    11    12   ar
    19    12    13    1
    20    12    14   ar
    21    14    15   ar
    22    15    16    1
    23    15    17   ar
    24    17    18   ar
    25     4     5   ar
    26     5     6   ar
    27     6    30    1
    28    30    32    1
    29    32    33    2
    30    32    34    2
    31    32    35    1
    32    35    36   ar
    33    36    37   ar
    34    37    38   ar
    35    38    39    1
    36    38    40   ar
    37    40    41   ar
    38    41    42    1
    39     6     1   ar
    40    41    35   ar
    41    18     7   ar
    42    27    22    1
    43    17    10   ar
    44    13    19    1
    45    13    20    1
    46    30    31    1
@<TRIPOS>MOLECULE
*****
 42 46 0 0 0
SMALL
GASTEIGER

@<TRIPOS>ATOM
      1 C           7.6625   -5.2041   24.5245 C.ar    1  UNL1        0.2400
      2 N           6.9079   -5.0214   23.2410 N.ar    1  UNL1       -0.2090
      3 C           5.9055   -3.9130   23.1116 C.ar    1  UNL1        0.1021
      4 C           5.6577   -2.9874   24.2656 C.ar    1  UNL1        0.0208
      5 C           6.4123   -3.1700   25.5490 C.ar    1  UNL1        0.0221
      6 C           7.4147   -4.2783   25.6785 C.ar    1  UNL1        0.1178
      7 C           4.6552   -1.8790   24.1361 C.ar    1  UNL1        0.0047
      8 C           4.4104   -0.9508   25.2887 C.ar    1  UNL1        0.0385
      9 C           3.4080    0.1575   25.1592 C.ar    1  UNL1        0.1560
     10 C           2.6505    0.3376   23.8772 C.ar    1  UNL1        0.1191
     11 N           1.6480    1.4460   23.7477 N.ar    1  UNL1       -0.2109
     12 C           0.8905    1.6262   22.4656 C.ar    1  UNL1        0.2134
     13 N          -0.1119    2.7345   22.3362 N.pl3   1  UNL1       -0.3275
     14 N           1.1354    0.6979   21.3130 N.ar    1  UNL1       -0.2184
     15 C           2.1378   -0.4104   21.4425 C.ar    1  UNL1        0.0637
     16 C           2.3827   -1.3385   20.2899 C.3     1  UNL1        0.0522
     17 C           2.8953   -0.5905   22.7246 C.ar    1  UNL1        0.0344
     18 C           3.8977   -1.6988   22.8540 C.ar    1  UNL1        0.0029
     19 H          -0.2726    3.3437   23.0927 H       1  UNL1        0.1452
     20 H          -0.6091    2.8527   21.4947 H       1  UNL1        0.1452
     21 O           3.1631    1.0857   26.3118 O.3     1  UNL1       -0.4775
     22 C           2.2957    0.6492   27.4551 C.3     1  UNL1        0.1710
     23 C           0.8250    0.9441   27.4360 C.3     1  UNL1        0.0756
     24 C          -0.0423    0.5075   28.5792 C.3     1  UNL1        0.1459
     25 O           0.5609   -0.2238   29.7417 O.3     1  UNL1       -0.3535
     26 C           2.0315   -0.5187   29.7608 C.3     1  UNL1        0.1459
     27 C           2.8989   -0.0821   28.6175 C.3     1  UNL1        0.0756
     28 C           8.2468   -7.6402   25.2125 C.3     1  UNL1        0.2543
     29 O           8.6649   -6.3124   24.6540 O.3     1  UNL1       -0.4553
     30 N           8.1693   -4.4610   26.9619 N.pl3   1  UNL1       -0.2104
     31 H           9.0630   -4.8737   26.9530 H       1  UNL1        0.1739
     32 S           7.5621   -4.0148   28.2589 S.O2    1  UNL1        0.0759
     33 O           8.5548   -2.8931   28.3378 O.2     1  UNL1       -0.1499
     34 O           6.5694   -5.1365   28.1801 O.2     1  UNL1       -0.1499
     35 C           6.9550   -3.5686   29.5560 C.ar    1  UNL1        0.1526
     36 C           7.1538   -4.3863   30.7977 C.ar    1  UNL1        0.0248
     37 C           6.5467   -3.9402   32.0947 C.ar    1  UNL1        0.0312
     38 C           5.7408   -2.6763   32.1501 C.ar    1  UNL1        0.1425
     39 F           5.1336   -2.2301   33.4472 F       1  UNL1       -0.2041
     40 C           5.5420   -1.8586   30.9084 C.ar    1  UNL1        0.0606
     41 C           6.1491   -2.3047   29.6113 C.ar    1  UNL1        0.1611
     42 F           5.9503   -1.4870   28.3696 F       1  UNL1       -0.2027
@<TRIPOS>BOND
     1    28    29    1
     2    29     1    1
     3     1     2   ar
     4     2     3   ar
     5     3     4   ar
     6     4     7    1
     7     7     8   ar
     8     8     9   ar
     9     9    21    1
    10    21    22    1
    11    22    23    1
    12    23    24    1
    13    24    25    1
    14    25    26    1
    15    26    27    1
    16     9    10   ar
    17    10    11   ar
    18    11    12   ar
    19    12    13    1
    20    12    14   ar
    21    14    15   ar
    22    15    16    1
    23    15    17   ar
    24    17    18   ar
    25     4     5   ar
    26     5     6   ar
    27     6    30    1
    28    30    32    1
    29    32    33    2
    30    32    34    2
    31    32    35    1
    32    35    36   ar
    33    36    37   ar
    34    37    38   ar
    35    38    39    1
    36    38    40   ar
    37    40    41   ar
    38    41    42    1
    39     6     1   ar
    40    41    35   ar
    41    18     7   ar
    42    27    22    1
    43    17    10   ar
    44    13    19    1
    45    13    20    1
    46    30    31    1
@<TRIPOS>MOLECULE
*****
 42 46 0 0 0
SMALL
GASTEIGER

@<TRIPOS>ATOM
      1 C          -0.9074    3.4732   19.0632 C.ar    1  UNL1        0.2400
      2 N          -2.0304    3.7666   20.0134 N.ar    1  UNL1       -0.2090
      3 C          -1.8774    3.4584   21.4734 C.ar    1  UNL1        0.1021
      4 C          -0.6014    2.8570   21.9833 C.ar    1  UNL1        0.0208
      5 C           0.5216    2.5636   21.0332 C.ar    1  UNL1        0.0221
      6 C           0.3687    2.8717   19.5732 C.ar    1  UNL1        0.1178
      7 C          -0.4484    2.5488   23.4434 C.ar    1  UNL1        0.0047
      8 C          -1.4866    3.0140   24.4209 C.ar    1  UNL1        0.0385
      9 C          -1.3336    2.7058   25.8809 C.ar    1  UNL1        0.1560
     10 C          -0.1423    1.9325   26.3633 C.ar    1  UNL1        0.1191
     11 N           0.0107    1.6243   27.8234 N.ar    1  UNL1       -0.2109
     12 C           1.2020    0.8510   28.3058 C.ar    1  UNL1        0.2134
     13 N           1.3550    0.5429   29.7658 N.pl3   1  UNL1       -0.3275
     14 N           2.2403    0.3858   27.3282 N.ar    1  UNL1       -0.2184
     15 C           2.0872    0.6940   25.8683 C.ar    1  UNL1        0.0637
     16 C           3.1255    0.2288   24.8907 C.3     1  UNL1        0.0522
     17 C           0.8959    1.4673   25.3858 C.ar    1  UNL1        0.0344
     18 C           0.7429    1.7755   23.9258 C.ar    1  UNL1        0.0029
     19 H           0.6736    0.8482   30.4074 H       1  UNL1        0.1452
     20 H           2.1369    0.0353   30.0825 H       1  UNL1        0.1452
     21 O          -2.3719    3.1710   26.8585 O.3     1  UNL1       -0.4775
     22 C          -3.3097    4.2806   26.4852 C.3     1  UNL1        0.1710
     23 C          -2.8790    5.7095   26.6364 C.3     1  UNL1        0.0756
     24 C          -3.8169    6.8190   26.2631 C.3     1  UNL1        0.1459
     25 O          -5.1855    6.4997   25.7386 O.3     1  UNL1       -0.3535
     26 C          -5.6161    5.0708   25.5874 C.3     1  UNL1        0.1459
     27 C          -4.6783    3.9613   25.9607 C.3     1  UNL1        0.0756
     28 C          -0.8785    5.1862   17.1102 C.3     1  UNL1        0.2543
     29 O          -1.0603    3.7813   17.6033 O.3     1  UNL1       -0.4553
     30 N           1.4917    2.5783   18.6231 N.pl3   1  UNL1       -0.2104
     31 H           1.7854    3.2646   17.9812 H       1  UNL1        0.1739
     32 S           2.1673    1.2394   18.6510 S.O2    1  UNL1        0.0759
     33 O           3.4235    1.8838   19.1574 O.2     1  UNL1       -0.1499
     34 O           0.9111    0.5950   18.1445 O.2     1  UNL1       -0.1499
     35 C           2.8430   -0.0996   18.6789 C.ar    1  UNL1        0.1526
     36 C           3.8216   -0.4684   17.6036 C.ar    1  UNL1        0.0248
     37 C           4.4973   -1.8073   17.6315 C.ar    1  UNL1        0.0312
     38 C           4.1943   -2.7773   18.7347 C.ar    1  UNL1        0.1425
     39 F           4.8700   -4.1163   18.7626 F       1  UNL1       -0.2041
     40 C           3.2157   -2.4085   19.8100 C.ar    1  UNL1        0.0606
     41 C           2.5400   -1.0697   19.7821 C.ar    1  UNL1        0.1611
     42 F           1.5614   -0.7008   20.8575 F       1  UNL1       -0.2027
@<TRIPOS>BOND
     1    28    29    1
     2    29     1    1
     3     1     2   ar
     4     2     3   ar
     5     3     4   ar
     6     4     7    1
     7     7     8   ar
     8     8     9   ar
     9     9    21    1
    10    21    22    1
    11    22    23    1
    12    23    24    1
    13    24    25    1
    14    25    26    1
    15    26    27    1
    16     9    10   ar
    17    10    11   ar
    18    11    12   ar
    19    12    13    1
    20    12    14   ar
    21    14    15   ar
    22    15    16    1
    23    15    17   ar
    24    17    18   ar
    25     4     5   ar
    26     5     6   ar
    27     6    30    1
    28    30    32    1
    29    32    33    2
    30    32    34    2
    31    32    35    1
    32    35    36   ar
    33    36    37   ar
    34    37    38   ar
    35    38    39    1
    36    38    40   ar
    37    40    41   ar
    38    41    42    1
    39     6     1   ar
    40    41    35   ar
    41    18     7   ar
    42    27    22    1
    43    17    10   ar
    44    13    19    1
    45    13    20    1
    46    30    31    1
@<TRIPOS>MOLECULE
*****
 42 46 0 0 0
SMALL
GASTEIGER

@<TRIPOS>ATOM
      1 C          -1.3453    3.9689   18.7390 C.ar    1  UNL1        0.2400
      2 N           0.1111    3.7894   18.4280 N.ar    1  UNL1       -0.2090
      3 C           0.9618    2.9140   19.2998 C.ar    1  UNL1        0.1021
      4 C           0.3562    2.2182   20.4826 C.ar    1  UNL1        0.0208
      5 C          -1.1002    2.3978   20.7936 C.ar    1  UNL1        0.0221
      6 C          -1.9509    3.2731   19.9219 C.ar    1  UNL1        0.1178
      7 C           1.2070    1.3429   21.3545 C.ar    1  UNL1        0.0047
      8 C           1.3438    1.6472   22.8169 C.ar    1  UNL1        0.0385
      9 C           2.1945    0.7719   23.6886 C.ar    1  UNL1        0.1560
     10 C           2.9084   -0.4078   23.0980 C.ar    1  UNL1        0.1191
     11 N           3.7591   -1.2831   23.9699 N.ar    1  UNL1       -0.2109
     12 C           4.4730   -2.4628   23.3793 C.ar    1  UNL1        0.2134
     13 N           5.3237   -3.3381   24.2510 N.pl3   1  UNL1       -0.3275
     14 N           4.3361   -2.7671   21.9168 N.ar    1  UNL1       -0.2184
     15 C           3.4854   -1.8917   21.0450 C.ar    1  UNL1        0.0637
     16 C           3.3485   -2.1961   19.5826 C.3     1  UNL1        0.0522
     17 C           2.7715   -0.7121   21.6356 C.ar    1  UNL1        0.0344
     18 C           1.9208    0.1632   20.7639 C.ar    1  UNL1        0.0029
     19 H           5.4136   -3.1384   25.2109 H       1  UNL1        0.1452
     20 H           5.7922   -4.1123   23.8634 H       1  UNL1        0.1452
     21 O           2.3314    1.0762   25.1511 O.3     1  UNL1       -0.4775
     22 C           1.2952    1.9109   25.8437 C.3     1  UNL1        0.1710
     23 C           1.5407    3.3728   26.0735 C.3     1  UNL1        0.0756
     24 C           0.5046    4.2074   26.7661 C.3     1  UNL1        0.1459
     25 O          -0.7771    3.5802   27.2288 O.3     1  UNL1       -0.3535
     26 C          -1.0225    2.1185   26.9989 C.3     1  UNL1        0.1459
     27 C           0.0136    1.2838   26.3064 C.3     1  UNL1        0.0756
     28 C          -2.3376    6.3041   18.1808 C.3     1  UNL1        0.2543
     29 O          -2.1960    4.8442   17.8672 O.3     1  UNL1       -0.4553
     30 N          -3.4073    3.4526   20.2329 N.pl3   1  UNL1       -0.2104
     31 H          -4.0771    3.3739   19.5157 H       1  UNL1        0.1739
     32 S          -3.8431    3.7520   21.6366 S.O2    1  UNL1        0.0759
     33 O          -3.0615    5.0319   21.6062 O.2     1  UNL1       -0.1499
     34 O          -4.6247    2.4721   21.6669 O.2     1  UNL1       -0.1499
     35 C          -4.2789    4.0515   23.0403 C.ar    1  UNL1        0.1526
     36 C          -5.6411    4.6248   23.2965 C.ar    1  UNL1        0.0248
     37 C          -6.0769    4.9242   24.7002 C.ar    1  UNL1        0.0312
     38 C          -5.1505    4.6504   25.8477 C.ar    1  UNL1        0.1425
     39 F          -5.5863    4.9499   27.2514 F       1  UNL1       -0.2041
     40 C          -3.7883    4.0771   25.5915 C.ar    1  UNL1        0.0606
     41 C          -3.3524    3.7776   24.1878 C.ar    1  UNL1        0.1611
     42 F          -1.9902    3.2043   23.9316 F       1  UNL1       -0.2027
@<TRIPOS>BOND
     1    28    29    1
     2    29     1    1
     3     1     2   ar
     4     2     3   ar
     5     3     4   ar
     6     4     7    1
     7     7     8   ar
     8     8     9   ar
     9     9    21    1
    10    21    22    1
    11    22    23    1
    12    23    24    1
    13    24    25    1
    14    25    26    1
    15    26    27    1
    16     9    10   ar
    17    10    11   ar
    18    11    12   ar
    19    12    13    1
    20    12    14   ar
    21    14    15   ar
    22    15    16    1
    23    15    17   ar
    24    17    18   ar
    25     4     5   ar
    26     5     6   ar
    27     6    30    1
    28    30    32    1
    29    32    33    2
    30    32    34    2
    31    32    35    1
    32    35    36   ar
    33    36    37   ar
    34    37    38   ar
    35    38    39    1
    36    38    40   ar
    37    40    41   ar
    38    41    42    1
    39     6     1   ar
    40    41    35   ar
    41    18     7   ar
    42    27    22    1
    43    17    10   ar
    44    13    19    1
    45    13    20    1
    46    30    31    1
@<TRIPOS>MOLECULE
*****
 42 46 0 0 0
SMALL
GASTEIGER

@<TRIPOS>ATOM
      1 C           4.3765    1.1938   36.8335 C.ar    1  UNL1        0.2400
      2 N           4.7463   -0.2235   36.5102 N.ar    1  UNL1       -0.2090
      3 C           4.8210   -0.6717   35.0806 C.ar    1  UNL1        0.1021
      4 C           4.5259    0.2973   33.9744 C.ar    1  UNL1        0.0208
      5 C           4.1561    1.7146   34.2977 C.ar    1  UNL1        0.0221
      6 C           4.0814    2.1628   35.7272 C.ar    1  UNL1        0.1178
      7 C           4.6006   -0.1509   32.5448 C.ar    1  UNL1        0.0047
      8 C           5.8303   -0.8458   32.0400 C.ar    1  UNL1        0.0385
      9 C           5.9049   -1.2939   30.6105 C.ar    1  UNL1        0.1560
     10 C           4.7499   -1.0472   29.6858 C.ar    1  UNL1        0.1191
     11 N           4.8245   -1.4954   28.2562 N.ar    1  UNL1       -0.2109
     12 C           3.6695   -1.2487   27.3316 C.ar    1  UNL1        0.2134
     13 N           3.7441   -1.6968   25.9021 N.pl3   1  UNL1       -0.3275
     14 N           2.4397   -0.5537   27.8365 N.ar    1  UNL1       -0.2184
     15 C           2.3651   -0.1056   29.2660 C.ar    1  UNL1        0.0637
     16 C           1.1354    0.5893   29.7709 C.3     1  UNL1        0.0522
     17 C           3.5202   -0.3523   30.1907 C.ar    1  UNL1        0.0344
     18 C           3.4455    0.0959   31.6202 C.ar    1  UNL1        0.0029
     19 H           4.5512   -2.1529   25.5707 H       1  UNL1        0.1452
     20 H           2.9860   -1.5349   25.2952 H       1  UNL1        0.1452
     21 O           7.1347   -1.9888   30.1055 O.3     1  UNL1       -0.4775
     22 C           7.2073   -3.4870   30.1163 C.3     1  UNL1        0.1710
     23 C           7.4492   -4.2354   28.8390 C.3     1  UNL1        0.0756
     24 C           7.5218   -5.7336   28.8498 C.3     1  UNL1        0.1459
     25 O           7.3525   -6.4835   30.1379 O.3     1  UNL1       -0.3535
     26 C           7.1106   -5.7351   31.4151 C.3     1  UNL1        0.1459
     27 C           7.0380   -4.2369   31.4043 C.3     1  UNL1        0.0756
     28 C           3.0394    1.4398   39.0473 C.3     1  UNL1        0.2543
     29 O           4.3018    1.6420   38.2630 O.3     1  UNL1       -0.4553
     30 N           3.7116    3.5801   36.0504 N.pl3   1  UNL1       -0.2104
     31 H           4.2633    4.1022   36.6768 H       1  UNL1        0.1739
     32 S           2.5012    4.2020   35.4194 S.O2    1  UNL1        0.0759
     33 O           3.3871    5.0624   34.5681 O.2     1  UNL1       -0.1499
     34 O           1.6153    3.3416   36.2708 O.2     1  UNL1       -0.1499
     35 C           1.2908    4.8239   34.7884 C.ar    1  UNL1        0.1526
     36 C           0.6360    6.0106   35.4310 C.ar    1  UNL1        0.0248
     37 C          -0.5743    6.6326   34.8000 C.ar    1  UNL1        0.0312
     38 C          -1.1299    6.0678   33.5264 C.ar    1  UNL1        0.1425
     39 F          -2.3404    6.6897   32.8953 F       1  UNL1       -0.2041
     40 C          -0.4752    4.8811   32.8837 C.ar    1  UNL1        0.0606
     41 C           0.7352    4.2591   33.5147 C.ar    1  UNL1        0.1611
     42 F           1.3899    3.0724   32.8720 F       1  UNL1       -0.2027
@<TRIPOS>BOND
     1    28    29    1
     2    29     1    1
     3     1     2   ar
     4     2     3   ar
     5     3     4   ar
     6     4     7    1
     7     7     8   ar
     8     8     9   ar
     9     9    21    1
    10    21    22    1
    11    22    23    1
    12    23    24    1
    13    24    25    1
    14    25    26    1
    15    26    27    1
    16     9    10   ar
    17    10    11   ar
    18    11    12   ar
    19    12    13    1
    20    12    14   ar
    21    14    15   ar
    22    15    16    1
    23    15    17   ar
    24    17    18   ar
    25     4     5   ar
    26     5     6   ar
    27     6    30    1
    28    30    32    1
    29    32    33    2
    30    32    34    2
    31    32    35    1
    32    35    36   ar
    33    36    37   ar
    34    37    38   ar
    35    38    39    1
    36    38    40   ar
    37    40    41   ar
    38    41    42    1
    39     6     1   ar
    40    41    35   ar
    41    18     7   ar
    42    27    22    1
    43    17    10   ar
    44    13    19    1
    45    13    20    1
    46    30    31    1
@<TRIPOS>MOLECULE
*****
 42 46 0 0 0
SMALL
GASTEIGER

@<TRIPOS>ATOM
      1 C           4.4994    0.8701   36.2922 C.ar    1  UNL1        0.2400
      2 N           4.7806   -0.5253   35.8191 N.ar    1  UNL1       -0.2090
      3 C           4.5826   -0.8819   34.3755 C.ar    1  UNL1        0.1021
      4 C           4.1035    0.1567   33.4052 C.ar    1  UNL1        0.0208
      5 C           3.8224    1.5521   33.8783 C.ar    1  UNL1        0.0221
      6 C           4.0203    1.9088   35.3217 C.ar    1  UNL1        0.1178
      7 C           3.9055   -0.1999   31.9617 C.ar    1  UNL1        0.0047
      8 C           2.5337   -0.1470   31.3574 C.ar    1  UNL1        0.0385
      9 C           2.3358   -0.5037   29.9139 C.ar    1  UNL1        0.1560
     10 C           3.5097   -0.9133   29.0748 C.ar    1  UNL1        0.1191
     11 N           3.3118   -1.2700   27.6313 N.ar    1  UNL1       -0.2109
     12 C           4.4857   -1.6796   26.7922 C.ar    1  UNL1        0.2134
     13 N           4.2878   -2.0362   25.3487 N.pl3   1  UNL1       -0.3275
     14 N           5.8576   -1.7325   27.3966 N.ar    1  UNL1       -0.2184
     15 C           6.0555   -1.3758   28.8400 C.ar    1  UNL1        0.0637
     16 C           7.4273   -1.4287   29.4443 C.3     1  UNL1        0.0522
     17 C           4.8816   -0.9662   29.6791 C.ar    1  UNL1        0.0344
     18 C           5.0795   -0.6095   31.1226 C.ar    1  UNL1        0.0029
     19 H           3.3874   -2.0015   24.9521 H       1  UNL1        0.1452
     20 H           5.0583   -2.3051   24.7980 H       1  UNL1        0.1452
     21 O           0.9639   -0.4508   29.3096 O.3     1  UNL1       -0.4775
     22 C           0.4602    0.8254   28.7032 C.3     1  UNL1        0.1710
     23 C          -0.7874    0.8189   27.8705 C.3     1  UNL1        0.0756
     24 C          -1.2911    2.0951   27.2641 C.3     1  UNL1        0.1459
     25 O          -0.5471    3.3778   27.4905 O.3     1  UNL1       -0.3535
     26 C           0.7004    3.3843   28.3233 C.3     1  UNL1        0.1459
     27 C           1.2041    2.1081   28.9296 C.3     1  UNL1        0.0756
     28 C           3.5282    1.2269   38.6752 C.3     1  UNL1        0.2543
     29 O           4.6974    1.2268   37.7356 O.3     1  UNL1       -0.4553
     30 N           3.7392    3.3042   35.7949 N.pl3   1  UNL1       -0.2104
     31 H           4.3536    3.7429   36.4268 H       1  UNL1        0.1739
     32 S           2.5220    4.0313   35.3052 S.O2    1  UNL1        0.0759
     33 O           1.6614    3.1992   36.2090 O.2     1  UNL1       -0.1499
     34 O           3.3826    4.8633   34.4013 O.2     1  UNL1       -0.1499
     35 C           1.3047    4.7583   34.8155 C.ar    1  UNL1        0.1526
     36 C           0.7282    5.8838   35.6222 C.ar    1  UNL1        0.0248
     37 C          -0.4890    6.6109   35.1326 C.ar    1  UNL1        0.0312
     38 C          -1.1297    6.2123   33.8362 C.ar    1  UNL1        0.1425
     39 F          -2.3470    6.9394   33.3465 F       1  UNL1       -0.2041
     40 C          -0.5532    5.0868   33.0295 C.ar    1  UNL1        0.0606
     41 C           0.6640    4.3598   33.5191 C.ar    1  UNL1        0.1611
     42 F           1.2405    3.2342   32.7124 F       1  UNL1       -0.2027
@<TRIPOS>BOND
     1    28    29    1
     2    29     1    1
     3     1     2   ar
     4     2     3   ar
     5     3     4   ar
     6     4     7    1
     7     7     8   ar
     8     8     9   ar
     9     9    21    1
    10    21    22    1
    11    22    23    1
    12    23    24    1
    13    24    25    1
    14    25    26    1
    15    26    27    1
    16     9    10   ar
    17    10    11   ar
    18    11    12   ar
    19    12    13    1
    20    12    14   ar
    21    14    15   ar
    22    15    16    1
    23    15    17   ar
    24    17    18   ar
    25     4     5   ar
    26     5     6   ar
    27     6    30    1
    28    30    32    1
    29    32    33    2
    30    32    34    2
    31    32    35    1
    32    35    36   ar
    33    36    37   ar
    34    37    38   ar
    35    38    39    1
    36    38    40   ar
    37    40    41   ar
    38    41    42    1
    39     6     1   ar
    40    41    35   ar
    41    18     7   ar
    42    27    22    1
    43    17    10   ar
    44    13    19    1
    45    13    20    1
    46    30    31    1
@<TRIPOS>MOLECULE
*****
 42 46 0 0 0
SMALL
GASTEIGER

@<TRIPOS>ATOM
      1 C           7.4718   -4.1684   30.4394 C.ar    1  UNL1        0.2400
      2 N           6.9757   -4.4015   31.8356 N.ar    1  UNL1       -0.2090
      3 C           6.1256   -3.3670   32.5120 C.ar    1  UNL1        0.1021
      4 C           5.7718   -2.0995   31.7920 C.ar    1  UNL1        0.0208
      5 C           6.2680   -1.8665   30.3958 C.ar    1  UNL1        0.0221
      6 C           7.1180   -2.9009   29.7195 C.ar    1  UNL1        0.1178
      7 C           4.9217   -1.0651   32.4684 C.ar    1  UNL1        0.0047
      8 C           3.7767   -0.4364   31.7311 C.ar    1  UNL1        0.0385
      9 C           2.9267    0.5980   32.4074 C.ar    1  UNL1        0.1560
     10 C           3.2218    1.0038   33.8210 C.ar    1  UNL1        0.1191
     11 N           2.3717    2.0383   34.4973 N.ar    1  UNL1       -0.2109
     12 C           2.6668    2.4441   35.9109 C.ar    1  UNL1        0.2134
     13 N           1.8168    3.4785   36.5873 N.pl3   1  UNL1       -0.3275
     14 N           3.8120    1.8154   36.6482 N.ar    1  UNL1       -0.2184
     15 C           4.6620    0.7810   35.9719 C.ar    1  UNL1        0.0637
     16 C           5.8070    0.1524   36.7091 C.3     1  UNL1        0.0522
     17 C           4.3669    0.3752   34.5583 C.ar    1  UNL1        0.0344
     18 C           5.2168   -0.6592   33.8820 C.ar    1  UNL1        0.0029
     19 H           1.0653    3.8911   36.1034 H       1  UNL1        0.1452
     20 H           2.0105    3.7448   37.5150 H       1  UNL1        0.1452
     21 O           1.7815    1.2266   31.6702 O.3     1  UNL1       -0.4775
     22 C           1.8548    1.4051   30.1826 C.3     1  UNL1        0.1710
     23 C           0.9811    0.5805   29.2844 C.3     1  UNL1        0.0756
     24 C           1.0544    0.7590   27.7968 C.3     1  UNL1        0.1459
     25 O           2.0014    1.7621   27.2075 O.3     1  UNL1       -0.3535
     26 C           2.8749    2.5866   28.1058 C.3     1  UNL1        0.1459
     27 C           2.8017    2.4081   29.5933 C.3     1  UNL1        0.0756
     28 C           7.6765   -6.3369   29.0233 C.3     1  UNL1        0.2543
     29 O           8.3219   -5.2028   29.7631 O.3     1  UNL1       -0.4553
     30 N           7.6142   -2.6678   28.3232 N.pl3   1  UNL1       -0.2104
     31 H           8.5774   -2.7238   28.1274 H       1  UNL1        0.1739
     32 S           6.6429   -2.3495   27.2255 S.O2    1  UNL1        0.0759
     33 O           6.0167   -3.7029   27.3870 O.2     1  UNL1       -0.1499
     34 O           7.2690   -0.9961   27.0639 O.2     1  UNL1       -0.1499
     35 C           5.6715   -2.0312   26.1276 C.ar    1  UNL1        0.1526
     36 C           5.8754   -2.6040   24.7564 C.ar    1  UNL1        0.0248
     37 C           4.9041   -2.2858   23.6586 C.ar    1  UNL1        0.0312
     38 C           3.7289   -1.3947   23.9320 C.ar    1  UNL1        0.1425
     39 F           2.7575   -1.0764   22.8342 F       1  UNL1       -0.2041
     40 C           3.5250   -0.8218   25.3032 C.ar    1  UNL1        0.0606
     41 C           4.4963   -1.1401   26.4010 C.ar    1  UNL1        0.1611
     42 F           4.2924   -0.5672   27.7723 F       1  UNL1       -0.2027
@<TRIPOS>BOND
     1    28    29    1
     2    29     1    1
     3     1     2   ar
     4     2     3   ar
     5     3     4   ar
     6     4     7    1
     7     7     8   ar
     8     8     9   ar
     9     9    21    1
    10    21    22    1
    11    22    23    1
    12    23    24    1
    13    24    25    1
    14    25    26    1
    15    26    27    1
    16     9    10   ar
    17    10    11   ar
    18    11    12   ar
    19    12    13    1
    20    12    14   ar
    21    14    15   ar
    22    15    16    1
    23    15    17   ar
    24    17    18   ar
    25     4     5   ar
    26     5     6   ar
    27     6    30    1
    28    30    32    1
    29    32    33    2
    30    32    34    2
    31    32    35    1
    32    35    36   ar
    33    36    37   ar
    34    37    38   ar
    35    38    39    1
    36    38    40   ar
    37    40    41   ar
    38    41    42    1
    39     6     1   ar
    40    41    35   ar
    41    18     7   ar
    42    27    22    1
    43    17    10   ar
    44    13    19    1
    45    13    20    1
    46    30    31    1
