@<TRIPOS>MOLECULE
*****
 42 46 0 0 0
SMALL
GASTEIGER

@<TRIPOS>ATOM
      1 C           8.1674   -4.9005   25.7316 C.3     1  UNL1        0.0771
      2 C           7.7121   -6.2322   26.2505 C.3     1  UNL1        0.0370
      3 C           7.3026   -6.3775   27.6861 C.3     1  UNL1        0.0742
      4 N           7.3484   -5.1912   28.6029 N.3     1  UNL1       -0.2662
      5 C           7.8036   -3.8595   28.0841 C.3     1  UNL1        0.0755
      6 C           8.2132   -3.7141   26.6484 C.3     1  UNL1        0.0500
      7 N           7.9713   -4.2213   21.8265 N.am    1  UNL1       -0.2485
      8 C           7.5618   -4.3667   23.2621 C.2     1  UNL1        0.3058
      9 O           6.1372   -4.1238   23.6640 O.2     1  UNL1       -0.2524
     10 N           8.5769   -4.7551   24.2959 N.am    1  UNL1       -0.2901
     11 H           8.9063   -4.3807   21.5627 H       1  UNL1        0.1583
     12 H           9.5120   -4.9145   24.0322 H       1  UNL1        0.1509
     13 C           5.8168   -2.6471   19.0077 C.ar    1  UNL1        0.0803
     14 S           7.0435   -2.6528   19.8709 S.2     1  UNL1       -0.0488
     15 C           6.9562   -3.8330   20.7926 C.ar    1  UNL1        0.1664
     16 N           5.6756   -4.5567   20.4990 N.ar    1  UNL1       -0.2282
     17 C           4.9714   -3.8238   19.3958 C.ar    1  UNL1        0.0701
     18 C           3.6532   -4.2012   18.7876 C.3     1  UNL1        0.0528
     19 C           4.0803   -1.1694   17.7625 C.3     1  UNL1        0.0779
     20 C           5.4926   -1.6413   17.9431 C.2     1  UNL1        0.1807
     21 O           6.5806   -1.1074   17.0594 O.2     1  UNL1       -0.2908
     22 C           6.9388   -5.3366   30.0386 C.3     1  UNL1        0.1376
     23 C           7.2381   -4.2411   31.0186 C.ar    1  UNL1        0.1392
     24 C           6.2322   -3.3279   31.6544 C.ar    1  UNL1        0.0376
     25 C           6.9682   -2.3889   32.5635 C.ar    1  UNL1        0.0435
     26 C           8.4290   -2.7218   32.4896 C.ar    1  UNL1        0.1792
     27 O           8.5957   -3.8665   31.5347 O.2     1  UNL1       -0.4533
     28 C           8.6685   -2.3824   26.1295 C.3     1  UNL1        0.0751
     29 N           7.6697   -1.2889   25.8914 N.3     1  UNL1       -0.2726
     30 C           8.1092    0.1452   25.9087 C.3     1  UNL1        0.0721
     31 C           7.1104    1.2386   25.6705 C.3     1  UNL1        0.0174
     32 C           5.6720    0.8980   25.4152 C.3     1  UNL1        0.0031
     33 C           5.2325   -0.5361   25.3979 C.3     1  UNL1        0.0204
     34 C           6.2314   -1.6295   25.6360 C.3     1  UNL1        0.0724
     35 C           3.7942   -0.8767   25.1425 C.3     1  UNL1        0.0277
     36 C           3.2093   -0.6842   23.7747 C.ar    1  UNL1       -0.0220
     37 C           3.6449   -1.5658   22.6419 C.ar    1  UNL1       -0.0020
     38 C           3.0600   -1.3733   21.2741 C.ar    1  UNL1        0.0293
     39 C           2.0396   -0.2992   21.0391 C.ar    1  UNL1        0.1401
     40 F           1.4547   -0.1068   19.6713 F       1  UNL1       -0.2042
     41 C           1.6041    0.5823   22.1719 C.ar    1  UNL1        0.0293
     42 C           2.1889    0.3898   23.5397 C.ar    1  UNL1       -0.0020
@<TRIPOS>BOND
     1    19    20    1
     2    20    21    2
     3    20    13    1
     4    13    14   ar
     5    14    15   ar
     6    15     7    1
     7     7     8   am
     8     8     9    2
     9     8    10   am
    10     1    10    1
    11     1     2    1
    12     2     3    1
    13     3     4    1
    14     4    22    1
    15    22    23    1
    16    23    24   ar
    17    24    25   ar
    18    25    26   ar
    19    26    27   ar
    20     4     5    1
    21     5     6    1
    22     6    28    1
    23    28    29    1
    24    29    30    1
    25    30    31    1
    26    31    32    1
    27    32    33    1
    28    33    35    1
    29    35    36    1
    30    36    37   ar
    31    37    38   ar
    32    38    39   ar
    33    39    40    1
    34    39    41   ar
    35    41    42   ar
    36    33    34    1
    37    15    16   ar
    38    16    17   ar
    39    17    18    1
    40    17    13   ar
    41     6     1    1
    42    34    29    1
    43    27    23   ar
    44    42    36   ar
    45     7    11    1
    46    10    12    1
@<TRIPOS>MOLECULE
*****
 42 46 0 0 0
SMALL
GASTEIGER

@<TRIPOS>ATOM
      1 C           2.1480    1.9542   19.3720 C.3     1  UNL1        0.0771
      2 C           2.2306    0.7853   18.4357 C.3     1  UNL1        0.0370
      3 C           3.2114   -0.3186   18.6989 C.3     1  UNL1        0.0742
      4 N           4.1098   -0.2535   19.8984 N.3     1  UNL1       -0.2662
      5 C           4.0272    0.9155   20.8347 C.3     1  UNL1        0.0755
      6 C           3.0463    2.0193   20.5715 C.3     1  UNL1        0.0500
      7 N          -1.2408    4.0179   19.2852 N.am    1  UNL1       -0.2485
      8 C          -0.2599    2.9141   19.5484 C.2     1  UNL1        0.3058
      9 O          -0.7058    1.6661   20.2510 O.2     1  UNL1       -0.2524
     10 N           1.1671    3.0582   19.1089 N.am    1  UNL1       -0.2901
     11 H          -0.9481    4.8370   18.8241 H       1  UNL1        0.1583
     12 H           1.4598    3.8772   18.6477 H       1  UNL1        0.1509
     13 C          -4.6494    3.7155   21.1170 C.ar    1  UNL1        0.0803
     14 S          -3.1600    3.8916   21.1415 S.2     1  UNL1       -0.0488
     15 C          -2.6677    3.8739   19.7247 C.ar    1  UNL1        0.1664
     16 N          -3.8529    3.6868   18.8246 N.ar    1  UNL1       -0.2282
     17 C          -5.0777    3.5889   19.6851 C.ar    1  UNL1        0.0701
     18 C          -6.4838    3.3979   19.1989 C.3     1  UNL1        0.0528
     19 C          -5.0857    3.0222   23.5826 C.3     1  UNL1        0.0779
     20 C          -5.5520    3.6733   22.3143 C.2     1  UNL1        0.1807
     21 O          -6.9209    4.2823   22.2433 O.2     1  UNL1       -0.2908
     22 C           5.0907   -1.3574   20.1616 C.3     1  UNL1        0.1376
     23 C           4.7355   -2.7738   19.8187 C.ar    1  UNL1        0.1392
     24 C           5.1843   -3.5251   18.6005 C.ar    1  UNL1        0.0376
     25 C           4.5954   -4.9033   18.6627 C.ar    1  UNL1        0.0435
     26 C           3.7826   -5.0037   19.9195 C.ar    1  UNL1        0.1792
     27 O           3.8693   -3.6877   20.6339 O.2     1  UNL1       -0.4533
     28 C           2.9637    3.1883   21.5079 C.3     1  UNL1        0.0751
     29 N           1.7950    3.3227   22.4385 N.3     1  UNL1       -0.2726
     30 C           0.9620    4.5701   22.4211 C.3     1  UNL1        0.0721
     31 C          -0.2068    4.7045   23.3517 C.3     1  UNL1        0.0174
     32 C          -0.5425    3.5914   24.2997 C.3     1  UNL1        0.0031
     33 C           0.2905    2.3442   24.3170 C.3     1  UNL1        0.0204
     34 C           1.4592    2.2098   23.3864 C.3     1  UNL1        0.0724
     35 C          -0.0452    1.2312   25.2650 C.3     1  UNL1        0.0277
     36 C           0.1164    1.4304   26.7429 C.ar    1  UNL1       -0.0220
     37 C           1.0827    2.4545   27.2604 C.ar    1  UNL1       -0.0020
     38 C           1.2442    2.6537   28.7383 C.ar    1  UNL1        0.0293
     39 C           0.4395    1.8289   29.6987 C.ar    1  UNL1        0.1401
     40 F           0.6011    2.0282   31.1766 F       1  UNL1       -0.2042
     41 C          -0.5267    0.8050   29.1812 C.ar    1  UNL1        0.0293
     42 C          -0.6883    0.6057   27.7033 C.ar    1  UNL1       -0.0020
@<TRIPOS>BOND
     1    19    20    1
     2    20    21    2
     3    20    13    1
     4    13    14   ar
     5    14    15   ar
     6    15     7    1
     7     7     8   am
     8     8     9    2
     9     8    10   am
    10     1    10    1
    11     1     2    1
    12     2     3    1
    13     3     4    1
    14     4    22    1
    15    22    23    1
    16    23    24   ar
    17    24    25   ar
    18    25    26   ar
    19    26    27   ar
    20     4     5    1
    21     5     6    1
    22     6    28    1
    23    28    29    1
    24    29    30    1
    25    30    31    1
    26    31    32    1
    27    32    33    1
    28    33    35    1
    29    35    36    1
    30    36    37   ar
    31    37    38   ar
    32    38    39   ar
    33    39    40    1
    34    39    41   ar
    35    41    42   ar
    36    33    34    1
    37    15    16   ar
    38    16    17   ar
    39    17    18    1
    40    17    13   ar
    41     6     1    1
    42    34    29    1
    43    27    23   ar
    44    42    36   ar
    45     7    11    1
    46    10    12    1
@<TRIPOS>MOLECULE
*****
 42 46 0 0 0
SMALL
GASTEIGER

@<TRIPOS>ATOM
      1 C           6.6284   -1.9929   29.7476 C.3     1  UNL1        0.0771
      2 C           6.6116   -3.2629   30.5454 C.3     1  UNL1        0.0370
      3 C           7.5120   -4.4003   30.1637 C.3     1  UNL1        0.0742
      4 N           8.4291   -4.2676   28.9842 N.3     1  UNL1       -0.2662
      5 C           8.4459   -2.9975   28.1864 C.3     1  UNL1        0.0755
      6 C           7.5455   -1.8601   28.5681 C.3     1  UNL1        0.0500
      7 N           3.4656    0.3999   29.8936 N.am    1  UNL1       -0.2485
      8 C           4.3660   -0.7374   29.5120 C.2     1  UNL1        0.3058
      9 O           3.9043   -1.7569   28.5131 O.2     1  UNL1       -0.2524
     10 N           5.7280   -0.8554   30.1292 N.am    1  UNL1       -0.2901
     11 H           3.7686    1.0690   30.5492 H       1  UNL1        0.1583
     12 H           6.0310   -0.1864   30.7848 H       1  UNL1        0.1509
     13 C           0.2961    1.1088   27.7683 C.ar    1  UNL1        0.0803
     14 S           1.7697    1.2495   28.0102 S.2     1  UNL1       -0.0488
     15 C           2.1036    0.5179   29.2764 C.ar    1  UNL1        0.1664
     16 N           0.8362   -0.0750   29.8170 N.ar    1  UNL1       -0.2282
     17 C          -0.2809    0.2902   28.8850 C.ar    1  UNL1        0.0701
     18 C          -1.7219   -0.0955   29.0420 C.3     1  UNL1        0.0528
     19 C          -1.4579    2.7873   26.8431 C.3     1  UNL1        0.0779
     20 C          -0.4667    1.6854   26.6125 C.2     1  UNL1        0.1807
     21 O          -0.2382    1.1601   25.2263 O.2     1  UNL1       -0.2908
     22 C           9.3295   -5.4050   28.6025 C.3     1  UNL1        0.1376
     23 C           8.7578   -6.6262   27.9455 C.ar    1  UNL1        0.1392
     24 C           7.8299   -6.6406   26.7671 C.ar    1  UNL1        0.0376
     25 C           7.5122   -8.0707   26.4447 C.ar    1  UNL1        0.0435
     26 C           8.2438   -8.9402   27.4240 C.ar    1  UNL1        0.1792
     27 O           9.0136   -8.0474   28.3515 O.2     1  UNL1       -0.4533
     28 C           7.5623   -0.5900   27.7702 C.3     1  UNL1        0.0751
     29 N           7.2689   -0.6242   26.2996 N.3     1  UNL1       -0.2726
     30 C           8.3480   -0.2932   25.3116 C.3     1  UNL1        0.0721
     31 C           8.0546   -0.3274   23.8410 C.3     1  UNL1        0.0174
     32 C           6.6821   -0.6925   23.3583 C.3     1  UNL1        0.0031
     33 C           5.6031   -1.0235   24.3463 C.3     1  UNL1        0.0204
     34 C           5.8964   -0.9893   25.8169 C.3     1  UNL1        0.0724
     35 C           4.2305   -1.3886   23.8636 C.3     1  UNL1        0.0277
     36 C           4.0577   -2.0650   22.5359 C.ar    1  UNL1       -0.0220
     37 C           4.5650   -3.4622   22.3344 C.ar    1  UNL1       -0.0020
     38 C           4.3922   -4.1386   21.0067 C.ar    1  UNL1        0.0293
     39 C           3.7120   -3.4178   19.8807 C.ar    1  UNL1        0.1401
     40 F           3.5392   -4.0942   18.5530 F       1  UNL1       -0.2042
     41 C           3.2048   -2.0207   20.0823 C.ar    1  UNL1        0.0293
     42 C           3.3776   -1.3443   21.4099 C.ar    1  UNL1       -0.0020
@<TRIPOS>BOND
     1    19    20    1
     2    20    21    2
     3    20    13    1
     4    13    14   ar
     5    14    15   ar
     6    15     7    1
     7     7     8   am
     8     8     9    2
     9     8    10   am
    10     1    10    1
    11     1     2    1
    12     2     3    1
    13     3     4    1
    14     4    22    1
    15    22    23    1
    16    23    24   ar
    17    24    25   ar
    18    25    26   ar
    19    26    27   ar
    20     4     5    1
    21     5     6    1
    22     6    28    1
    23    28    29    1
    24    29    30    1
    25    30    31    1
    26    31    32    1
    27    32    33    1
    28    33    35    1
    29    35    36    1
    30    36    37   ar
    31    37    38   ar
    32    38    39   ar
    33    39    40    1
    34    39    41   ar
    35    41    42   ar
    36    33    34    1
    37    15    16   ar
    38    16    17   ar
    39    17    18    1
    40    17    13   ar
    41     6     1    1
    42    34    29    1
    43    27    23   ar
    44    42    36   ar
    45     7    11    1
    46    10    12    1
@<TRIPOS>MOLECULE
*****
 42 46 0 0 0
SMALL
GASTEIGER

@<TRIPOS>ATOM
      1 C         -17.5340   -3.4994   18.5507 C.3     1  UNL1        0.0771
      2 C         -17.9999   -4.6179   19.4349 C.3     1  UNL1        0.0370
      3 C         -17.3229   -5.9550   19.3724 C.3     1  UNL1        0.0742
      4 N         -16.1801   -6.1735   18.4257 N.3     1  UNL1       -0.2662
      5 C         -15.7142   -5.0550   17.5415 C.3     1  UNL1        0.0755
      6 C         -16.3912   -3.7179   17.6040 C.3     1  UNL1        0.0500
      7 N         -18.3322    0.2564   19.5540 N.am    1  UNL1       -0.2485
      8 C         -17.6554   -1.0807   19.4916 C.2     1  UNL1        0.3058
      9 O         -16.4229   -1.3363   20.3075 O.2     1  UNL1       -0.2524
     10 N         -18.2109   -2.1622   18.6132 N.am    1  UNL1       -0.2901
     11 H         -19.1411    0.4242   19.0185 H       1  UNL1        0.1583
     12 H         -19.0198   -1.9945   18.0776 H       1  UNL1        0.1509
     13 C         -16.6180    3.3339   21.1839 C.ar    1  UNL1        0.0803
     14 S         -16.9586    2.5101   19.9775 S.2     1  UNL1       -0.0488
     15 C         -17.7767    1.3380   20.4324 C.ar    1  UNL1        0.1664
     16 N         -17.9416    1.4374   21.9200 N.ar    1  UNL1       -0.2282
     17 C         -17.2255    2.6709   22.3845 C.ar    1  UNL1        0.0701
     18 C         -17.1331    3.1561   23.8008 C.3     1  UNL1        0.0528
     19 C         -16.5025    5.9290   21.1396 C.3     1  UNL1        0.0779
     20 C         -15.8114    4.5986   21.1888 C.2     1  UNL1        0.1807
     21 O         -14.3139    4.5328   21.2430 O.2     1  UNL1       -0.2908
     22 C         -15.5032   -7.5107   18.3633 C.3     1  UNL1        0.1376
     23 C         -16.3239   -8.7654   18.3184 C.ar    1  UNL1        0.1392
     24 C         -17.6200   -8.9454   17.5852 C.ar    1  UNL1        0.0376
     25 C         -18.0898  -10.3517   17.8124 C.ar    1  UNL1        0.0435
     26 C         -17.0839  -11.0409   18.6860 C.ar    1  UNL1        0.1792
     27 O         -15.9925  -10.0606   18.9987 O.2     1  UNL1       -0.4533
     28 C         -15.9253   -2.5993   16.7198 C.3     1  UNL1        0.0751
     29 N         -14.8735   -1.6470   17.2064 N.3     1  UNL1       -0.2726
     30 C         -15.1484   -0.1725   17.2269 C.3     1  UNL1        0.0721
     31 C         -14.0965    0.7798   17.7135 C.3     1  UNL1        0.0174
     32 C         -12.7698    0.2576   18.1797 C.3     1  UNL1        0.0031
     33 C         -12.4950   -1.2169   18.1592 C.3     1  UNL1        0.0204
     34 C         -13.5468   -2.1692   17.6726 C.3     1  UNL1        0.0724
     35 C         -11.1683   -1.7390   18.6254 C.3     1  UNL1        0.0277
     36 C         -10.8142   -3.1814   18.4151 C.ar    1  UNL1       -0.0220
     37 C         -11.4830   -4.2450   19.2346 C.ar    1  UNL1       -0.0020
     38 C         -11.1289   -5.6874   19.0244 C.ar    1  UNL1        0.0293
     39 C         -10.1060   -6.0661   17.9947 C.ar    1  UNL1        0.1401
     40 F          -9.7518   -7.5085   17.7844 F       1  UNL1       -0.2042
     41 C          -9.4372   -5.0026   17.1752 C.ar    1  UNL1        0.0293
     42 C          -9.7913   -3.5602   17.3855 C.ar    1  UNL1       -0.0020
@<TRIPOS>BOND
     1    19    20    1
     2    20    21    2
     3    20    13    1
     4    13    14   ar
     5    14    15   ar
     6    15     7    1
     7     7     8   am
     8     8     9    2
     9     8    10   am
    10     1    10    1
    11     1     2    1
    12     2     3    1
    13     3     4    1
    14     4    22    1
    15    22    23    1
    16    23    24   ar
    17    24    25   ar
    18    25    26   ar
    19    26    27   ar
    20     4     5    1
    21     5     6    1
    22     6    28    1
    23    28    29    1
    24    29    30    1
    25    30    31    1
    26    31    32    1
    27    32    33    1
    28    33    35    1
    29    35    36    1
    30    36    37   ar
    31    37    38   ar
    32    38    39   ar
    33    39    40    1
    34    39    41   ar
    35    41    42   ar
    36    33    34    1
    37    15    16   ar
    38    16    17   ar
    39    17    18    1
    40    17    13   ar
    41     6     1    1
    42    34    29    1
    43    27    23   ar
    44    42    36   ar
    45     7    11    1
    46    10    12    1
@<TRIPOS>MOLECULE
*****
 42 46 0 0 0
SMALL
GASTEIGER

@<TRIPOS>ATOM
      1 C           0.8936    3.1965   18.8902 C.3     1  UNL1        0.0771
      2 C          -0.1931    3.1375   17.8579 C.3     1  UNL1        0.0370
      3 C          -1.5370    3.7370   18.1487 C.3     1  UNL1        0.0742
      4 N          -1.7942    4.3955   19.4717 N.3     1  UNL1       -0.2662
      5 C          -0.7075    4.4544   20.5039 C.3     1  UNL1        0.0755
      6 C           0.6364    3.8549   20.2132 C.3     1  UNL1        0.0500
      7 N           3.8842    0.5921   18.7371 N.am    1  UNL1       -0.2485
      8 C           2.5403    1.1916   19.0278 C.2     1  UNL1        0.3058
      9 O           1.4992    0.3858   19.7467 O.2     1  UNL1       -0.2524
     10 N           2.2375    2.5969   18.5995 N.am    1  UNL1       -0.2901
     11 H           4.5675    1.1209   18.2652 H       1  UNL1        0.1583
     12 H           2.9208    3.1258   18.1276 H       1  UNL1        0.1509
     13 C           4.9513   -2.7172   20.4621 C.ar    1  UNL1        0.0803
     14 S           4.8476   -1.2208   20.4489 S.2     1  UNL1       -0.0488
     15 C           4.1870   -0.8132   19.1654 C.ar    1  UNL1        0.1664
     16 N           3.8824   -2.0577   18.3853 N.ar    1  UNL1       -0.2282
     17 C           4.3548   -3.2344   19.1867 C.ar    1  UNL1        0.0701
     18 C           4.2491   -4.6753   18.7835 C.3     1  UNL1        0.0528
     19 C           4.9301   -3.5424   22.9255 C.3     1  UNL1        0.0779
     20 C           5.5469   -3.5500   21.5582 C.2     1  UNL1        0.1807
     21 O           6.7593   -4.3905   21.2871 O.2     1  UNL1       -0.2908
     22 C          -3.1381    4.9950   19.7624 C.3     1  UNL1        0.1376
     23 C          -3.9979    4.4180   20.8477 C.ar    1  UNL1        0.1392
     24 C          -5.2239    5.0538   21.4329 C.ar    1  UNL1        0.0376
     25 C          -5.7663    4.1327   22.4852 C.ar    1  UNL1        0.0435
     26 C          -4.8754    2.9276   22.5504 C.ar    1  UNL1        0.1792
     27 O          -3.7825    3.1040   21.5383 O.2     1  UNL1       -0.4533
     28 C           1.7232    3.9138   21.2455 C.3     1  UNL1        0.0751
     29 N           1.8189    2.8468   22.2954 N.3     1  UNL1       -0.2726
     30 C           3.0330    1.9684   22.3634 C.3     1  UNL1        0.0721
     31 C           3.1287    0.9014   23.4133 C.3     1  UNL1        0.0174
     32 C           2.0105    0.7127   24.3952 C.3     1  UNL1        0.0031
     33 C           0.7965    1.5911   24.3271 C.3     1  UNL1        0.0204
     34 C           0.7007    2.6582   23.2772 C.3     1  UNL1        0.0724
     35 C          -0.3218    1.4025   25.3089 C.3     1  UNL1        0.0277
     36 C          -0.0710    1.5885   26.7761 C.ar    1  UNL1       -0.0220
     37 C          -0.6788    0.6403   27.7669 C.ar    1  UNL1       -0.0020
     38 C          -0.4280    0.8263   29.2341 C.ar    1  UNL1        0.0293
     39 C           0.4306    1.9604   29.7104 C.ar    1  UNL1        0.1401
     40 F           0.6814    2.1464   31.1775 F       1  UNL1       -0.2042
     41 C           1.0383    2.9085   28.7195 C.ar    1  UNL1        0.0293
     42 C           0.7875    2.7225   27.2524 C.ar    1  UNL1       -0.0020
@<TRIPOS>BOND
     1    19    20    1
     2    20    21    2
     3    20    13    1
     4    13    14   ar
     5    14    15   ar
     6    15     7    1
     7     7     8   am
     8     8     9    2
     9     8    10   am
    10     1    10    1
    11     1     2    1
    12     2     3    1
    13     3     4    1
    14     4    22    1
    15    22    23    1
    16    23    24   ar
    17    24    25   ar
    18    25    26   ar
    19    26    27   ar
    20     4     5    1
    21     5     6    1
    22     6    28    1
    23    28    29    1
    24    29    30    1
    25    30    31    1
    26    31    32    1
    27    32    33    1
    28    33    35    1
    29    35    36    1
    30    36    37   ar
    31    37    38   ar
    32    38    39   ar
    33    39    40    1
    34    39    41   ar
    35    41    42   ar
    36    33    34    1
    37    15    16   ar
    38    16    17   ar
    39    17    18    1
    40    17    13   ar
    41     6     1    1
    42    34    29    1
    43    27    23   ar
    44    42    36   ar
    45     7    11    1
    46    10    12    1
@<TRIPOS>MOLECULE
*****
 42 46 0 0 0
SMALL
GASTEIGER

@<TRIPOS>ATOM
      1 C           4.6236    0.3274   25.1457 C.3     1  UNL1        0.0771
      2 C           5.1200   -0.7336   24.2088 C.3     1  UNL1        0.0370
      3 C           4.3638   -1.0352   22.9490 C.3     1  UNL1        0.0742
      4 N           3.1112   -0.2758   22.6261 N.3     1  UNL1       -0.2662
      5 C           2.6148    0.7852   23.5630 C.3     1  UNL1        0.0755
      6 C           3.3710    1.0868   24.8228 C.3     1  UNL1        0.0500
      7 N           6.0005    0.0281   28.8558 N.am    1  UNL1       -0.2485
      8 C           5.2443   -0.2735   27.5960 C.2     1  UNL1        0.3058
      9 O           4.3526   -1.4777   27.5265 O.2     1  UNL1       -0.2524
     10 N           5.3799    0.6290   26.4056 N.am    1  UNL1       -0.2901
     11 H           6.5857    0.8184   28.9014 H       1  UNL1        0.1583
     12 H           5.9651    1.4193   26.4512 H       1  UNL1        0.1509
     13 C           5.1730   -1.7813   32.1886 C.ar    1  UNL1        0.0803
     14 S           5.0032   -0.6249   31.2483 S.2     1  UNL1       -0.0488
     15 C           5.8649   -0.8745   30.0462 C.ar    1  UNL1        0.1664
     16 N           6.5673   -2.1851   30.2435 N.ar    1  UNL1       -0.2282
     17 C           6.1397   -2.7455   31.5676 C.ar    1  UNL1        0.0701
     18 C           6.5983   -4.0425   32.1656 C.3     1  UNL1        0.0528
     19 C           4.6882   -0.9139   34.5891 C.3     1  UNL1        0.0779
     20 C           4.4951   -1.9447   33.5166 C.2     1  UNL1        0.1807
     21 O           3.6241   -3.1388   33.7722 O.2     1  UNL1       -0.2908
     22 C           2.3550   -0.5775   21.3662 C.3     1  UNL1        0.1376
     23 C           3.0765   -1.1283   20.1721 C.ar    1  UNL1        0.1392
     24 C           3.2095   -2.5789   19.8142 C.ar    1  UNL1        0.0376
     25 C           4.0068   -2.6725   18.5471 C.ar    1  UNL1        0.0435
     26 C           4.3666   -1.2797   18.1219 C.ar    1  UNL1        0.1792
     27 O           3.7917   -0.3254   19.1263 O.2     1  UNL1       -0.4533
     28 C           2.8747    2.1478   25.7598 C.3     1  UNL1        0.0751
     29 N           1.5303    2.0053   26.4097 N.3     1  UNL1       -0.2726
     30 C           1.2119    0.7793   27.2132 C.3     1  UNL1        0.0721
     31 C          -0.1325    0.6368   27.8631 C.3     1  UNL1        0.0174
     32 C          -1.1585    1.7202   27.7094 C.3     1  UNL1        0.0031
     33 C          -0.8401    2.9461   26.9059 C.3     1  UNL1        0.0204
     34 C           0.5043    3.0887   26.2560 C.3     1  UNL1        0.0724
     35 C          -1.8661    4.0296   26.7522 C.3     1  UNL1        0.0277
     36 C          -2.9534    3.8929   25.7279 C.ar    1  UNL1       -0.0220
     37 C          -2.6036    3.6265   24.2938 C.ar    1  UNL1       -0.0020
     38 C          -3.6910    3.4898   23.2696 C.ar    1  UNL1        0.0293
     39 C          -5.1281    3.6197   23.6795 C.ar    1  UNL1        0.1401
     40 F          -6.2154    3.4830   22.6553 F       1  UNL1       -0.2042
     41 C          -5.4778    3.8861   25.1136 C.ar    1  UNL1        0.0293
     42 C          -4.3904    4.0228   26.1378 C.ar    1  UNL1       -0.0020
@<TRIPOS>BOND
     1    19    20    1
     2    20    21    2
     3    20    13    1
     4    13    14   ar
     5    14    15   ar
     6    15     7    1
     7     7     8   am
     8     8     9    2
     9     8    10   am
    10     1    10    1
    11     1     2    1
    12     2     3    1
    13     3     4    1
    14     4    22    1
    15    22    23    1
    16    23    24   ar
    17    24    25   ar
    18    25    26   ar
    19    26    27   ar
    20     4     5    1
    21     5     6    1
    22     6    28    1
    23    28    29    1
    24    29    30    1
    25    30    31    1
    26    31    32    1
    27    32    33    1
    28    33    35    1
    29    35    36    1
    30    36    37   ar
    31    37    38   ar
    32    38    39   ar
    33    39    40    1
    34    39    41   ar
    35    41    42   ar
    36    33    34    1
    37    15    16   ar
    38    16    17   ar
    39    17    18    1
    40    17    13   ar
    41     6     1    1
    42    34    29    1
    43    27    23   ar
    44    42    36   ar
    45     7    11    1
    46    10    12    1
@<TRIPOS>MOLECULE
*****
 42 46 0 0 0
SMALL
GASTEIGER

@<TRIPOS>ATOM
      1 C           3.0524    3.2556   37.2603 C.3     1  UNL1        0.0771
      2 C           2.8841    4.7272   37.4973 C.3     1  UNL1        0.0370
      3 C           3.7583    5.4314   38.4921 C.3     1  UNL1        0.0742
      4 N           4.8009    4.6642   39.2499 N.3     1  UNL1       -0.2662
      5 C           4.9693    3.1926   39.0129 C.3     1  UNL1        0.0755
      6 C           4.0950    2.4884   38.0182 C.3     1  UNL1        0.0500
      7 N           1.6445    1.8895   33.8105 N.am    1  UNL1       -0.2485
      8 C           2.5187    2.5938   34.8053 C.2     1  UNL1        0.3058
      9 O           3.7335    3.3407   34.3399 O.2     1  UNL1       -0.2524
     10 N           2.1781    2.5513   36.2655 N.am    1  UNL1       -0.2901
     11 H           0.8472    1.3993   34.1159 H       1  UNL1        0.1583
     12 H           1.3808    2.0611   36.5710 H       1  UNL1        0.1509
     13 C           2.7974    1.3067   30.1504 C.ar    1  UNL1        0.0803
     14 S           2.6518    0.8394   31.5683 S.2     1  UNL1       -0.0488
     15 C           1.9850    1.9320   32.3503 C.ar    1  UNL1        0.1664
     16 N           1.7185    3.0746   31.4157 N.ar    1  UNL1       -0.2282
     17 C           2.2206    2.6882   30.0561 C.ar    1  UNL1        0.0701
     18 C           2.1571    3.5346   28.8193 C.3     1  UNL1        0.0528
     19 C           2.6791   -0.6374   28.4309 C.3     1  UNL1        0.0779
     20 C           3.4120    0.5291   29.0245 C.2     1  UNL1        0.1807
     21 O           4.7593    0.9178   28.4922 O.2     1  UNL1       -0.2908
     22 C           5.6752    5.3685   40.2447 C.3     1  UNL1        0.1376
     23 C           5.3267    5.3381   41.7034 C.ar    1  UNL1        0.1392
     24 C           4.1601    6.0282   42.3457 C.ar    1  UNL1        0.0376
     25 C           4.1960    5.7290   43.8150 C.ar    1  UNL1        0.0435
     26 C           5.3850    4.8538   44.0809 C.ar    1  UNL1        0.1792
     27 O           6.0838    4.6123   42.7758 O.2     1  UNL1       -0.4533
     28 C           4.2633    1.0168   37.7811 C.3     1  UNL1        0.0751
     29 N           5.0490    0.5326   36.5987 N.3     1  UNL1       -0.2726
     30 C           6.4308    1.0606   36.3492 C.3     1  UNL1        0.0721
     31 C           7.2165    0.5764   35.1667 C.3     1  UNL1        0.0174
     32 C           6.6204   -0.4357   34.2337 C.3     1  UNL1        0.0031
     33 C           5.2388   -0.9636   34.4832 C.3     1  UNL1        0.0204
     34 C           4.4531   -0.4794   35.6657 C.3     1  UNL1        0.0724
     35 C           4.6427   -1.9757   33.5502 C.3     1  UNL1        0.0277
     36 C           5.4256   -2.4544   32.3635 C.ar    1  UNL1       -0.0220
     37 C           6.2408   -3.7098   32.4597 C.ar    1  UNL1       -0.0020
     38 C           7.0237   -4.1885   31.2731 C.ar    1  UNL1        0.0293
     39 C           6.9912   -3.4116   29.9903 C.ar    1  UNL1        0.1401
     40 F           7.7740   -3.8903   28.8036 F       1  UNL1       -0.2042
     41 C           6.1760   -2.1562   29.8941 C.ar    1  UNL1        0.0293
     42 C           5.3931   -1.6776   31.0808 C.ar    1  UNL1       -0.0020
@<TRIPOS>BOND
     1    19    20    1
     2    20    21    2
     3    20    13    1
     4    13    14   ar
     5    14    15   ar
     6    15     7    1
     7     7     8   am
     8     8     9    2
     9     8    10   am
    10     1    10    1
    11     1     2    1
    12     2     3    1
    13     3     4    1
    14     4    22    1
    15    22    23    1
    16    23    24   ar
    17    24    25   ar
    18    25    26   ar
    19    26    27   ar
    20     4     5    1
    21     5     6    1
    22     6    28    1
    23    28    29    1
    24    29    30    1
    25    30    31    1
    26    31    32    1
    27    32    33    1
    28    33    35    1
    29    35    36    1
    30    36    37   ar
    31    37    38   ar
    32    38    39   ar
    33    39    40    1
    34    39    41   ar
    35    41    42   ar
    36    33    34    1
    37    15    16   ar
    38    16    17   ar
    39    17    18    1
    40    17    13   ar
    41     6     1    1
    42    34    29    1
    43    27    23   ar
    44    42    36   ar
    45     7    11    1
    46    10    12    1
@<TRIPOS>MOLECULE
*****
 42 46 0 0 0
SMALL
GASTEIGER

@<TRIPOS>ATOM
      1 C           3.6987    0.7660   26.3610 C.3     1  UNL1        0.0771
      2 C           3.1304    2.1538   26.3923 C.3     1  UNL1        0.0370
      3 C           2.0449    2.4979   27.3686 C.3     1  UNL1        0.0742
      4 N           1.5277    1.4541   28.3137 N.3     1  UNL1       -0.2662
      5 C           2.0960    0.0663   28.2824 C.3     1  UNL1        0.0755
      6 C           3.1815   -0.2777   27.3061 C.3     1  UNL1        0.0500
      7 N           5.5208   -0.5331   23.0835 N.am    1  UNL1       -0.2485
      8 C           4.4353   -0.1890   24.0598 C.2     1  UNL1        0.3058
      9 O           3.0009   -0.4558   23.7114 O.2     1  UNL1       -0.2524
     10 N           4.7842    0.4219   25.3846 N.am    1  UNL1       -0.2901
     11 H           6.4622   -0.3580   23.3121 H       1  UNL1        0.1583
     12 H           5.7256    0.5970   25.6133 H       1  UNL1        0.1509
     13 C           4.9977   -1.5296   19.3687 C.ar    1  UNL1        0.0803
     14 S           5.5536   -0.6058   20.4116 S.2     1  UNL1       -0.0488
     15 C           5.1719   -1.1440   21.7587 C.ar    1  UNL1        0.1664
     16 N           4.3800   -2.4005   21.5483 N.ar    1  UNL1       -0.2282
     17 C           4.2723   -2.6388   20.0713 C.ar    1  UNL1        0.0701
     18 C           3.5637   -3.7850   19.4125 C.3     1  UNL1        0.0528
     19 C           3.9933   -0.8541   17.0699 C.3     1  UNL1        0.0779
     20 C           5.1418   -1.3718   17.8840 C.2     1  UNL1        0.1807
     21 O           6.4343   -1.7317   17.2136 O.2     1  UNL1       -0.2908
     22 C           0.4421    1.7982   29.2901 C.3     1  UNL1        0.1376
     23 C           0.7954    2.2415   30.6788 C.ar    1  UNL1        0.1392
     24 C           0.6455    3.6300   31.2260 C.ar    1  UNL1        0.0376
     25 C           1.1180    3.6207   32.6496 C.ar    1  UNL1        0.0435
     26 C           1.5599    2.2264   32.9823 C.ar    1  UNL1        0.1792
     27 O           1.3605    1.3740   31.7643 O.2     1  UNL1       -0.4533
     28 C           3.7498   -1.6656   27.2747 C.3     1  UNL1        0.0751
     29 N           5.1648   -1.9066   27.7105 N.3     1  UNL1       -0.2726
     30 C           5.7055   -1.2078   28.9228 C.3     1  UNL1        0.0721
     31 C           7.1204   -1.4488   29.3586 C.3     1  UNL1        0.0174
     32 C           7.9946   -2.3885   28.5821 C.3     1  UNL1        0.0031
     33 C           7.4538   -3.0873   27.3700 C.3     1  UNL1        0.0204
     34 C           6.0389   -2.8463   26.9342 C.3     1  UNL1        0.0724
     35 C           8.3280   -4.0270   26.5936 C.3     1  UNL1        0.0277
     36 C           8.2624   -5.5023   26.8564 C.ar    1  UNL1       -0.0220
     37 C           7.4489   -6.3884   25.9601 C.ar    1  UNL1       -0.0020
     38 C           7.3832   -7.8637   26.2229 C.ar    1  UNL1        0.0293
     39 C           8.1310   -8.4530   27.3821 C.ar    1  UNL1        0.1401
     40 F           8.0654   -9.9284   27.6449 F       1  UNL1       -0.2042
     41 C           8.9445   -7.5670   28.2783 C.ar    1  UNL1        0.0293
     42 C           9.0101   -6.0917   28.0155 C.ar    1  UNL1       -0.0020
@<TRIPOS>BOND
     1    19    20    1
     2    20    21    2
     3    20    13    1
     4    13    14   ar
     5    14    15   ar
     6    15     7    1
     7     7     8   am
     8     8     9    2
     9     8    10   am
    10     1    10    1
    11     1     2    1
    12     2     3    1
    13     3     4    1
    14     4    22    1
    15    22    23    1
    16    23    24   ar
    17    24    25   ar
    18    25    26   ar
    19    26    27   ar
    20     4     5    1
    21     5     6    1
    22     6    28    1
    23    28    29    1
    24    29    30    1
    25    30    31    1
    26    31    32    1
    27    32    33    1
    28    33    35    1
    29    35    36    1
    30    36    37   ar
    31    37    38   ar
    32    38    39   ar
    33    39    40    1
    34    39    41   ar
    35    41    42   ar
    36    33    34    1
    37    15    16   ar
    38    16    17   ar
    39    17    18    1
    40    17    13   ar
    41     6     1    1
    42    34    29    1
    43    27    23   ar
    44    42    36   ar
    45     7    11    1
    46    10    12    1
@<TRIPOS>MOLECULE
*****
 42 46 0 0 0
SMALL
GASTEIGER

@<TRIPOS>ATOM
      1 C           4.4588   -1.5641   27.3189 C.3     1  UNL1        0.0771
      2 C           3.7904   -0.5791   28.2316 C.3     1  UNL1        0.0370
      3 C           4.4349   -0.2064   29.5338 C.3     1  UNL1        0.0742
      4 N           5.7476   -0.8187   29.9233 N.3     1  UNL1       -0.2662
      5 C           6.4160   -1.8037   29.0106 C.3     1  UNL1        0.0755
      6 C           5.7716   -2.1764   27.7084 C.3     1  UNL1        0.0500
      7 N           3.2920   -1.3979   23.5293 N.am    1  UNL1       -0.2485
      8 C           3.9363   -1.0253   24.8315 C.2     1  UNL1        0.3058
      9 O           4.7027    0.2589   24.9488 O.2     1  UNL1       -0.2524
     10 N           3.8144   -1.9368   26.0166 N.am    1  UNL1       -0.2901
     11 H           2.7890   -2.2408   23.4523 H       1  UNL1        0.1583
     12 H           3.3115   -2.7796   25.9397 H       1  UNL1        0.1509
     13 C           2.8542    0.9663   20.4823 C.ar    1  UNL1        0.0803
     14 S           2.2764    0.1304   21.5857 S.2     1  UNL1       -0.0488
     15 C           3.4139   -0.4864   22.3442 C.ar    1  UNL1        0.1664
     16 N           4.6948   -0.0318   21.7097 N.ar    1  UNL1       -0.2282
     17 C           4.3489    0.8661   20.5589 C.ar    1  UNL1        0.0701
     18 C           5.3261    1.5445   19.6453 C.3     1  UNL1        0.0528
     19 C           1.2711    1.0600   18.4244 C.3     1  UNL1        0.0779
     20 C           2.0743    1.7627   19.4785 C.2     1  UNL1        0.1807
     21 O           2.0975    3.2616   19.5289 O.2     1  UNL1       -0.2908
     22 C           6.3920   -0.4460   31.2256 C.3     1  UNL1        0.1376
     23 C           5.6652   -0.6813   32.5165 C.ar    1  UNL1        0.1392
     24 C           4.8219   -1.8766   32.8482 C.ar    1  UNL1        0.0376
     25 C           4.2896   -1.6967   34.2390 C.ar    1  UNL1        0.0435
     26 C           4.8040   -0.3902   34.7668 C.ar    1  UNL1        0.1792
     27 O           5.6542    0.2373   33.7022 O.2     1  UNL1       -0.4533
     28 C           6.4399   -3.1614   26.7956 C.3     1  UNL1        0.0751
     29 N           6.8679   -2.7395   25.4212 N.3     1  UNL1       -0.2726
     30 C           7.6983   -1.5034   25.2407 C.3     1  UNL1        0.0721
     31 C           8.1263   -1.0815   23.8663 C.3     1  UNL1        0.0174
     32 C           7.7238   -1.8957   22.6725 C.3     1  UNL1        0.0031
     33 C           6.8934   -3.1318   22.8531 C.3     1  UNL1        0.0204
     34 C           6.4655   -3.5536   24.2274 C.3     1  UNL1        0.0724
     35 C           6.4910   -3.9460   21.6593 C.3     1  UNL1        0.0277
     36 C           5.7829   -3.2923   20.5098 C.ar    1  UNL1       -0.0220
     37 C           4.2887   -3.3733   20.4054 C.ar    1  UNL1       -0.0020
     38 C           3.5806   -2.7196   19.2559 C.ar    1  UNL1        0.0293
     39 C           4.3668   -1.9849   18.2108 C.ar    1  UNL1        0.1401
     40 F           3.6587   -1.3312   17.0613 F       1  UNL1       -0.2042
     41 C           5.8609   -1.9039   18.3152 C.ar    1  UNL1        0.0293
     42 C           6.5690   -2.5576   19.4647 C.ar    1  UNL1       -0.0020
@<TRIPOS>BOND
     1    19    20    1
     2    20    21    2
     3    20    13    1
     4    13    14   ar
     5    14    15   ar
     6    15     7    1
     7     7     8   am
     8     8     9    2
     9     8    10   am
    10     1    10    1
    11     1     2    1
    12     2     3    1
    13     3     4    1
    14     4    22    1
    15    22    23    1
    16    23    24   ar
    17    24    25   ar
    18    25    26   ar
    19    26    27   ar
    20     4     5    1
    21     5     6    1
    22     6    28    1
    23    28    29    1
    24    29    30    1
    25    30    31    1
    26    31    32    1
    27    32    33    1
    28    33    35    1
    29    35    36    1
    30    36    37   ar
    31    37    38   ar
    32    38    39   ar
    33    39    40    1
    34    39    41   ar
    35    41    42   ar
    36    33    34    1
    37    15    16   ar
    38    16    17   ar
    39    17    18    1
    40    17    13   ar
    41     6     1    1
    42    34    29    1
    43    27    23   ar
    44    42    36   ar
    45     7    11    1
    46    10    12    1
