@<TRIPOS>MOLECULE
*****
 44 45 0 0 0
SMALL
GASTEIGER

@<TRIPOS>ATOM
      1 O          -8.8827  -15.1510   25.0686 O.3     1  UNL1        0.0000
      2 P          -8.7447  -16.1590   26.1709 P.3     1  UNL1        0.0000
      3 O          -8.2908  -15.0761   27.1043 O.2     1  UNL1        0.0000
      4 O          -8.6066  -17.1669   27.2732 O.3     1  UNL1        0.0000
      5 H          -8.3001  -16.7239   28.0798 H       1  UNL1        0.0000
      6 C          -9.1985  -17.2419   25.2375 C.3     1  UNL1        0.0000
      7 O          -9.5355  -18.6017   25.7736 O.3     1  UNL1        0.0000
      8 C          -9.5417  -20.8286   24.4354 C.3     1  UNL1        0.0000
      9 C         -10.2515  -19.5937   24.9058 C.3     1  UNL1        0.0000
     10 C         -11.6775  -19.3510   24.5083 C.3     1  UNL1        0.0000
     11 N         -11.9969  -18.3580   23.4304 N.ar    1  UNL1        0.0000
     12 C         -12.9432  -17.2003   23.5504 C.ar    1  UNL1        0.0000
     13 N         -12.9573  -16.4752   22.2373 N.ar    1  UNL1        0.0000
     14 C         -12.0197  -17.1847   21.3059 C.ar    1  UNL1        0.0000
     15 C         -11.6298  -16.9216   19.8816 C.ar    1  UNL1        0.0000
     16 N         -12.2233  -15.7580   19.1442 N.pl3   1  UNL1        0.0000
     17 N         -10.6463  -17.8220   19.1947 N.ar    1  UNL1        0.0000
     18 C         -10.0528  -18.9857   19.9320 C.ar    1  UNL1        0.0000
     19 N         -10.4427  -19.2488   21.3563 N.ar    1  UNL1        0.0000
     20 C         -11.4262  -18.3484   22.0432 C.ar    1  UNL1        0.0000
     21 H         -12.8688  -15.1669   19.5951 H       1  UNL1        0.0000
     22 H         -11.9674  -15.5852   18.2094 H       1  UNL1        0.0000
     23 C          -7.7344  -14.8951   24.1382 C.3     1  UNL1        0.0000
     24 C          -7.9731  -14.8008   22.6603 C.3     1  UNL1        0.0000
     25 C          -8.5617  -15.9650   21.9199 C.3     1  UNL1        0.0000
     26 O          -7.6853  -17.1083   21.5017 O.3     1  UNL1        0.0000
     27 C          -7.3033  -18.1635   22.4969 C.3     1  UNL1        0.0000
     28 C          -6.1750  -19.1050   22.1961 C.3     1  UNL1        0.0000
     29 C          -6.4631  -20.4660   21.6349 C.3     1  UNL1        0.0000
     30 C          -5.8490  -20.8855   20.3323 C.3     1  UNL1        0.0000
     31 C          -4.3568  -20.9329   20.1874 C.3     1  UNL1        0.0000
     32 C          -3.6614  -19.9718   19.2695 C.3     1  UNL1        0.0000
     33 C          -4.0224  -18.5161   19.2947 C.3     1  UNL1        0.0000
     34 C          -3.1732  -17.5200   18.5621 C.3     1  UNL1        0.0000
     35 C          -1.6855  -17.5176   18.7541 C.3     1  UNL1        0.0000
     36 C          -1.1034  -17.2025   20.1001 C.3     1  UNL1        0.0000
     37 C          -0.6982  -18.3149   21.0211 C.3     1  UNL1        0.0000
     38 C          -1.7323  -19.0146   21.8525 C.3     1  UNL1        0.0000
     39 C          -2.5400  -18.2411   22.8521 C.1     1  UNL1        0.0000
     40 C          -3.3477  -17.4674   23.8517 C.1     1  UNL1        0.0000
     41 SI         -4.1554  -16.6938   24.8513 Si      1  UNL1        0.0000
     42 C          -4.6630  -15.8059   23.7539 C.3     1  UNL1        0.0000
     43 C          -3.6478  -17.5817   25.9486 C.3     1  UNL1        0.0000
     44 C          -4.9630  -15.9201   25.8508 C.3     1  UNL1        0.0000
@<TRIPOS>BOND
     1     9     8    1
     2     9    10    1
     3    10    11    1
     4    11    12   ar
     5    12    13   ar
     6    13    14   ar
     7    14    15   ar
     8    15    16    1
     9    15    17   ar
    10    17    18   ar
    11    18    19   ar
    12    19    20   ar
    13     9     7    1
    14     7     6    1
    15     6     2    1
    16     2     3    2
    17     2     4    1
    18     2     1    1
    19     1    23    1
    20    23    24    1
    21    24    25    1
    22    25    26    1
    23    26    27    1
    24    27    28    1
    25    28    29    1
    26    29    30    1
    27    30    31    1
    28    31    32    1
    29    32    33    1
    30    33    34    1
    31    34    35    1
    32    35    36    1
    33    36    37    1
    34    37    38    1
    35    38    39    1
    36    39    40    3
    37    40    41    1
    38    41    42    1
    39    41    43    1
    40    41    44    1
    41    20    11   ar
    42    20    14   ar
    43    16    21    1
    44    16    22    1
    45     4     5    1
@<TRIPOS>MOLECULE
*****
 44 45 0 0 0
SMALL
GASTEIGER

@<TRIPOS>ATOM
      1 O          -7.9347  -15.4156   25.4477 O.3     1  UNL1        0.0000
      2 P          -8.4252  -16.2861   26.5665 P.3     1  UNL1        0.0000
      3 O          -7.6839  -15.4346   27.5541 O.2     1  UNL1        0.0000
      4 O          -8.9157  -17.1566   27.6852 O.3     1  UNL1        0.0000
      5 H          -8.5694  -16.8251   28.5285 H       1  UNL1        0.0000
      6 C          -9.1665  -17.1376   25.5789 C.3     1  UNL1        0.0000
      7 O          -9.4864  -18.5650   25.9106 O.3     1  UNL1        0.0000
      8 C          -9.5495  -20.5935   24.2885 C.3     1  UNL1        0.0000
      9 C         -10.2285  -19.4163   24.9234 C.3     1  UNL1        0.0000
     10 C         -11.6498  -19.0903   24.5710 C.3     1  UNL1        0.0000
     11 N         -11.9447  -18.1046   23.4795 N.ar    1  UNL1        0.0000
     12 C         -12.6167  -16.7745   23.6507 C.ar    1  UNL1        0.0000
     13 N         -12.7066  -16.1238   22.3022 N.ar    1  UNL1        0.0000
     14 C         -12.0903  -17.0517   21.2976 C.ar    1  UNL1        0.0000
     15 C         -11.8970  -16.9400   19.8144 C.ar    1  UNL1        0.0000
     16 N         -12.3680  -15.7158   19.0867 N.pl3   1  UNL1        0.0000
     17 N         -11.2328  -18.0526   19.0588 N.ar    1  UNL1        0.0000
     18 C         -10.7619  -19.2768   19.7864 C.ar    1  UNL1        0.0000
     19 N         -10.9551  -19.3885   21.2697 N.ar    1  UNL1        0.0000
     20 C         -11.6193  -18.2759   22.0253 C.ar    1  UNL1        0.0000
     21 H         -12.8039  -14.9856   19.5827 H       1  UNL1        0.0000
     22 H         -12.2411  -15.6425   18.1132 H       1  UNL1        0.0000
     23 C          -6.4975  -15.4789   25.0229 C.3     1  UNL1        0.0000
     24 C          -6.1165  -15.1378   23.6128 C.3     1  UNL1        0.0000
     25 C          -7.1605  -14.6564   22.6494 C.3     1  UNL1        0.0000
     26 O          -7.7158  -15.5914   21.6163 O.3     1  UNL1        0.0000
     27 C          -8.5312  -16.7774   22.0389 C.3     1  UNL1        0.0000
     28 C          -7.9549  -18.1585   21.9373 C.3     1  UNL1        0.0000
     29 C          -6.8465  -18.5782   22.8568 C.3     1  UNL1        0.0000
     30 C          -5.4185  -18.3218   22.4759 C.3     1  UNL1        0.0000
     31 C          -4.3471  -19.2867   22.8894 C.3     1  UNL1        0.0000
     32 C          -2.9370  -19.0892   22.4175 C.3     1  UNL1        0.0000
     33 C          -2.1808  -17.8546   22.8098 C.3     1  UNL1        0.0000
     34 C          -2.4301  -16.5622   22.0904 C.3     1  UNL1        0.0000
     35 C          -1.4573  -16.0802   21.0554 C.3     1  UNL1        0.0000
     36 C          -0.3334  -16.9686   20.6110 C.3     1  UNL1        0.0000
     37 C          -0.5000  -17.8409   19.4021 C.3     1  UNL1        0.0000
     38 C          -1.7533  -17.7553   18.5825 C.3     1  UNL1        0.0000
     39 C          -2.9458  -18.5894   18.9460 C.1     1  UNL1        0.0000
     40 C          -4.1383  -19.4236   19.3096 C.1     1  UNL1        0.0000
     41 SI         -5.3308  -20.2578   19.6731 Si      1  UNL1        0.0000
     42 C          -4.4263  -21.4108   19.9940 C.3     1  UNL1        0.0000
     43 C          -6.2351  -19.1049   19.3522 C.3     1  UNL1        0.0000
     44 C          -6.5231  -21.0921   20.0366 C.3     1  UNL1        0.0000
@<TRIPOS>BOND
     1     9     8    1
     2     9    10    1
     3    10    11    1
     4    11    12   ar
     5    12    13   ar
     6    13    14   ar
     7    14    15   ar
     8    15    16    1
     9    15    17   ar
    10    17    18   ar
    11    18    19   ar
    12    19    20   ar
    13     9     7    1
    14     7     6    1
    15     6     2    1
    16     2     3    2
    17     2     4    1
    18     2     1    1
    19     1    23    1
    20    23    24    1
    21    24    25    1
    22    25    26    1
    23    26    27    1
    24    27    28    1
    25    28    29    1
    26    29    30    1
    27    30    31    1
    28    31    32    1
    29    32    33    1
    30    33    34    1
    31    34    35    1
    32    35    36    1
    33    36    37    1
    34    37    38    1
    35    38    39    1
    36    39    40    3
    37    40    41    1
    38    41    42    1
    39    41    43    1
    40    41    44    1
    41    20    11   ar
    42    20    14   ar
    43    16    21    1
    44    16    22    1
    45     4     5    1
@<TRIPOS>MOLECULE
*****
 44 45 0 0 0
SMALL
GASTEIGER

@<TRIPOS>ATOM
      1 O           7.6843   -4.4280   29.8767 O.3     1  UNL1        0.0000
      2 P           7.0554   -4.7581   31.1979 P.3     1  UNL1        0.0000
      3 O           7.6754   -6.1231   31.1520 O.2     1  UNL1        0.0000
      4 O           6.4265   -5.0881   32.5190 O.3     1  UNL1        0.0000
      5 H           6.6689   -5.9915   32.7759 H       1  UNL1        0.0000
      6 C           6.4354   -3.3930   31.2437 C.3     1  UNL1        0.0000
      7 O           5.5138   -3.0252   32.3686 O.3     1  UNL1        0.0000
      8 C           4.3146   -1.1700   33.7362 C.3     1  UNL1        0.0000
      9 C           4.9724   -1.6299   32.4690 C.3     1  UNL1        0.0000
     10 C           5.0890   -0.6943   31.3022 C.3     1  UNL1        0.0000
     11 N           4.0091   -0.6547   30.2619 N.ar    1  UNL1        0.0000
     12 C           4.0520   -1.3247   28.9205 C.ar    1  UNL1        0.0000
     13 N           2.7661   -1.0221   28.2100 N.ar    1  UNL1        0.0000
     14 C           1.9284   -0.1651   29.1122 C.ar    1  UNL1        0.0000
     15 C           0.5654    0.4377   28.9429 C.ar    1  UNL1        0.0000
     16 N          -0.2028    0.2107   27.6747 N.pl3   1  UNL1        0.0000
     17 N          -0.0293    1.2677   30.0416 N.ar    1  UNL1        0.0000
     18 C           0.7389    1.4948   31.3098 C.ar    1  UNL1        0.0000
     19 N           2.1019    0.8919   31.4792 N.ar    1  UNL1        0.0000
     20 C           2.6967    0.0619   30.3804 C.ar    1  UNL1        0.0000
     21 H           0.1876   -0.3341   26.9535 H       1  UNL1        0.0000
     22 H          -1.0974    0.6064   27.5635 H       1  UNL1        0.0000
     23 C           6.8231   -4.2288   28.6649 C.3     1  UNL1        0.0000
     24 C           6.3862   -5.4116   27.8525 C.3     1  UNL1        0.0000
     25 C           7.3690   -6.4931   27.5139 C.3     1  UNL1        0.0000
     26 O           7.8346   -6.6671   26.0987 O.3     1  UNL1        0.0000
     27 C           8.2543   -5.4723   25.2948 C.3     1  UNL1        0.0000
     28 C           7.4157   -5.0138   24.1388 C.3     1  UNL1        0.0000
     29 C           6.4469   -3.8824   24.3170 C.3     1  UNL1        0.0000
     30 C           6.4773   -2.7139   23.3770 C.3     1  UNL1        0.0000
     31 C           5.5172   -2.6519   22.2262 C.3     1  UNL1        0.0000
     32 C           4.4885   -3.7291   22.0487 C.3     1  UNL1        0.0000
     33 C           4.3567   -4.4301   20.7292 C.3     1  UNL1        0.0000
     34 C           5.2407   -4.0410   19.5816 C.3     1  UNL1        0.0000
     35 C           4.6972   -3.1925   18.4704 C.3     1  UNL1        0.0000
     36 C           4.8033   -1.6982   18.5470 C.3     1  UNL1        0.0000
     37 C           3.5814   -0.8728   18.8217 C.3     1  UNL1        0.0000
     38 C           2.5664   -1.3447   19.8203 C.3     1  UNL1        0.0000
     39 C           2.5239   -0.7370   21.1910 C.1     1  UNL1        0.0000
     40 C           2.4815   -0.1293   22.5618 C.1     1  UNL1        0.0000
     41 SI          2.4390    0.4785   23.9325 Si      1  UNL1        0.0000
     42 C           1.5805    1.5930   23.4117 C.3     1  UNL1        0.0000
     43 C           3.2974   -0.6359   24.4532 C.3     1  UNL1        0.0000
     44 C           2.3965    1.0863   25.3031 C.3     1  UNL1        0.0000
@<TRIPOS>BOND
     1     9     8    1
     2     9    10    1
     3    10    11    1
     4    11    12   ar
     5    12    13   ar
     6    13    14   ar
     7    14    15   ar
     8    15    16    1
     9    15    17   ar
    10    17    18   ar
    11    18    19   ar
    12    19    20   ar
    13     9     7    1
    14     7     6    1
    15     6     2    1
    16     2     3    2
    17     2     4    1
    18     2     1    1
    19     1    23    1
    20    23    24    1
    21    24    25    1
    22    25    26    1
    23    26    27    1
    24    27    28    1
    25    28    29    1
    26    29    30    1
    27    30    31    1
    28    31    32    1
    29    32    33    1
    30    33    34    1
    31    34    35    1
    32    35    36    1
    33    36    37    1
    34    37    38    1
    35    38    39    1
    36    39    40    3
    37    40    41    1
    38    41    42    1
    39    41    43    1
    40    41    44    1
    41    20    11   ar
    42    20    14   ar
    43    16    21    1
    44    16    22    1
    45     4     5    1
@<TRIPOS>MOLECULE
*****
 44 45 0 0 0
SMALL
GASTEIGER

@<TRIPOS>ATOM
      1 O           7.4715   -4.4988   29.6789 O.3     1  UNL1        0.0000
      2 P           6.9976   -4.7551   31.0788 P.3     1  UNL1        0.0000
      3 O           6.9631   -6.2280   30.7975 O.2     1  UNL1        0.0000
      4 O           6.5238   -5.0113   32.4787 O.3     1  UNL1        0.0000
      5 H           6.4006   -5.9646   32.6090 H       1  UNL1        0.0000
      6 C           7.0321   -3.2821   31.3601 C.3     1  UNL1        0.0000
      7 O           6.5393   -2.7581   32.6764 O.3     1  UNL1        0.0000
      8 C           4.1320   -2.4889   33.6158 C.3     1  UNL1        0.0000
      9 C           5.2492   -1.9959   32.7447 C.3     1  UNL1        0.0000
     10 C           5.0764   -0.7405   31.9419 C.3     1  UNL1        0.0000
     11 N           4.3698   -0.7873   30.6196 N.ar    1  UNL1        0.0000
     12 C           2.8840   -0.7829   30.4132 C.ar    1  UNL1        0.0000
     13 N           2.6210   -0.8395   28.9375 N.ar    1  UNL1        0.0000
     14 C           3.9441   -0.8790   28.2319 C.ar    1  UNL1        0.0000
     15 C           4.3043   -0.9401   26.7771 C.ar    1  UNL1        0.0000
     16 N           3.2235   -0.9724   25.7375 N.pl3   1  UNL1        0.0000
     17 N           5.7454   -0.9690   26.3619 N.ar    1  UNL1        0.0000
     18 C           6.8262   -0.9367   27.4015 C.ar    1  UNL1        0.0000
     19 N           6.4660   -0.8756   28.8563 N.ar    1  UNL1        0.0000
     20 C           5.0249   -0.8467   29.2715 C.ar    1  UNL1        0.0000
     21 H           2.2776   -0.9535   26.0101 H       1  UNL1        0.0000
     22 H           3.4599   -1.0125   24.7827 H       1  UNL1        0.0000
     23 C           6.4985   -4.5415   28.5381 C.3     1  UNL1        0.0000
     24 C           6.5995   -5.6255   27.5063 C.3     1  UNL1        0.0000
     25 C           7.9104   -6.3146   27.2683 C.3     1  UNL1        0.0000
     26 O           8.6384   -6.1147   25.9722 O.3     1  UNL1        0.0000
     27 C           9.2632   -4.7873   25.6599 C.3     1  UNL1        0.0000
     28 C           8.6042   -3.8594   24.6828 C.3     1  UNL1        0.0000
     29 C           7.4478   -4.3386   23.8562 C.3     1  UNL1        0.0000
     30 C           6.0582   -3.8658   24.1652 C.3     1  UNL1        0.0000
     31 C           5.1736   -3.3650   23.0622 C.3     1  UNL1        0.0000
     32 C           5.0687   -1.8928   22.7949 C.3     1  UNL1        0.0000
     33 C           5.8067   -1.2860   21.6386 C.3     1  UNL1        0.0000
     34 C           7.1266   -1.8551   21.2095 C.3     1  UNL1        0.0000
     35 C           7.1730   -2.9626   20.1990 C.3     1  UNL1        0.0000
     36 C           6.0601   -3.1185   19.2054 C.3     1  UNL1        0.0000
     37 C           5.0855   -4.2504   19.3424 C.3     1  UNL1        0.0000
     38 C           3.6129   -3.9699   19.3951 C.3     1  UNL1        0.0000
     39 C           3.1232   -2.5635   19.5738 C.1     1  UNL1        0.0000
     40 C           2.6334   -1.1569   19.7527 C.1     1  UNL1        0.0000
     41 SI          2.1436    0.2495   19.9315 Si      1  UNL1        0.0000
     42 C           0.7924   -0.2709   20.3236 C.3     1  UNL1        0.0000
     43 C           3.4947    0.7699   19.5394 C.3     1  UNL1        0.0000
     44 C           1.6538    1.6559   20.1103 C.3     1  UNL1        0.0000
@<TRIPOS>BOND
     1     9     8    1
     2     9    10    1
     3    10    11    1
     4    11    12   ar
     5    12    13   ar
     6    13    14   ar
     7    14    15   ar
     8    15    16    1
     9    15    17   ar
    10    17    18   ar
    11    18    19   ar
    12    19    20   ar
    13     9     7    1
    14     7     6    1
    15     6     2    1
    16     2     3    2
    17     2     4    1
    18     2     1    1
    19     1    23    1
    20    23    24    1
    21    24    25    1
    22    25    26    1
    23    26    27    1
    24    27    28    1
    25    28    29    1
    26    29    30    1
    27    30    31    1
    28    31    32    1
    29    32    33    1
    30    33    34    1
    31    34    35    1
    32    35    36    1
    33    36    37    1
    34    37    38    1
    35    38    39    1
    36    39    40    3
    37    40    41    1
    38    41    42    1
    39    41    43    1
    40    41    44    1
    41    20    11   ar
    42    20    14   ar
    43    16    21    1
    44    16    22    1
    45     4     5    1
@<TRIPOS>MOLECULE
*****
 44 45 0 0 0
SMALL
GASTEIGER

@<TRIPOS>ATOM
      1 O           7.4815   -7.3190   26.3057 O.3     1  UNL1        0.0000
      2 P           8.4839   -8.0653   27.1354 P.3     1  UNL1        0.0000
      3 O           9.4655   -6.9452   26.9569 O.2     1  UNL1        0.0000
      4 O           9.4862   -8.8115   27.9651 O.3     1  UNL1        0.0000
      5 H          10.3008   -8.2895   28.0351 H       1  UNL1        0.0000
      6 C           7.5022   -9.1853   27.3139 C.3     1  UNL1        0.0000
      7 O           7.9620  -10.5065   27.8551 O.3     1  UNL1        0.0000
      8 C           7.3981  -12.8715   28.7710 C.3     1  UNL1        0.0000
      9 C           6.9722  -11.6113   28.0779 C.3     1  UNL1        0.0000
     10 C           5.5563  -11.4559   27.6075 C.3     1  UNL1        0.0000
     11 N           4.6617  -12.6561   27.5120 N.ar    1  UNL1        0.0000
     12 C           4.7679  -13.7565   26.4981 C.ar    1  UNL1        0.0000
     13 N           3.6756  -14.7471   26.7731 N.ar    1  UNL1        0.0000
     14 C           2.8944  -14.2590   27.9569 C.ar    1  UNL1        0.0000
     15 C           1.7068  -14.8243   28.6781 C.ar    1  UNL1        0.0000
     16 N           1.0974  -16.1166   28.2214 N.pl3   1  UNL1        0.0000
     17 N           1.1286  -14.0973   29.8558 N.ar    1  UNL1        0.0000
     18 C           1.7380  -12.8049   30.3124 C.ar    1  UNL1        0.0000
     19 N           2.9256  -12.2396   29.5913 N.ar    1  UNL1        0.0000
     20 C           3.5038  -12.9667   28.4136 C.ar    1  UNL1        0.0000
     21 H           1.4769  -16.5938   27.4484 H       1  UNL1        0.0000
     22 H           0.3179  -16.4877   28.6948 H       1  UNL1        0.0000
     23 C           7.8130   -5.9556   25.7755 C.3     1  UNL1        0.0000
     24 C           7.6780   -5.6677   24.3096 C.3     1  UNL1        0.0000
     25 C           6.9974   -4.4120   23.8514 C.3     1  UNL1        0.0000
     26 O           6.5576   -3.3882   24.8556 O.3     1  UNL1        0.0000
     27 C           6.0512   -2.0539   24.3938 C.3     1  UNL1        0.0000
     28 C           6.7311   -1.3451   23.2602 C.3     1  UNL1        0.0000
     29 C           6.1931   -0.0357   22.7639 C.3     1  UNL1        0.0000
     30 C           6.5904    0.4737   21.4101 C.3     1  UNL1        0.0000
     31 C           5.5387    0.9224   20.4392 C.3     1  UNL1        0.0000
     32 C           5.5911    0.4640   19.0119 C.3     1  UNL1        0.0000
     33 C           4.3362    0.0206   18.3202 C.3     1  UNL1        0.0000
     34 C           4.2333   -1.3725   17.7736 C.3     1  UNL1        0.0000
     35 C           5.4112   -2.2978   17.8519 C.3     1  UNL1        0.0000
     36 C           5.3800   -3.4748   18.7813 C.3     1  UNL1        0.0000
     37 C           5.6371   -3.2806   20.2462 C.3     1  UNL1        0.0000
     38 C           4.4961   -3.3166   21.2192 C.3     1  UNL1        0.0000
     39 C           3.5548   -2.1526   21.3146 C.1     1  UNL1        0.0000
     40 C           2.6135   -0.9885   21.4100 C.1     1  UNL1        0.0000
     41 SI          1.6722    0.1755   21.5054 Si      1  UNL1        0.0000
     42 C           0.9158   -0.3387   20.3164 C.3     1  UNL1        0.0000
     43 C           2.4286    0.6896   22.6944 C.3     1  UNL1        0.0000
     44 C           0.7310    1.3394   21.6008 C.3     1  UNL1        0.0000
@<TRIPOS>BOND
     1     9     8    1
     2     9    10    1
     3    10    11    1
     4    11    12   ar
     5    12    13   ar
     6    13    14   ar
     7    14    15   ar
     8    15    16    1
     9    15    17   ar
    10    17    18   ar
    11    18    19   ar
    12    19    20   ar
    13     9     7    1
    14     7     6    1
    15     6     2    1
    16     2     3    2
    17     2     4    1
    18     2     1    1
    19     1    23    1
    20    23    24    1
    21    24    25    1
    22    25    26    1
    23    26    27    1
    24    27    28    1
    25    28    29    1
    26    29    30    1
    27    30    31    1
    28    31    32    1
    29    32    33    1
    30    33    34    1
    31    34    35    1
    32    35    36    1
    33    36    37    1
    34    37    38    1
    35    38    39    1
    36    39    40    3
    37    40    41    1
    38    41    42    1
    39    41    43    1
    40    41    44    1
    41    20    11   ar
    42    20    14   ar
    43    16    21    1
    44    16    22    1
    45     4     5    1
@<TRIPOS>MOLECULE
*****
 44 45 0 0 0
SMALL
GASTEIGER

@<TRIPOS>ATOM
      1 O           1.6924    1.3873   28.6690 O.3     1  UNL1        0.0000
      2 P           0.4339    0.6616   29.0425 P.3     1  UNL1        0.0000
      3 O           1.2270   -0.2632   29.9176 O.2     1  UNL1        0.0000
      4 O          -0.8245   -0.0642   29.4160 O.3     1  UNL1        0.0000
      5 H          -0.6123   -0.7845   30.0300 H       1  UNL1        0.0000
      6 C          -0.3591    1.5864   28.1674 C.3     1  UNL1        0.0000
      7 O          -0.7098    1.1775   26.7675 O.3     1  UNL1        0.0000
      8 C           0.1946    1.8097   24.4154 C.3     1  UNL1        0.0000
      9 C          -0.5878    2.1649   25.6449 C.3     1  UNL1        0.0000
     10 C          -1.2482    3.5075   25.7518 C.3     1  UNL1        0.0000
     11 N          -2.7242    3.6380   25.5189 N.ar    1  UNL1        0.0000
     12 C          -3.7759    3.7714   26.5801 C.ar    1  UNL1        0.0000
     13 N          -5.1094    3.8738   25.9009 N.ar    1  UNL1        0.0000
     14 C          -4.8819    3.8037   24.4199 C.ar    1  UNL1        0.0000
     15 C          -5.8265    3.8537   23.2559 C.ar    1  UNL1        0.0000
     16 N          -7.3007    3.9994   23.4920 N.pl3   1  UNL1        0.0000
     17 N          -5.2971    3.7579   21.8557 N.ar    1  UNL1        0.0000
     18 C          -3.8230    3.6122   21.6196 C.ar    1  UNL1        0.0000
     19 N          -2.8783    3.5622   22.7837 N.ar    1  UNL1        0.0000
     20 C          -3.4078    3.6579   24.1838 C.ar    1  UNL1        0.0000
     21 H          -7.6481    4.0623   24.4110 H       1  UNL1        0.0000
     22 H          -7.9207    4.0323   22.7280 H       1  UNL1        0.0000
     23 C           2.8040    0.6546   27.9781 C.3     1  UNL1        0.0000
     24 C           2.9429    0.7361   26.4868 C.3     1  UNL1        0.0000
     25 C           4.3025    0.6772   25.8560 C.3     1  UNL1        0.0000
     26 O           4.7606    1.7866   24.9563 O.3     1  UNL1        0.0000
     27 C           4.8493    1.5634   23.4757 C.3     1  UNL1        0.0000
     28 C           3.6095    1.2614   22.6871 C.3     1  UNL1        0.0000
     29 C           3.4574   -0.0678   22.0086 C.3     1  UNL1        0.0000
     30 C           3.3503   -1.3199   22.8274 C.3     1  UNL1        0.0000
     31 C           4.5685   -2.1580   23.0794 C.3     1  UNL1        0.0000
     32 C           4.6160   -3.5769   22.5953 C.3     1  UNL1        0.0000
     33 C           4.9791   -3.8714   21.1700 C.3     1  UNL1        0.0000
     34 C           3.9079   -3.9417   20.1224 C.3     1  UNL1        0.0000
     35 C           3.6647   -2.7697   19.2185 C.3     1  UNL1        0.0000
     36 C           4.8248   -2.0231   18.6297 C.3     1  UNL1        0.0000
     37 C           4.6178   -1.1324   17.4407 C.3     1  UNL1        0.0000
     38 C           4.3886    0.3372   17.6354 C.3     1  UNL1        0.0000
     39 C           3.1648    0.8162   18.3583 C.1     1  UNL1        0.0000
     40 C           1.9408    1.2951   19.0813 C.1     1  UNL1        0.0000
     41 SI          0.7169    1.7741   19.8042 Si      1  UNL1        0.0000
     42 C           0.3548    0.3555   20.1309 C.3     1  UNL1        0.0000
     43 C           1.0790    3.1926   19.4775 C.3     1  UNL1        0.0000
     44 C          -0.5070    2.2529   20.5272 C.3     1  UNL1        0.0000
@<TRIPOS>BOND
     1     9     8    1
     2     9    10    1
     3    10    11    1
     4    11    12   ar
     5    12    13   ar
     6    13    14   ar
     7    14    15   ar
     8    15    16    1
     9    15    17   ar
    10    17    18   ar
    11    18    19   ar
    12    19    20   ar
    13     9     7    1
    14     7     6    1
    15     6     2    1
    16     2     3    2
    17     2     4    1
    18     2     1    1
    19     1    23    1
    20    23    24    1
    21    24    25    1
    22    25    26    1
    23    26    27    1
    24    27    28    1
    25    28    29    1
    26    29    30    1
    27    30    31    1
    28    31    32    1
    29    32    33    1
    30    33    34    1
    31    34    35    1
    32    35    36    1
    33    36    37    1
    34    37    38    1
    35    38    39    1
    36    39    40    3
    37    40    41    1
    38    41    42    1
    39    41    43    1
    40    41    44    1
    41    20    11   ar
    42    20    14   ar
    43    16    21    1
    44    16    22    1
    45     4     5    1
@<TRIPOS>MOLECULE
*****
 44 45 0 0 0
SMALL
GASTEIGER

@<TRIPOS>ATOM
      1 O           6.2568   -1.5893   31.9677 O.3     1  UNL1        0.0000
      2 P           5.0995   -2.3111   32.5919 P.3     1  UNL1        0.0000
      3 O           5.8771   -3.5931   32.5512 O.2     1  UNL1        0.0000
      4 O           3.9421   -3.0329   33.2160 O.3     1  UNL1        0.0000
      5 H           4.1668   -3.9702   33.3257 H       1  UNL1        0.0000
      6 C           4.3218   -1.0291   32.6326 C.3     1  UNL1        0.0000
      7 O           2.9288   -0.9789   32.0786 O.3     1  UNL1        0.0000
      8 C           2.6208    1.4713   31.2714 C.3     1  UNL1        0.0000
      9 C           2.5884   -0.0021   30.9923 C.3     1  UNL1        0.0000
     10 C           2.2155   -0.4988   29.6268 C.3     1  UNL1        0.0000
     11 N           1.0807    0.1383   28.8810 N.ar    1  UNL1        0.0000
     12 C          -0.3716   -0.2101   29.0200 C.ar    1  UNL1        0.0000
     13 N          -1.1509    0.6720   28.0901 N.ar    1  UNL1        0.0000
     14 C          -0.1801    1.5655   27.3764 C.ar    1  UNL1        0.0000
     15 C          -0.3739    2.6368   26.3446 C.ar    1  UNL1        0.0000
     16 N          -1.7532    2.9667   25.8558 N.pl3   1  UNL1        0.0000
     17 N           0.8115    3.3783   25.8016 N.ar    1  UNL1        0.0000
     18 C           2.1907    3.0484   26.2904 C.ar    1  UNL1        0.0000
     19 N           2.3845    1.9771   27.3222 N.ar    1  UNL1        0.0000
     20 C           1.1991    1.2356   27.8652 C.ar    1  UNL1        0.0000
     21 H          -2.5312    2.4800   26.2122 H       1  UNL1        0.0000
     22 H          -1.8803    3.6699   25.1786 H       1  UNL1        0.0000
     23 C           6.6537   -1.8904   30.5530 C.3     1  UNL1        0.0000
     24 C           5.8837   -1.2906   29.4140 C.3     1  UNL1        0.0000
     25 C           5.5541   -2.1232   28.2106 C.3     1  UNL1        0.0000
     26 O           4.1784   -2.0693   27.6153 O.3     1  UNL1        0.0000
     27 C           3.9295   -1.2658   26.3734 C.3     1  UNL1        0.0000
     28 C           4.5712   -1.6680   25.0786 C.3     1  UNL1        0.0000
     29 C           3.9119   -1.3237   23.7760 C.3     1  UNL1        0.0000
     30 C           4.1657   -2.1662   22.5612 C.3     1  UNL1        0.0000
     31 C           4.7306   -3.5476   22.7111 C.3     1  UNL1        0.0000
     32 C           6.1223   -3.8445   22.2368 C.3     1  UNL1        0.0000
     33 C           6.9477   -2.7609   21.6088 C.3     1  UNL1        0.0000
     34 C           7.3192   -2.8464   20.1581 C.3     1  UNL1        0.0000
     35 C           6.4930   -2.1335   19.1290 C.3     1  UNL1        0.0000
     36 C           5.6520   -2.9189   18.1668 C.3     1  UNL1        0.0000
     37 C           4.8450   -4.0852   18.6551 C.3     1  UNL1        0.0000
     38 C           3.4630   -3.8672   19.1958 C.3     1  UNL1        0.0000
     39 C           2.9990   -2.4809   19.5316 C.1     1  UNL1        0.0000
     40 C           2.5350   -1.0944   19.8673 C.1     1  UNL1        0.0000
     41 SI          2.0711    0.2919   20.2030 Si      1  UNL1        0.0000
     42 C           0.6581   -0.2032   20.2949 C.3     1  UNL1        0.0000
     43 C           3.4840    0.7870   20.1111 C.3     1  UNL1        0.0000
     44 C           1.6071    1.6783   20.5387 C.3     1  UNL1        0.0000
@<TRIPOS>BOND
     1     9     8    1
     2     9    10    1
     3    10    11    1
     4    11    12   ar
     5    12    13   ar
     6    13    14   ar
     7    14    15   ar
     8    15    16    1
     9    15    17   ar
    10    17    18   ar
    11    18    19   ar
    12    19    20   ar
    13     9     7    1
    14     7     6    1
    15     6     2    1
    16     2     3    2
    17     2     4    1
    18     2     1    1
    19     1    23    1
    20    23    24    1
    21    24    25    1
    22    25    26    1
    23    26    27    1
    24    27    28    1
    25    28    29    1
    26    29    30    1
    27    30    31    1
    28    31    32    1
    29    32    33    1
    30    33    34    1
    31    34    35    1
    32    35    36    1
    33    36    37    1
    34    37    38    1
    35    38    39    1
    36    39    40    3
    37    40    41    1
    38    41    42    1
    39    41    43    1
    40    41    44    1
    41    20    11   ar
    42    20    14   ar
    43    16    21    1
    44    16    22    1
    45     4     5    1
@<TRIPOS>MOLECULE
*****
 44 45 0 0 0
SMALL
GASTEIGER

@<TRIPOS>ATOM
      1 O           7.3746   -4.2289   29.8306 O.3     1  UNL1        0.0000
      2 P           6.9559   -4.7833   31.1601 P.3     1  UNL1        0.0000
      3 O           6.8631   -6.1545   30.5591 O.2     1  UNL1        0.0000
      4 O           6.5373   -5.3376   32.4895 O.3     1  UNL1        0.0000
      5 H           6.3905   -6.2931   32.4097 H       1  UNL1        0.0000
      6 C           7.0488   -3.4121   31.7611 C.3     1  UNL1        0.0000
      7 O           6.0958   -3.0019   32.8444 O.3     1  UNL1        0.0000
      8 C           4.3108   -1.3536   33.7646 C.3     1  UNL1        0.0000
      9 C           5.2964   -1.7407   32.7022 C.3     1  UNL1        0.0000
     10 C           5.4826   -0.8665   31.4975 C.3     1  UNL1        0.0000
     11 N           4.4099   -0.7925   30.4515 N.ar    1  UNL1        0.0000
     12 C           4.4299   -1.4789   29.1180 C.ar    1  UNL1        0.0000
     13 N           3.1613   -1.1297   28.3979 N.ar    1  UNL1        0.0000
     14 C           2.3572   -0.2274   29.2863 C.ar    1  UNL1        0.0000
     15 C           1.0221    0.4314   29.1036 C.ar    1  UNL1        0.0000
     16 N           0.2504    0.2229   27.8343 N.pl3   1  UNL1        0.0000
     17 N           0.4587    1.2986   30.1901 N.ar    1  UNL1        0.0000
     18 C           1.2304    1.5070   31.4593 C.ar    1  UNL1        0.0000
     19 N           2.5656    0.8482   31.6421 N.ar    1  UNL1        0.0000
     20 C           3.1290   -0.0189   30.5556 C.ar    1  UNL1        0.0000
     21 H           0.6202   -0.3462   27.1212 H       1  UNL1        0.0000
     22 H          -0.6259    0.6553   27.7144 H       1  UNL1        0.0000
     23 C           6.5363   -4.4854   28.6135 C.3     1  UNL1        0.0000
     24 C           7.1858   -4.9219   27.3338 C.3     1  UNL1        0.0000
     25 C           6.8945   -6.2812   26.7706 C.3     1  UNL1        0.0000
     26 O           7.9970   -7.0889   26.1523 O.3     1  UNL1        0.0000
     27 C           8.0168   -7.3205   24.6705 C.3     1  UNL1        0.0000
     28 C           8.6162   -6.2915   23.7584 C.3     1  UNL1        0.0000
     29 C           7.7904   -5.1282   23.2947 C.3     1  UNL1        0.0000
     30 C           7.8926   -4.6543   21.8752 C.3     1  UNL1        0.0000
     31 C           8.0309   -3.1899   21.5815 C.3     1  UNL1        0.0000
     32 C           8.0269   -2.7060   20.1617 C.3     1  UNL1        0.0000
     33 C           6.9658   -1.7531   19.6971 C.3     1  UNL1        0.0000
     34 C           6.3357   -1.9322   18.3477 C.3     1  UNL1        0.0000
     35 C           5.0110   -2.6249   18.2245 C.3     1  UNL1        0.0000
     36 C           4.8798   -4.0675   18.6142 C.3     1  UNL1        0.0000
     37 C           3.8911   -4.4731   19.6667 C.3     1  UNL1        0.0000
     38 C           4.3066   -4.5215   21.1072 C.3     1  UNL1        0.0000
     39 C           4.3555   -3.2596   21.9166 C.1     1  UNL1        0.0000
     40 C           4.4044   -1.9976   22.7260 C.1     1  UNL1        0.0000
     41 SI          4.4533   -0.7356   23.5353 Si      1  UNL1        0.0000
     42 C           5.9043   -0.9795   23.8279 C.3     1  UNL1        0.0000
     43 C           3.0025   -0.4918   23.2427 C.3     1  UNL1        0.0000
     44 C           4.5023    0.5263   24.3446 C.3     1  UNL1        0.0000
@<TRIPOS>BOND
     1     9     8    1
     2     9    10    1
     3    10    11    1
     4    11    12   ar
     5    12    13   ar
     6    13    14   ar
     7    14    15   ar
     8    15    16    1
     9    15    17   ar
    10    17    18   ar
    11    18    19   ar
    12    19    20   ar
    13     9     7    1
    14     7     6    1
    15     6     2    1
    16     2     3    2
    17     2     4    1
    18     2     1    1
    19     1    23    1
    20    23    24    1
    21    24    25    1
    22    25    26    1
    23    26    27    1
    24    27    28    1
    25    28    29    1
    26    29    30    1
    27    30    31    1
    28    31    32    1
    29    32    33    1
    30    33    34    1
    31    34    35    1
    32    35    36    1
    33    36    37    1
    34    37    38    1
    35    38    39    1
    36    39    40    3
    37    40    41    1
    38    41    42    1
    39    41    43    1
    40    41    44    1
    41    20    11   ar
    42    20    14   ar
    43    16    21    1
    44    16    22    1
    45     4     5    1
@<TRIPOS>MOLECULE
*****
 44 45 0 0 0
SMALL
GASTEIGER

@<TRIPOS>ATOM
      1 O           7.6640   -4.8314   30.2555 O.3     1  UNL1        0.0000
      2 P           6.8517   -4.8043   31.5162 P.3     1  UNL1        0.0000
      3 O           7.0612   -6.2801   31.6830 O.2     1  UNL1        0.0000
      4 O           6.0395   -4.7771   32.7770 O.3     1  UNL1        0.0000
      5 H           5.9922   -5.6711   33.1504 H       1  UNL1        0.0000
      6 C           6.6422   -3.3284   31.3494 C.3     1  UNL1        0.0000
      7 O           6.5175   -2.7390   29.9758 O.3     1  UNL1        0.0000
      8 C           6.2943   -0.2757   30.7711 C.3     1  UNL1        0.0000
      9 C           5.9459   -1.3635   29.7988 C.3     1  UNL1        0.0000
     10 C           5.0258   -1.0758   28.6495 C.3     1  UNL1        0.0000
     11 N           3.5991   -0.6918   28.9088 N.ar    1  UNL1        0.0000
     12 C           2.8518   -0.8923   30.1938 C.ar    1  UNL1        0.0000
     13 N           1.4602   -0.3642   30.0078 N.ar    1  UNL1        0.0000
     14 C           1.3475    0.1626   28.6079 C.ar    1  UNL1        0.0000
     15 C           0.2119    0.8005   27.8639 C.ar    1  UNL1        0.0000
     16 N          -1.1101    1.0030   28.5432 N.pl3   1  UNL1        0.0000
     17 N           0.3984    1.2360   26.4407 N.ar    1  UNL1        0.0000
     18 C           1.7204    1.0335   25.7615 C.ar    1  UNL1        0.0000
     19 N           2.8559    0.3956   26.5055 N.ar    1  UNL1        0.0000
     20 C           2.6695   -0.0398   27.9287 C.ar    1  UNL1        0.0000
     21 H          -1.2324    0.7171   29.4773 H       1  UNL1        0.0000
     22 H          -1.8554    1.4216   28.0548 H       1  UNL1        0.0000
     23 C           8.1436   -6.1397   29.7003 C.3     1  UNL1        0.0000
     24 C           7.8844   -6.4851   28.2638 C.3     1  UNL1        0.0000
     25 C           6.8182   -5.7589   27.4984 C.3     1  UNL1        0.0000
     26 O           6.9011   -5.6632   26.0038 O.3     1  UNL1        0.0000
     27 C           6.7341   -4.3352   25.3268 C.3     1  UNL1        0.0000
     28 C           6.8973   -4.2255   23.8398 C.3     1  UNL1        0.0000
     29 C           5.9310   -3.4051   23.0377 C.3     1  UNL1        0.0000
     30 C           5.5777   -3.8171   21.6393 C.3     1  UNL1        0.0000
     31 C           4.1815   -3.6175   21.1287 C.3     1  UNL1        0.0000
     32 C           3.8475   -3.9564   19.7062 C.3     1  UNL1        0.0000
     33 C           4.9256   -3.9612   18.6634 C.3     1  UNL1        0.0000
     34 C           5.3912   -2.6692   18.0601 C.3     1  UNL1        0.0000
     35 C           6.8499   -2.3199   18.0691 C.3     1  UNL1        0.0000
     36 C           7.5649   -2.1188   19.3723 C.3     1  UNL1        0.0000
     37 C           7.6216   -0.7549   19.9940 C.3     1  UNL1        0.0000
     38 C           6.5410   -0.3148   20.9367 C.3     1  UNL1        0.0000
     39 C           5.1487   -0.0864   20.4275 C.1     1  UNL1        0.0000
     40 C           3.7563    0.1422   19.9183 C.1     1  UNL1        0.0000
     41 SI          2.3640    0.3708   19.4092 Si      1  UNL1        0.0000
     42 C           1.8736   -0.7834   20.2323 C.3     1  UNL1        0.0000
     43 C           2.8545    1.5249   18.5861 C.3     1  UNL1        0.0000
     44 C           0.9717    0.5993   18.9001 C.3     1  UNL1        0.0000
@<TRIPOS>BOND
     1     9     8    1
     2     9    10    1
     3    10    11    1
     4    11    12   ar
     5    12    13   ar
     6    13    14   ar
     7    14    15   ar
     8    15    16    1
     9    15    17   ar
    10    17    18   ar
    11    18    19   ar
    12    19    20   ar
    13     9     7    1
    14     7     6    1
    15     6     2    1
    16     2     3    2
    17     2     4    1
    18     2     1    1
    19     1    23    1
    20    23    24    1
    21    24    25    1
    22    25    26    1
    23    26    27    1
    24    27    28    1
    25    28    29    1
    26    29    30    1
    27    30    31    1
    28    31    32    1
    29    32    33    1
    30    33    34    1
    31    34    35    1
    32    35    36    1
    33    36    37    1
    34    37    38    1
    35    38    39    1
    36    39    40    3
    37    40    41    1
    38    41    42    1
    39    41    43    1
    40    41    44    1
    41    20    11   ar
    42    20    14   ar
    43    16    21    1
    44    16    22    1
    45     4     5    1
