@<TRIPOS>MOLECULE
*****
 25 27 0 0 0
SMALL
GASTEIGER

@<TRIPOS>ATOM
      1 N          -4.5183  -17.1298   23.3316 N.ar    1  UNL1       -0.3165
      2 C          -3.2025  -17.8210   23.1294 C.ar    1  UNL1        0.0779
      3 C          -3.4501  -19.0629   22.3254 C.ar    1  UNL1        0.0392
      4 C          -4.9189  -19.1392   22.0308 C.ar    1  UNL1        0.0985
      5 N          -5.7405  -20.1423   21.2767 N.ar    1  UNL1       -0.2423
      6 C          -7.2223  -19.9506   21.1444 C.ar    1  UNL1        0.0989
      7 C          -7.8825  -18.7558   21.7663 C.ar    1  UNL1        0.0206
      8 C          -7.0609  -17.7528   22.5205 C.ar    1  UNL1        0.0203
      9 C          -5.5791  -17.9445   22.6527 C.ar    1  UNL1        0.0782
     10 C          -9.3643  -18.5642   21.6340 C.ar    1  UNL1        0.0015
     11 C          -9.9826  -18.4122   20.2759 C.ar    1  UNL1        0.0023
     12 C         -11.4645  -18.2206   20.1435 C.ar    1  UNL1        0.0295
     13 C         -12.3280  -18.1808   21.3694 C.ar    1  UNL1        0.1414
     14 F         -13.8098  -17.9892   21.2372 F       1  UNL1       -0.2043
     15 C         -11.7096  -18.3328   22.7276 C.ar    1  UNL1        0.0710
     16 C         -10.2278  -18.5244   22.8599 C.ar    1  UNL1        0.0034
     17 C         -12.5731  -18.2930   23.9535 C.3     1  UNL1        0.3432
     18 F         -12.1727  -19.0611   25.1781 F       1  UNL1       -0.1932
     19 F         -13.8370  -17.4852   23.9547 F       1  UNL1       -0.1932
     20 C          -4.7352  -15.8487   24.0812 C.3     1  UNL1        0.1920
     21 C          -7.5760  -15.3709   26.8110 C.3     1  UNL1        0.1150
     22 N          -6.8601  -15.3566   25.4930 N.am    1  UNL1       -0.2744
     23 C          -7.5529  -14.8359   24.2687 C.3     1  UNL1        0.1150
     24 C          -5.4513  -15.8630   25.3993 C.2     1  UNL1        0.2488
     25 O          -4.7584  -16.3837   26.6236 O.2     1  UNL1       -0.2728
@<TRIPOS>BOND
     1    21    22    1
     2    22    23    1
     3    22    24   am
     4    24    25    2
     5    24    20    1
     6    20     1    1
     7     1     2   ar
     8     2     3   ar
     9     3     4   ar
    10     4     5   ar
    11     5     6   ar
    12     6     7   ar
    13     7    10    1
    14    10    11   ar
    15    11    12   ar
    16    12    13   ar
    17    13    14    1
    18    13    15   ar
    19    15    17    1
    20    17    18    1
    21    17    19    1
    22    15    16   ar
    23     7     8   ar
    24     8     9   ar
    25     9     1   ar
    26     9     4   ar
    27    16    10   ar
@<TRIPOS>MOLECULE
*****
 25 27 0 0 0
SMALL
GASTEIGER

@<TRIPOS>ATOM
      1 N          -8.0637  -19.8292   19.7332 N.ar    1  UNL1       -0.3165
      2 C          -9.2130  -20.1337   18.8187 C.ar    1  UNL1        0.0779
      3 C         -10.3794  -19.2921   19.2443 C.ar    1  UNL1        0.0392
      4 C          -9.9509  -18.4674   20.4217 C.ar    1  UNL1        0.0985
      5 N         -10.6791  -17.4571   21.2578 N.ar    1  UNL1       -0.2423
      6 C          -9.9760  -16.7788   22.3959 C.ar    1  UNL1        0.0989
      7 C          -8.5448  -17.1108   22.6981 C.ar    1  UNL1        0.0206
      8 C          -7.8166  -18.1211   21.8621 C.ar    1  UNL1        0.0203
      9 C          -8.5197  -18.7994   20.7239 C.ar    1  UNL1        0.0782
     10 C          -7.8417  -16.4324   23.8364 C.ar    1  UNL1        0.0015
     11 C          -6.4480  -15.9094   23.6522 C.ar    1  UNL1        0.0023
     12 C          -5.7449  -15.2310   24.7904 C.ar    1  UNL1        0.0295
     13 C          -6.4356  -15.0757   26.1128 C.ar    1  UNL1        0.1414
     14 F          -5.7326  -14.3973   27.2511 F       1  UNL1       -0.2043
     15 C          -7.8294  -15.5987   26.2970 C.ar    1  UNL1        0.0710
     16 C          -8.5324  -16.2770   25.1588 C.ar    1  UNL1        0.0034
     17 C          -8.5201  -15.4433   27.6194 C.3     1  UNL1        0.3432
     18 F          -8.9948  -16.6555   28.3646 F       1  UNL1       -0.1932
     19 F          -8.7361  -14.0757   28.1966 F       1  UNL1       -0.1932
     20 C          -6.6980  -20.4462   19.6683 C.3     1  UNL1        0.1920
     21 C          -3.5887  -19.5823   21.9783 C.3     1  UNL1        0.1150
     22 N          -4.4948  -19.6394   20.7844 N.am    1  UNL1       -0.2744
     23 C          -4.1042  -18.9468   19.5125 C.3     1  UNL1        0.1150
     24 C          -5.7917  -20.3891   20.8623 C.2     1  UNL1        0.2488
     25 O          -6.1823  -21.0818   22.1342 O.2     1  UNL1       -0.2728
@<TRIPOS>BOND
     1    21    22    1
     2    22    23    1
     3    22    24   am
     4    24    25    2
     5    24    20    1
     6    20     1    1
     7     1     2   ar
     8     2     3   ar
     9     3     4   ar
    10     4     5   ar
    11     5     6   ar
    12     6     7   ar
    13     7    10    1
    14    10    11   ar
    15    11    12   ar
    16    12    13   ar
    17    13    14    1
    18    13    15   ar
    19    15    17    1
    20    17    18    1
    21    17    19    1
    22    15    16   ar
    23     7     8   ar
    24     8     9   ar
    25     9     1   ar
    26     9     4   ar
    27    16    10   ar
@<TRIPOS>MOLECULE
*****
 25 27 0 0 0
SMALL
GASTEIGER

@<TRIPOS>ATOM
      1 N         -10.3806  -17.3431   22.9056 N.ar    1  UNL1       -0.3165
      2 C         -11.7812  -17.4451   22.3786 C.ar    1  UNL1        0.0779
      3 C         -11.7413  -18.2402   21.1074 C.ar    1  UNL1        0.0392
      4 C         -10.3161  -18.6296   20.8487 C.ar    1  UNL1        0.0985
      5 N          -9.6754  -19.4175   19.7447 N.ar    1  UNL1       -0.2423
      6 C          -8.1937  -19.6509   19.7521 C.ar    1  UNL1        0.0989
      7 C          -7.3527  -19.0964   20.8635 C.ar    1  UNL1        0.0206
      8 C          -7.9934  -18.3086   21.9675 C.ar    1  UNL1        0.0203
      9 C          -9.4750  -18.0752   21.9601 C.ar    1  UNL1        0.0782
     10 C          -5.8709  -19.3298   20.8709 C.ar    1  UNL1        0.0015
     11 C          -5.2931  -20.5049   20.1393 C.ar    1  UNL1        0.0023
     12 C          -3.8114  -20.7383   20.1467 C.ar    1  UNL1        0.0295
     13 C          -2.9075  -19.7966   20.8858 C.ar    1  UNL1        0.1414
     14 F          -1.4258  -20.0300   20.8932 F       1  UNL1       -0.2043
     15 C          -3.4854  -18.6215   21.6174 C.ar    1  UNL1        0.0710
     16 C          -4.9670  -18.3881   21.6099 C.ar    1  UNL1        0.0034
     17 C          -2.5815  -17.6797   22.3564 C.3     1  UNL1        0.3432
     18 F          -1.7821  -18.1708   23.5268 F       1  UNL1       -0.1932
     19 F          -2.4769  -16.2469   21.9249 F       1  UNL1       -0.1932
     20 C          -9.9593  -16.6335   24.1583 C.3     1  UNL1        0.1920
     21 C          -6.5308  -15.1994   25.5506 C.3     1  UNL1        0.1150
     22 N          -7.8556  -15.9006   25.4952 N.am    1  UNL1       -0.2744
     23 C          -8.4016  -16.5702   26.7214 C.3     1  UNL1        0.1150
     24 C          -8.6344  -15.9323   24.2137 C.2     1  UNL1        0.2488
     25 O          -8.0884  -15.2627   22.9875 O.2     1  UNL1       -0.2728
@<TRIPOS>BOND
     1    21    22    1
     2    22    23    1
     3    22    24   am
     4    24    25    2
     5    24    20    1
     6    20     1    1
     7     1     2   ar
     8     2     3   ar
     9     3     4   ar
    10     4     5   ar
    11     5     6   ar
    12     6     7   ar
    13     7    10    1
    14    10    11   ar
    15    11    12   ar
    16    12    13   ar
    17    13    14    1
    18    13    15   ar
    19    15    17    1
    20    17    18    1
    21    17    19    1
    22    15    16   ar
    23     7     8   ar
    24     8     9   ar
    25     9     1   ar
    26     9     4   ar
    27    16    10   ar
@<TRIPOS>MOLECULE
*****
 25 27 0 0 0
SMALL
GASTEIGER

@<TRIPOS>ATOM
      1 N          -3.6309  -18.2624   22.0229 N.ar    1  UNL1       -0.3165
      2 C          -2.6140  -19.0134   21.2156 C.ar    1  UNL1        0.0779
      3 C          -3.3290  -20.0921   20.4573 C.ar    1  UNL1        0.0392
      4 C          -4.7879  -20.0078   20.7960 C.ar    1  UNL1        0.0985
      5 N          -5.9705  -20.8147   20.3483 N.ar    1  UNL1       -0.2423
      6 C          -7.3396  -20.4906   20.8683 C.ar    1  UNL1        0.0989
      7 C          -7.5262  -19.3597   21.8359 C.ar    1  UNL1        0.0206
      8 C          -6.3436  -18.5529   22.2836 C.ar    1  UNL1        0.0203
      9 C          -4.9745  -18.8769   21.7636 C.ar    1  UNL1        0.0782
     10 C          -8.8954  -19.0357   22.3558 C.ar    1  UNL1        0.0015
     11 C          -9.5320  -19.9149   23.3910 C.ar    1  UNL1        0.0023
     12 C         -10.9013  -19.5909   23.9110 C.ar    1  UNL1        0.0295
     13 C         -11.6338  -18.3876   23.3957 C.ar    1  UNL1        0.1414
     14 F         -13.0030  -18.0636   23.9155 F       1  UNL1       -0.2043
     15 C         -10.9971  -17.5084   22.3604 C.ar    1  UNL1        0.0710
     16 C          -9.6280  -17.8325   21.8405 C.ar    1  UNL1        0.0034
     17 C         -11.7297  -16.3051   21.8451 C.3     1  UNL1        0.3432
     18 F         -12.4529  -15.4018   22.7995 F       1  UNL1       -0.1932
     19 F         -11.7390  -16.0053   20.3754 F       1  UNL1       -0.1932
     20 C          -3.3531  -17.1007   22.9303 C.3     1  UNL1        0.1920
     21 C          -5.6214  -16.0021   25.9960 C.3     1  UNL1        0.1150
     22 N          -5.0156  -16.0440   24.6244 N.am    1  UNL1       -0.2744
     23 C          -5.4664  -15.0713   23.5753 C.3     1  UNL1        0.1150
     24 C          -3.9590  -17.0587   24.3019 C.2     1  UNL1        0.2488
     25 O          -3.5082  -18.0314   25.3510 O.2     1  UNL1       -0.2728
@<TRIPOS>BOND
     1    21    22    1
     2    22    23    1
     3    22    24   am
     4    24    25    2
     5    24    20    1
     6    20     1    1
     7     1     2   ar
     8     2     3   ar
     9     3     4   ar
    10     4     5   ar
    11     5     6   ar
    12     6     7   ar
    13     7    10    1
    14    10    11   ar
    15    11    12   ar
    16    12    13   ar
    17    13    14    1
    18    13    15   ar
    19    15    17    1
    20    17    18    1
    21    17    19    1
    22    15    16   ar
    23     7     8   ar
    24     8     9   ar
    25     9     1   ar
    26     9     4   ar
    27    16    10   ar
@<TRIPOS>MOLECULE
*****
 25 27 0 0 0
SMALL
GASTEIGER

@<TRIPOS>ATOM
      1 N          -8.0508  -20.0489   19.5993 N.ar    1  UNL1       -0.3165
      2 C          -9.0836  -20.3814   18.5636 C.ar    1  UNL1        0.0779
      3 C         -10.3486  -19.6594   18.9220 C.ar    1  UNL1        0.0392
      4 C         -10.0976  -18.8807   20.1792 C.ar    1  UNL1        0.0985
      5 N         -10.9788  -17.9835   20.9969 N.ar    1  UNL1       -0.2423
      6 C         -10.4398  -17.3271   22.2332 C.ar    1  UNL1        0.0989
      7 C          -9.0196  -17.5679   22.6519 C.ar    1  UNL1        0.0206
      8 C          -8.1385  -18.4650   21.8342 C.ar    1  UNL1        0.0203
      9 C          -8.6775  -19.1214   20.5979 C.ar    1  UNL1        0.0782
     10 C          -8.4806  -16.9114   23.8883 C.ar    1  UNL1        0.0015
     11 C          -9.2869  -16.9179   25.1531 C.ar    1  UNL1        0.0023
     12 C          -8.7479  -16.2614   26.3895 C.ar    1  UNL1        0.0295
     13 C          -7.4026  -15.5984   26.3610 C.ar    1  UNL1        0.1414
     14 F          -6.8636  -14.9420   27.5973 F       1  UNL1       -0.2043
     15 C          -6.5964  -15.5920   25.0960 C.ar    1  UNL1        0.0710
     16 C          -7.1354  -16.2484   23.8597 C.ar    1  UNL1        0.0034
     17 C          -5.2511  -14.9290   25.0675 C.3     1  UNL1        0.3432
     18 F          -4.6691  -14.3589   26.3269 F       1  UNL1       -0.1932
     19 F          -4.4879  -14.8362   23.7795 F       1  UNL1       -0.1932
     20 C          -6.6391  -20.5550   19.6310 C.3     1  UNL1        0.1920
     21 C          -3.7459  -19.4079   22.0934 C.3     1  UNL1        0.1150
     22 N          -4.5703  -19.5627   20.8500 N.am    1  UNL1       -0.2744
     23 C          -4.1506  -18.8801   19.5819 C.3     1  UNL1        0.1150
     24 C          -5.8146  -20.4002   20.8745 C.2     1  UNL1        0.2488
     25 O          -6.2343  -21.0827   22.1426 O.2     1  UNL1       -0.2728
@<TRIPOS>BOND
     1    21    22    1
     2    22    23    1
     3    22    24   am
     4    24    25    2
     5    24    20    1
     6    20     1    1
     7     1     2   ar
     8     2     3   ar
     9     3     4   ar
    10     4     5   ar
    11     5     6   ar
    12     6     7   ar
    13     7    10    1
    14    10    11   ar
    15    11    12   ar
    16    12    13   ar
    17    13    14    1
    18    13    15   ar
    19    15    17    1
    20    17    18    1
    21    17    19    1
    22    15    16   ar
    23     7     8   ar
    24     8     9   ar
    25     9     1   ar
    26     9     4   ar
    27    16    10   ar
@<TRIPOS>MOLECULE
*****
 25 27 0 0 0
SMALL
GASTEIGER

@<TRIPOS>ATOM
      1 N           3.5570   -0.2726   27.8088 N.ar    1  UNL1       -0.3165
      2 C           4.3690   -0.4070   29.0628 C.ar    1  UNL1        0.0779
      3 C           5.5402   -1.2951   28.7637 C.ar    1  UNL1        0.0392
      4 C           5.4520   -1.7096   27.3248 C.ar    1  UNL1        0.0985
      5 N           6.3295   -2.5808   26.4757 N.ar    1  UNL1       -0.2423
      6 C           5.9812   -2.8201   25.0365 C.ar    1  UNL1        0.0989
      7 C           4.7555   -2.1882   24.4463 C.ar    1  UNL1        0.0206
      8 C           3.8780   -1.3170   25.2954 C.ar    1  UNL1        0.0203
      9 C           4.2263   -1.0777   26.7346 C.ar    1  UNL1        0.0782
     10 C           4.4072   -2.4275   23.0070 C.ar    1  UNL1        0.0015
     11 C           4.9696   -3.6172   22.2871 C.ar    1  UNL1        0.0023
     12 C           4.6214   -3.8565   20.8478 C.ar    1  UNL1        0.0295
     13 C           3.7107   -2.9061   20.1285 C.ar    1  UNL1        0.1414
     14 F           3.3624   -3.1454   18.6893 F       1  UNL1       -0.2043
     15 C           3.1482   -1.7164   20.8485 C.ar    1  UNL1        0.0710
     16 C           3.4965   -1.4771   22.2877 C.ar    1  UNL1        0.0034
     17 C           2.2375   -0.7660   20.1292 C.3     1  UNL1        0.3432
     18 F           0.7550   -0.8397   20.3449 F       1  UNL1       -0.1932
     19 F           2.8095    0.2581   19.1941 F       1  UNL1       -0.1932
     20 C           2.2968    0.5265   27.6558 C.3     1  UNL1        0.1920
     21 C          -1.4738    0.2477   28.8619 C.3     1  UNL1        0.1150
     22 N          -0.2756    0.5681   28.0185 N.am    1  UNL1       -0.2744
     23 C          -0.4512    1.2506   26.6944 C.3     1  UNL1        0.1150
     24 C           1.0984    0.2061   28.4993 C.2     1  UNL1        0.2488
     25 O           1.2740   -0.4764   29.8234 O.2     1  UNL1       -0.2728
@<TRIPOS>BOND
     1    21    22    1
     2    22    23    1
     3    22    24   am
     4    24    25    2
     5    24    20    1
     6    20     1    1
     7     1     2   ar
     8     2     3   ar
     9     3     4   ar
    10     4     5   ar
    11     5     6   ar
    12     6     7   ar
    13     7    10    1
    14    10    11   ar
    15    11    12   ar
    16    12    13   ar
    17    13    14    1
    18    13    15   ar
    19    15    17    1
    20    17    18    1
    21    17    19    1
    22    15    16   ar
    23     7     8   ar
    24     8     9   ar
    25     9     1   ar
    26     9     4   ar
    27    16    10   ar
@<TRIPOS>MOLECULE
*****
 25 27 0 0 0
SMALL
GASTEIGER

@<TRIPOS>ATOM
      1 N           7.4629   -5.3763   27.3539 N.ar    1  UNL1       -0.3165
      2 C           8.7320   -6.0899   27.7147 C.ar    1  UNL1        0.0779
      3 C           9.5357   -6.2687   26.4608 C.ar    1  UNL1        0.0392
      4 C           8.7633   -5.6656   25.3252 C.ar    1  UNL1        0.0985
      5 N           9.0609   -5.5475   23.8598 N.ar    1  UNL1       -0.2423
      6 C           8.0775   -4.8778   22.9464 C.ar    1  UNL1        0.0989
      7 C           6.7964   -4.3262   23.4984 C.ar    1  UNL1        0.0206
      8 C           6.4988   -4.4444   24.9638 C.ar    1  UNL1        0.0203
      9 C           7.4822   -5.1141   25.8772 C.ar    1  UNL1        0.0782
     10 C           5.8130   -3.6565   22.5849 C.ar    1  UNL1        0.0015
     11 C           4.8297   -2.6674   23.1370 C.ar    1  UNL1        0.0023
     12 C           3.8463   -1.9977   22.2235 C.ar    1  UNL1        0.0295
     13 C           3.8462   -2.3171   20.7579 C.ar    1  UNL1        0.1414
     14 F           2.8628   -1.6474   19.8445 F       1  UNL1       -0.2043
     15 C           4.8295   -3.3062   20.2058 C.ar    1  UNL1        0.0710
     16 C           5.8129   -3.9759   21.1193 C.ar    1  UNL1        0.0034
     17 C           4.8294   -3.6256   18.7402 C.3     1  UNL1        0.3432
     18 F           4.7131   -5.0494   18.2829 F       1  UNL1       -0.1932
     19 F           4.9457   -2.5210   17.7319 F       1  UNL1       -0.1932
     20 C           6.3669   -4.9922   28.3033 C.3     1  UNL1        0.1920
     21 C           6.9710   -3.4438   31.9072 C.3     1  UNL1        0.1150
     22 N           6.6886   -3.5459   30.4376 N.am    1  UNL1       -0.2744
     23 C           6.4456   -2.3038   29.6325 C.3     1  UNL1        0.1150
     24 C           6.6493   -4.8901   29.7730 C.2     1  UNL1        0.2488
     25 O           6.8924   -6.1322   30.5781 O.2     1  UNL1       -0.2728
@<TRIPOS>BOND
     1    21    22    1
     2    22    23    1
     3    22    24   am
     4    24    25    2
     5    24    20    1
     6    20     1    1
     7     1     2   ar
     8     2     3   ar
     9     3     4   ar
    10     4     5   ar
    11     5     6   ar
    12     6     7   ar
    13     7    10    1
    14    10    11   ar
    15    11    12   ar
    16    12    13   ar
    17    13    14    1
    18    13    15   ar
    19    15    17    1
    20    17    18    1
    21    17    19    1
    22    15    16   ar
    23     7     8   ar
    24     8     9   ar
    25     9     1   ar
    26     9     4   ar
    27    16    10   ar
@<TRIPOS>MOLECULE
*****
 25 27 0 0 0
SMALL
GASTEIGER

@<TRIPOS>ATOM
      1 N           3.6212   -0.2532   27.9773 N.ar    1  UNL1       -0.3165
      2 C           4.5773   -0.8337   28.9767 C.ar    1  UNL1        0.0779
      3 C           5.5235   -1.7368   28.2424 C.ar    1  UNL1        0.0392
      4 C           5.1522   -1.7144   26.7893 C.ar    1  UNL1        0.0985
      5 N           5.7327   -2.4105   25.5942 N.ar    1  UNL1       -0.2423
      6 C           5.1375   -2.1897   24.2352 C.ar    1  UNL1        0.0989
      7 C           3.9618   -1.2727   24.0713 C.ar    1  UNL1        0.0206
      8 C           3.3813   -0.5766   25.2664 C.ar    1  UNL1        0.0203
      9 C           3.9764   -0.7975   26.6254 C.ar    1  UNL1        0.0782
     10 C           3.3666   -1.0519   22.7122 C.ar    1  UNL1        0.0015
     11 C           2.3961    0.0703   22.4918 C.ar    1  UNL1        0.0023
     12 C           1.8009    0.2912   21.1327 C.ar    1  UNL1        0.0295
     13 C           2.1763   -0.6103   19.9941 C.ar    1  UNL1        0.1414
     14 F           1.5812   -0.3895   18.6350 F       1  UNL1       -0.2043
     15 C           3.1469   -1.7325   20.2145 C.ar    1  UNL1        0.0710
     16 C           3.7420   -1.9533   21.5736 C.ar    1  UNL1        0.0034
     17 C           3.5223   -2.6340   19.0759 C.3     1  UNL1        0.3432
     18 F           3.0730   -4.0651   19.0727 F       1  UNL1       -0.1932
     19 F           4.3471   -2.1043   17.9404 F       1  UNL1       -0.1932
     20 C           2.5056    0.7037   28.2771 C.3     1  UNL1        0.1920
     21 C          -1.3343   -0.0581   28.9294 C.3     1  UNL1        0.1150
     22 N          -0.0787    0.4356   28.2738 N.am    1  UNL1       -0.2744
     23 C          -0.1516    1.1547   26.9595 C.3     1  UNL1        0.1150
     24 C           1.2499    0.2100   28.9326 C.2     1  UNL1        0.2488
     25 O           1.3228   -0.5091   30.2470 O.2     1  UNL1       -0.2728
@<TRIPOS>BOND
     1    21    22    1
     2    22    23    1
     3    22    24   am
     4    24    25    2
     5    24    20    1
     6    20     1    1
     7     1     2   ar
     8     2     3   ar
     9     3     4   ar
    10     4     5   ar
    11     5     6   ar
    12     6     7   ar
    13     7    10    1
    14    10    11   ar
    15    11    12   ar
    16    12    13   ar
    17    13    14    1
    18    13    15   ar
    19    15    17    1
    20    17    18    1
    21    17    19    1
    22    15    16   ar
    23     7     8   ar
    24     8     9   ar
    25     9     1   ar
    26     9     4   ar
    27    16    10   ar
@<TRIPOS>MOLECULE
*****
 25 27 0 0 0
SMALL
GASTEIGER

@<TRIPOS>ATOM
      1 N          -0.3294    3.1744   23.6578 N.ar    1  UNL1       -0.3165
      2 C          -1.4092    4.0264   23.0594 C.ar    1  UNL1        0.0779
      3 C          -1.6193    3.5811   21.6425 C.ar    1  UNL1        0.0392
      4 C          -0.6693    2.4538   21.3652 C.ar    1  UNL1        0.0985
      5 N          -0.4272    1.6238   20.1395 N.ar    1  UNL1       -0.2423
      6 C           0.6121    0.5424   20.1594 C.ar    1  UNL1        0.0989
      7 C           1.4093    0.2910   21.4049 C.ar    1  UNL1        0.0206
      8 C           1.1672    1.1211   22.6306 C.ar    1  UNL1        0.0203
      9 C           0.1279    2.2025   22.6107 C.ar    1  UNL1        0.0782
     10 C           2.4486   -0.7904   21.4247 C.ar    1  UNL1        0.0015
     11 C           3.2882   -1.0014   22.6496 C.ar    1  UNL1        0.0023
     12 C           4.3275   -2.0829   22.6694 C.ar    1  UNL1        0.0295
     13 C           4.5272   -2.9533   21.4642 C.ar    1  UNL1        0.1414
     14 F           5.5665   -4.0347   21.4839 F       1  UNL1       -0.2043
     15 C           3.6876   -2.7422   20.2392 C.ar    1  UNL1        0.0710
     16 C           2.6483   -1.6608   20.2195 C.ar    1  UNL1        0.0034
     17 C           3.8873   -3.6126   19.0340 C.3     1  UNL1        0.3432
     18 F           2.8335   -4.6059   18.6433 F       1  UNL1       -0.1932
     19 F           5.1409   -3.4896   18.2195 F       1  UNL1       -0.1932
     20 C           0.2001    3.2764   25.0575 C.3     1  UNL1        0.1920
     21 C          -0.5288    0.8208   28.0888 C.3     1  UNL1        0.1150
     22 N           0.1843    1.5124   26.9650 N.am    1  UNL1       -0.2744
     23 C           1.5947    1.1317   26.6246 C.3     1  UNL1        0.1150
     24 C          -0.5130    2.5847   26.1814 C.2     1  UNL1        0.2488
     25 O          -1.9234    2.9654   26.5218 O.2     1  UNL1       -0.2728
@<TRIPOS>BOND
     1    21    22    1
     2    22    23    1
     3    22    24   am
     4    24    25    2
     5    24    20    1
     6    20     1    1
     7     1     2   ar
     8     2     3   ar
     9     3     4   ar
    10     4     5   ar
    11     5     6   ar
    12     6     7   ar
    13     7    10    1
    14    10    11   ar
    15    11    12   ar
    16    12    13   ar
    17    13    14    1
    18    13    15   ar
    19    15    17    1
    20    17    18    1
    21    17    19    1
    22    15    16   ar
    23     7     8   ar
    24     8     9   ar
    25     9     1   ar
    26     9     4   ar
    27    16    10   ar
