@<TRIPOS>MOLECULE
*****
 31 34 0 0 0
SMALL
GASTEIGER

@<TRIPOS>ATOM
      1 C           4.7311   -3.2056   22.4392 C.ar    1  UNL1        0.0678
      2 C           3.8692   -2.1302   23.0312 C.ar    1  UNL1        0.0055
      3 C           4.2186   -1.5378   24.3642 C.ar    1  UNL1        0.0016
      4 C           5.4300   -2.0208   25.1053 C.ar    1  UNL1        0.0181
      5 C           6.2920   -3.0963   24.5133 C.ar    1  UNL1        0.0922
      6 C           5.9426   -3.6887   23.1803 C.ar    1  UNL1        0.1576
      7 F           6.8045   -4.7641   22.5883 F       1  UNL1       -0.2027
      8 C           4.3817   -3.7980   21.1062 C.2     1  UNL1        0.2014
      9 O           3.8587   -5.2014   21.0230 O.2     1  UNL1       -0.2864
     10 C           1.8295   -0.0286   19.3758 C.2     1  UNL1        0.0974
     11 C           2.3620    0.4851   18.0710 C.2     1  UNL1        0.2421
     12 N           3.5612   -0.1617   17.4436 N.2     1  UNL1       -0.0304
     13 C           4.2278   -1.3221   18.1209 C.2     1  UNL1        0.3721
     14 N           5.4169   -2.1558   17.7452 N.2     1  UNL1       -0.0307
     15 C           5.6193   -3.1847   18.8177 C.2     1  UNL1        0.2390
     16 C           4.5553   -2.9870   19.8564 C.2     1  UNL1        0.0895
     17 C           3.6953   -1.8359   19.4257 C.2     1  UNL1        0.0782
     18 C           2.4962   -1.1891   20.0531 C.3     1  UNL1        0.0751
     19 N          -0.5688    1.2649   20.6307 N.1     1  UNL1       -0.1910
     20 C           0.6303    0.6182   20.0033 C.1     1  UNL1        0.1003
     21 N           7.5034   -3.5793   25.2544 N.pl3   1  UNL1       -0.2128
     22 H           8.3741   -3.6256   24.7972 H       1  UNL1        0.1738
     23 S           7.3882   -3.9918   26.6919 S.O2    1  UNL1        0.0751
     24 O           8.1114   -2.7453   27.1076 O.2     1  UNL1       -0.1499
     25 O           6.6649   -5.2384   26.2762 O.2     1  UNL1       -0.1499
     26 C           7.2729   -4.4044   28.1295 C.ar    1  UNL1        0.1442
     27 C           6.8005   -3.4189   29.1569 C.ar    1  UNL1        0.0234
     28 C           6.6852   -3.8315   30.5945 C.ar    1  UNL1        0.0221
     29 C           7.0423   -5.2294   31.0046 C.ar    1  UNL1        0.0990
     30 N           7.5148   -6.2149   29.9771 N.ar    1  UNL1       -0.2409
     31 C           7.6300   -5.8024   28.5396 C.ar    1  UNL1        0.1190
@<TRIPOS>BOND
     1    19    20    3
     2    20    10    1
     3    10    11    2
     4    11    12    1
     5    12    13    2
     6    13    14    1
     7    14    15    2
     8    15    16    1
     9    16     8    1
    10     8     9    2
    11     8     1    1
    12     1     2   ar
    13     2     3   ar
    14     3     4   ar
    15     4     5   ar
    16     5    21    1
    17    21    23    1
    18    23    24    2
    19    23    25    2
    20    23    26    1
    21    26    27   ar
    22    27    28   ar
    23    28    29   ar
    24    29    30   ar
    25    30    31   ar
    26     5     6   ar
    27     6     7    1
    28    16    17    2
    29    17    18    1
    30    18    10    1
    31    17    13    1
    32     6     1   ar
    33    31    26   ar
    34    21    22    1
@<TRIPOS>MOLECULE
*****
 31 34 0 0 0
SMALL
GASTEIGER

@<TRIPOS>ATOM
      1 C           5.0725   -3.5684   21.9168 C.ar    1  UNL1        0.0678
      2 C           4.2564   -2.7399   22.8641 C.ar    1  UNL1        0.0055
      3 C           4.8158   -2.3627   24.2038 C.ar    1  UNL1        0.0016
      4 C           6.1914   -2.8140   24.5962 C.ar    1  UNL1        0.0181
      5 C           7.0076   -3.6425   23.6488 C.ar    1  UNL1        0.0922
      6 C           6.4482   -4.0197   22.3091 C.ar    1  UNL1        0.1576
      7 F           7.2644   -4.8483   21.3618 F       1  UNL1       -0.2027
      8 C           4.5130   -3.9456   20.5771 C.2     1  UNL1        0.2014
      9 O           3.8336   -5.2703   20.3941 O.2     1  UNL1       -0.2864
     10 C           1.8883   -0.0183   19.3924 C.2     1  UNL1        0.0974
     11 C           2.3646    0.6418   18.1325 C.2     1  UNL1        0.2421
     12 N           3.5361    0.0760   17.3860 N.2     1  UNL1       -0.0304
     13 C           4.2314   -1.1500   17.8993 C.2     1  UNL1        0.3721
     14 N           5.4036   -1.9298   17.3820 N.2     1  UNL1       -0.0307
     15 C           5.6518   -3.0720   18.3221 C.2     1  UNL1        0.2390
     16 C           4.6330   -2.9981   19.4205 C.2     1  UNL1        0.0895
     17 C           3.7551   -1.8101   19.1592 C.2     1  UNL1        0.0782
     18 C           2.5835   -1.2443   19.9057 C.3     1  UNL1        0.0751
     19 N          -0.4548    1.1133   20.8854 N.1     1  UNL1       -0.1910
     20 C           0.7167    0.5475   20.1389 C.1     1  UNL1        0.1003
     21 N           8.3832   -4.0938   24.0411 N.pl3   1  UNL1       -0.2128
     22 H           9.1732   -3.7044   23.6013 H       1  UNL1        0.1738
     23 S           8.5553   -5.1385   25.1037 S.O2    1  UNL1        0.0751
     24 O           9.1527   -4.1104   26.0179 O.2     1  UNL1       -0.1499
     25 O           7.9578   -6.1667   24.1895 O.2     1  UNL1       -0.1499
     26 C           8.7272   -6.1833   26.1663 C.ar    1  UNL1        0.1442
     27 C           8.2625   -7.5879   25.9191 C.ar    1  UNL1        0.0234
     28 C           8.4345   -8.6326   26.9816 C.ar    1  UNL1        0.0221
     29 C           9.0712   -8.2728   28.2912 C.ar    1  UNL1        0.0990
     30 N           9.5359   -6.8682   28.5384 N.ar    1  UNL1       -0.2409
     31 C           9.3639   -5.8235   27.4759 C.ar    1  UNL1        0.1190
@<TRIPOS>BOND
     1    19    20    3
     2    20    10    1
     3    10    11    2
     4    11    12    1
     5    12    13    2
     6    13    14    1
     7    14    15    2
     8    15    16    1
     9    16     8    1
    10     8     9    2
    11     8     1    1
    12     1     2   ar
    13     2     3   ar
    14     3     4   ar
    15     4     5   ar
    16     5    21    1
    17    21    23    1
    18    23    24    2
    19    23    25    2
    20    23    26    1
    21    26    27   ar
    22    27    28   ar
    23    28    29   ar
    24    29    30   ar
    25    30    31   ar
    26     5     6   ar
    27     6     7    1
    28    16    17    2
    29    17    18    1
    30    18    10    1
    31    17    13    1
    32     6     1   ar
    33    31    26   ar
    34    21    22    1
@<TRIPOS>MOLECULE
*****
 31 34 0 0 0
SMALL
GASTEIGER

@<TRIPOS>ATOM
      1 C           6.5361   -3.8573   21.3401 C.ar    1  UNL1        0.0678
      2 C           8.0316   -3.8628   21.2251 C.ar    1  UNL1        0.0055
      3 C           8.8792   -3.8098   22.4616 C.ar    1  UNL1        0.0016
      4 C           8.2312   -3.7514   23.8131 C.ar    1  UNL1        0.0181
      5 C           6.7355   -3.7459   23.9281 C.ar    1  UNL1        0.0922
      6 C           5.8880   -3.7988   22.6916 C.ar    1  UNL1        0.1576
      7 F           4.3924   -3.7933   22.8067 F       1  UNL1       -0.2027
      8 C           5.6886   -3.9102   20.1036 C.2     1  UNL1        0.2014
      9 O           4.8089   -5.0979   19.8476 O.2     1  UNL1       -0.2864
     10 C           2.4960   -0.3276   19.2736 C.2     1  UNL1        0.0974
     11 C           2.9368    0.6040   18.1838 C.2     1  UNL1        0.2421
     12 N           4.2419    0.3727   17.4816 N.2     1  UNL1       -0.0304
     13 C           5.1063   -0.7903   17.8692 C.2     1  UNL1        0.3721
     14 N           6.4338   -1.2680   17.3597 N.2     1  UNL1       -0.0307
     15 C           6.8135   -2.4949   18.1347 C.2     1  UNL1        0.2390
     16 C           5.7207   -2.7755   19.1232 C.2     1  UNL1        0.0895
     17 C           4.6656   -1.7219   18.9591 C.2     1  UNL1        0.0782
     18 C           3.3604   -1.4905   19.6613 C.3     1  UNL1        0.0751
     19 N          -0.1142    0.1351   20.6781 N.1     1  UNL1       -0.1910
     20 C           1.1909   -0.0962   19.9759 C.1     1  UNL1        0.1003
     21 N           6.0875   -3.6874   25.2796 N.pl3   1  UNL1       -0.2128
     22 H           5.2289   -3.2195   25.3940 H       1  UNL1        0.1738
     23 S           6.7477   -4.3419   26.4569 S.O2    1  UNL1        0.0751
     24 O           6.8146   -3.0166   27.1562 O.2     1  UNL1       -0.1499
     25 O           6.6807   -5.6672   25.7576 O.2     1  UNL1       -0.1499
     26 C           7.4078   -4.9964   27.6341 C.ar    1  UNL1        0.1442
     27 C           8.8552   -5.3837   27.5627 C.ar    1  UNL1        0.0234
     28 C           9.5154   -6.0382   28.7398 C.ar    1  UNL1        0.0221
     29 C           8.7282   -6.3055   29.9884 C.ar    1  UNL1        0.0990
     30 N           7.2809   -5.9182   30.0598 N.ar    1  UNL1       -0.2409
     31 C           6.6207   -5.2637   28.8827 C.ar    1  UNL1        0.1190
@<TRIPOS>BOND
     1    19    20    3
     2    20    10    1
     3    10    11    2
     4    11    12    1
     5    12    13    2
     6    13    14    1
     7    14    15    2
     8    15    16    1
     9    16     8    1
    10     8     9    2
    11     8     1    1
    12     1     2   ar
    13     2     3   ar
    14     3     4   ar
    15     4     5   ar
    16     5    21    1
    17    21    23    1
    18    23    24    2
    19    23    25    2
    20    23    26    1
    21    26    27   ar
    22    27    28   ar
    23    28    29   ar
    24    29    30   ar
    25    30    31   ar
    26     5     6   ar
    27     6     7    1
    28    16    17    2
    29    17    18    1
    30    18    10    1
    31    17    13    1
    32     6     1   ar
    33    31    26   ar
    34    21    22    1
@<TRIPOS>MOLECULE
*****
 31 34 0 0 0
SMALL
GASTEIGER

@<TRIPOS>ATOM
      1 C           4.9493   -2.7155   19.7103 C.ar    1  UNL1        0.0678
      2 C           6.3240   -2.5868   19.1243 C.ar    1  UNL1        0.0055
      3 C           6.5884   -1.5777   18.0464 C.ar    1  UNL1        0.0016
      4 C           5.4780   -0.6973   17.5545 C.ar    1  UNL1        0.0181
      5 C           4.1032   -0.8261   18.1406 C.ar    1  UNL1        0.0922
      6 C           3.8388   -1.8352   19.2185 C.ar    1  UNL1        0.1576
      7 F           2.4640   -1.9638   19.8046 F       1  UNL1       -0.2027
      8 C           4.6849   -3.7246   20.7882 C.2     1  UNL1        0.2014
      9 O           3.9054   -4.9677   20.4770 O.2     1  UNL1       -0.2864
     10 C           3.2017   -0.6462   24.2581 C.2     1  UNL1        0.0974
     11 C           4.0159   -0.7484   25.5138 C.2     1  UNL1        0.2421
     12 N           5.1492   -1.7276   25.5953 N.2     1  UNL1       -0.0304
     13 C           5.4683   -2.6048   24.4211 C.2     1  UNL1        0.3721
     14 N           6.5175   -3.6557   24.2091 N.2     1  UNL1       -0.0307
     15 C           6.3517   -4.2031   22.8224 C.2     1  UNL1        0.2390
     16 C           5.2001   -3.4905   22.1774 C.2     1  UNL1        0.0895
     17 C           4.6542   -2.5027   23.1655 C.2     1  UNL1        0.0782
     18 C           3.5209   -1.5234   23.0840 C.3     1  UNL1        0.0751
     19 N           0.9351    1.3123   24.0952 N.1     1  UNL1       -0.1910
     20 C           2.0684    0.3330   24.1767 C.1     1  UNL1        0.1003
     21 N           2.9928    0.0543   17.6488 N.pl3   1  UNL1       -0.2128
     22 H           2.7634    0.0688   16.6915 H       1  UNL1        0.1738
     23 S           2.2319    0.9126   18.6154 S.O2    1  UNL1        0.0751
     24 O           0.9473    0.2857   18.1609 O.2     1  UNL1       -0.1499
     25 O           3.5165    1.5395   19.0700 O.2     1  UNL1       -0.1499
     26 C           1.4710    1.7709   19.5821 C.ar    1  UNL1        0.1442
     27 C           2.0259    3.0994   20.0030 C.ar    1  UNL1        0.0234
     28 C           1.2651    3.9577   20.9697 C.ar    1  UNL1        0.0221
     29 C          -0.0505    3.4875   21.5155 C.ar    1  UNL1        0.0990
     30 N          -0.6054    2.1590   21.0947 N.ar    1  UNL1       -0.2409
     31 C           0.1553    1.3007   20.1280 C.ar    1  UNL1        0.1190
@<TRIPOS>BOND
     1    19    20    3
     2    20    10    1
     3    10    11    2
     4    11    12    1
     5    12    13    2
     6    13    14    1
     7    14    15    2
     8    15    16    1
     9    16     8    1
    10     8     9    2
    11     8     1    1
    12     1     2   ar
    13     2     3   ar
    14     3     4   ar
    15     4     5   ar
    16     5    21    1
    17    21    23    1
    18    23    24    2
    19    23    25    2
    20    23    26    1
    21    26    27   ar
    22    27    28   ar
    23    28    29   ar
    24    29    30   ar
    25    30    31   ar
    26     5     6   ar
    27     6     7    1
    28    16    17    2
    29    17    18    1
    30    18    10    1
    31    17    13    1
    32     6     1   ar
    33    31    26   ar
    34    21    22    1
@<TRIPOS>MOLECULE
*****
 31 34 0 0 0
SMALL
GASTEIGER

@<TRIPOS>ATOM
      1 C           7.4997   -3.7330   20.7941 C.ar    1  UNL1        0.0678
      2 C           8.7002   -3.0921   20.1634 C.ar    1  UNL1        0.0055
      3 C           8.5492   -2.2961   18.9010 C.ar    1  UNL1        0.0016
      4 C           7.1975   -2.1410   18.2694 C.ar    1  UNL1        0.0181
      5 C           5.9969   -2.7820   18.9002 C.ar    1  UNL1        0.0922
      6 C           6.1480   -3.5780   20.1625 C.ar    1  UNL1        0.1576
      7 F           4.9474   -4.2189   20.7932 F       1  UNL1       -0.2027
      8 C           7.6508   -4.5290   22.0565 C.2     1  UNL1        0.2014
      9 O           8.2151   -5.9178   22.0044 O.2     1  UNL1       -0.2864
     10 C           7.3746   -6.5096   26.4969 C.2     1  UNL1        0.0974
     11 C           6.9059   -5.5383   27.5394 C.2     1  UNL1        0.2421
     12 N           6.5806   -4.1252   27.1557 N.2     1  UNL1       -0.0304
     13 C           6.7239   -3.6833   25.7295 C.2     1  UNL1        0.3721
     14 N           6.4792   -2.3647   25.0578 N.2     1  UNL1       -0.0307
     15 C           6.7966   -2.5209   23.6001 C.2     1  UNL1        0.2390
     16 C           7.2375   -3.9362   23.3709 C.2     1  UNL1        0.0895
     17 C           7.1926   -4.6546   24.6870 C.2     1  UNL1        0.0782
     18 C           7.5179   -6.0677   25.0707 C.3     1  UNL1        0.0751
     19 N           8.0253   -9.3359   27.2643 N.1     1  UNL1       -0.1910
     20 C           7.6999   -7.9227   26.8806 C.1     1  UNL1        0.1003
     21 N           4.6453   -2.6269   18.2685 N.pl3   1  UNL1       -0.2128
     22 H           4.2131   -3.3980   17.8349 H       1  UNL1        0.1738
     23 S           3.9520   -1.2970   18.2974 S.O2    1  UNL1        0.0751
     24 O           4.1917   -1.1400   16.8251 O.2     1  UNL1       -0.1499
     25 O           3.7123   -1.4540   19.7698 O.2     1  UNL1       -0.1499
     26 C           3.2587    0.0329   18.3264 C.ar    1  UNL1        0.1442
     27 C           1.7622    0.0969   18.4063 C.ar    1  UNL1        0.0234
     28 C           1.0689    1.4267   18.4353 C.ar    1  UNL1        0.0221
     29 C           1.8720    2.6925   18.3844 C.ar    1  UNL1        0.0990
     30 N           3.3685    2.6285   18.3045 N.ar    1  UNL1       -0.2409
     31 C           4.0619    1.2987   18.2755 C.ar    1  UNL1        0.1190
@<TRIPOS>BOND
     1    19    20    3
     2    20    10    1
     3    10    11    2
     4    11    12    1
     5    12    13    2
     6    13    14    1
     7    14    15    2
     8    15    16    1
     9    16     8    1
    10     8     9    2
    11     8     1    1
    12     1     2   ar
    13     2     3   ar
    14     3     4   ar
    15     4     5   ar
    16     5    21    1
    17    21    23    1
    18    23    24    2
    19    23    25    2
    20    23    26    1
    21    26    27   ar
    22    27    28   ar
    23    28    29   ar
    24    29    30   ar
    25    30    31   ar
    26     5     6   ar
    27     6     7    1
    28    16    17    2
    29    17    18    1
    30    18    10    1
    31    17    13    1
    32     6     1   ar
    33    31    26   ar
    34    21    22    1
@<TRIPOS>MOLECULE
*****
 31 34 0 0 0
SMALL
GASTEIGER

@<TRIPOS>ATOM
      1 C           3.5988    0.5613   18.2569 C.ar    1  UNL1        0.0678
      2 C           4.6472    1.5254   18.7273 C.ar    1  UNL1        0.0055
      3 C           4.2442    2.8574   19.2872 C.ar    1  UNL1        0.0016
      4 C           2.7927    3.2252   19.3768 C.ar    1  UNL1        0.0181
      5 C           1.7443    2.2610   18.9064 C.ar    1  UNL1        0.0922
      6 C           2.1473    0.9290   18.3465 C.ar    1  UNL1        0.1576
      7 F           1.0989   -0.0351   17.8761 F       1  UNL1       -0.2027
      8 C           4.0018   -0.7707   17.6970 C.2     1  UNL1        0.2014
      9 O           3.8709   -1.0368   16.2266 O.2     1  UNL1       -0.2864
     10 C           3.5391   -1.3752   22.5071 C.2     1  UNL1        0.0974
     11 C           4.2477   -2.5974   23.0110 C.2     1  UNL1        0.2421
     12 N           4.9944   -3.4793   22.0547 N.2     1  UNL1       -0.0304
     13 C           5.0324   -3.1390   20.5943 C.2     1  UNL1        0.3721
     14 N           5.6823   -3.8141   19.4230 N.2     1  UNL1       -0.0307
     15 C           5.3754   -3.0090   18.1951 C.2     1  UNL1        0.2390
     16 C           4.5358   -1.8364   18.6075 C.2     1  UNL1        0.0895
     17 C           4.3238   -1.9168   20.0903 C.2     1  UNL1        0.0782
     18 C           3.5771   -1.0349   21.0467 C.3     1  UNL1        0.0751
     19 N           2.0457    0.3886   24.4199 N.1     1  UNL1       -0.1910
     20 C           2.7924   -0.4933   23.4635 C.1     1  UNL1        0.1003
     21 N           0.2929    2.6288   18.9959 N.pl3   1  UNL1       -0.2128
     22 H          -0.2429    2.7216   18.1753 H       1  UNL1        0.1738
     23 S          -0.3422    2.8552   20.3359 S.O2    1  UNL1        0.0751
     24 O          -0.2355    1.3891   20.6342 O.2     1  UNL1       -0.1499
     25 O          -0.4489    4.3213   20.0376 O.2     1  UNL1       -0.1499
     26 C          -0.9773    3.0817   21.6759 C.ar    1  UNL1        0.1442
     27 C          -0.2033    2.8008   22.9297 C.ar    1  UNL1        0.0234
     28 C          -0.8383    3.0272   24.2696 C.ar    1  UNL1        0.0221
     29 C          -2.2473    3.5345   24.3558 C.ar    1  UNL1        0.0990
     30 N          -3.0212    3.8154   23.1020 N.ar    1  UNL1       -0.2409
     31 C          -2.3862    3.5890   21.7620 C.ar    1  UNL1        0.1190
@<TRIPOS>BOND
     1    19    20    3
     2    20    10    1
     3    10    11    2
     4    11    12    1
     5    12    13    2
     6    13    14    1
     7    14    15    2
     8    15    16    1
     9    16     8    1
    10     8     9    2
    11     8     1    1
    12     1     2   ar
    13     2     3   ar
    14     3     4   ar
    15     4     5   ar
    16     5    21    1
    17    21    23    1
    18    23    24    2
    19    23    25    2
    20    23    26    1
    21    26    27   ar
    22    27    28   ar
    23    28    29   ar
    24    29    30   ar
    25    30    31   ar
    26     5     6   ar
    27     6     7    1
    28    16    17    2
    29    17    18    1
    30    18    10    1
    31    17    13    1
    32     6     1   ar
    33    31    26   ar
    34    21    22    1
@<TRIPOS>MOLECULE
*****
 31 34 0 0 0
SMALL
GASTEIGER

@<TRIPOS>ATOM
      1 C           4.0076   -2.0571   19.1109 C.ar    1  UNL1        0.0678
      2 C           3.1667   -3.2908   18.9669 C.ar    1  UNL1        0.0055
      3 C           3.6486   -4.5965   19.5262 C.ar    1  UNL1        0.0016
      4 C           4.9716   -4.6686   20.2295 C.ar    1  UNL1        0.0181
      5 C           5.8125   -3.4348   20.3735 C.ar    1  UNL1        0.0922
      6 C           5.3306   -2.1291   19.8142 C.ar    1  UNL1        0.1576
      7 F           6.1716   -0.8954   19.9582 F       1  UNL1       -0.2027
      8 C           3.5256   -0.7514   18.5516 C.2     1  UNL1        0.2014
      9 O           4.1584   -0.1861   17.3146 O.2     1  UNL1       -0.2864
     10 C           2.5505   -0.0935   23.2773 C.2     1  UNL1        0.0974
     11 C           1.3154    0.7257   23.5083 C.2     1  UNL1        0.2421
     12 N           0.5295    1.2436   22.3403 N.2     1  UNL1       -0.0304
     13 C           0.9789    0.9423   20.9413 C.2     1  UNL1        0.3721
     14 N           0.4125    1.3144   19.6031 N.2     1  UNL1       -0.0307
     15 C           1.2975    0.7252   18.5450 C.2     1  UNL1        0.2390
     16 C           2.4110   -0.0110   19.2292 C.2     1  UNL1        0.0895
     17 C           2.2140    0.1232   20.7102 C.2     1  UNL1        0.0782
     18 C           2.9998   -0.3947   21.8783 C.3     1  UNL1        0.0751
     19 N           4.1221   -1.1293   25.6133 N.1     1  UNL1       -0.1910
     20 C           3.3363   -0.6114   24.4453 C.1     1  UNL1        0.1003
     21 N           7.1355   -3.5068   21.0768 N.pl3   1  UNL1       -0.2128
     22 H           7.9313   -3.0917   20.6723 H       1  UNL1        0.1738
     23 S           7.2459   -4.2113   22.3965 S.O2    1  UNL1        0.0751
     24 O           6.5053   -3.0874   23.0585 O.2     1  UNL1       -0.1499
     25 O           7.9866   -5.3352   21.7345 O.2     1  UNL1       -0.1499
     26 C           7.3564   -4.9158   23.7162 C.ar    1  UNL1        0.1442
     27 C           8.1352   -6.1934   23.8213 C.ar    1  UNL1        0.0234
     28 C           8.2458   -6.8979   25.1409 C.ar    1  UNL1        0.0221
     29 C           7.5774   -6.3249   26.3554 C.ar    1  UNL1        0.0990
     30 N           6.7986   -5.0472   26.2503 N.ar    1  UNL1       -0.2409
     31 C           6.6881   -4.3427   24.9307 C.ar    1  UNL1        0.1190
@<TRIPOS>BOND
     1    19    20    3
     2    20    10    1
     3    10    11    2
     4    11    12    1
     5    12    13    2
     6    13    14    1
     7    14    15    2
     8    15    16    1
     9    16     8    1
    10     8     9    2
    11     8     1    1
    12     1     2   ar
    13     2     3   ar
    14     3     4   ar
    15     4     5   ar
    16     5    21    1
    17    21    23    1
    18    23    24    2
    19    23    25    2
    20    23    26    1
    21    26    27   ar
    22    27    28   ar
    23    28    29   ar
    24    29    30   ar
    25    30    31   ar
    26     5     6   ar
    27     6     7    1
    28    16    17    2
    29    17    18    1
    30    18    10    1
    31    17    13    1
    32     6     1   ar
    33    31    26   ar
    34    21    22    1
@<TRIPOS>MOLECULE
*****
 31 34 0 0 0
SMALL
GASTEIGER

@<TRIPOS>ATOM
      1 C           7.9136   -3.0950   21.4917 C.ar    1  UNL1        0.0678
      2 C           9.1718   -2.4924   20.9406 C.ar    1  UNL1        0.0055
      3 C           9.2047   -1.9845   19.5296 C.ar    1  UNL1        0.0016
      4 C           7.9792   -2.0790   18.6697 C.ar    1  UNL1        0.0181
      5 C           6.7210   -2.6815   19.2209 C.ar    1  UNL1        0.0922
      6 C           6.6881   -3.1895   20.6319 C.ar    1  UNL1        0.1576
      7 F           5.4298   -3.7920   21.1830 F       1  UNL1       -0.2027
      8 C           7.8807   -3.6029   22.9027 C.2     1  UNL1        0.2014
      9 O           7.6113   -2.6563   24.0346 O.2     1  UNL1       -0.2864
     10 C           7.4210   -6.1727   27.0139 C.2     1  UNL1        0.0974
     11 C           7.7671   -7.6214   26.8366 C.2     1  UNL1        0.2421
     12 N           8.1994   -8.1304   25.4935 N.2     1  UNL1       -0.0304
     13 C           8.2856   -7.1906   24.3276 C.2     1  UNL1        0.3721
     14 N           8.6773   -7.4017   22.8951 N.2     1  UNL1       -0.0307
     15 C           8.5733   -6.0835   22.1870 C.2     1  UNL1        0.2390
     16 C           8.1174   -5.0576   23.1818 C.2     1  UNL1        0.0895
     17 C           7.9396   -5.7419   24.5048 C.2     1  UNL1        0.0782
     18 C           7.5073   -5.2329   25.8479 C.3     1  UNL1        0.0751
     19 N           6.5564   -5.1547   29.7002 N.1     1  UNL1       -0.1910
     20 C           6.9887   -5.6637   28.3570 C.1     1  UNL1        0.1003
     21 N           5.4955   -2.7760   18.3610 N.pl3   1  UNL1       -0.2128
     22 H           5.4681   -3.4138   17.6116 H       1  UNL1        0.1738
     23 S           4.3119   -1.8988   18.6430 S.O2    1  UNL1        0.0751
     24 O           3.4967   -3.1096   18.9882 O.2     1  UNL1       -0.1499
     25 O           5.1271   -0.6879   18.2979 O.2     1  UNL1       -0.1499
     26 C           3.1283   -1.0215   18.9251 C.ar    1  UNL1        0.1442
     27 C           2.2533   -1.3010   20.1109 C.ar    1  UNL1        0.0234
     28 C           1.0697   -0.4238   20.3929 C.ar    1  UNL1        0.0221
     29 C           0.7611    0.7330   19.4891 C.ar    1  UNL1        0.0990
     30 N           1.6362    1.0125   18.3033 N.ar    1  UNL1       -0.2409
     31 C           2.8197    0.1352   18.0213 C.ar    1  UNL1        0.1190
@<TRIPOS>BOND
     1    19    20    3
     2    20    10    1
     3    10    11    2
     4    11    12    1
     5    12    13    2
     6    13    14    1
     7    14    15    2
     8    15    16    1
     9    16     8    1
    10     8     9    2
    11     8     1    1
    12     1     2   ar
    13     2     3   ar
    14     3     4   ar
    15     4     5   ar
    16     5    21    1
    17    21    23    1
    18    23    24    2
    19    23    25    2
    20    23    26    1
    21    26    27   ar
    22    27    28   ar
    23    28    29   ar
    24    29    30   ar
    25    30    31   ar
    26     5     6   ar
    27     6     7    1
    28    16    17    2
    29    17    18    1
    30    18    10    1
    31    17    13    1
    32     6     1   ar
    33    31    26   ar
    34    21    22    1
@<TRIPOS>MOLECULE
*****
 31 34 0 0 0
SMALL
GASTEIGER

@<TRIPOS>ATOM
      1 C           3.7801   -1.4246   19.2805 C.ar    1  UNL1        0.0678
      2 C           4.9340   -0.7532   18.5967 C.ar    1  UNL1        0.0055
      3 C           4.8329    0.6890   18.1969 C.ar    1  UNL1        0.0016
      4 C           3.5778    1.4598   18.4809 C.ar    1  UNL1        0.0181
      5 C           2.4239    0.7883   19.1647 C.ar    1  UNL1        0.0922
      6 C           2.5249   -0.6539   19.5645 C.ar    1  UNL1        0.1576
      7 F           1.3710   -1.3252   20.2483 F       1  UNL1       -0.2027
      8 C           3.8811   -2.8668   19.6803 C.2     1  UNL1        0.2014
      9 O           2.8768   -3.8582   19.1719 O.2     1  UNL1       -0.2864
     10 C           4.7062   -1.9488   24.3912 C.2     1  UNL1        0.0974
     11 C           5.9489   -2.6134   24.9049 C.2     1  UNL1        0.2421
     12 N           6.7847   -3.4538   23.9856 N.2     1  UNL1       -0.0304
     13 C           6.3778   -3.6296   22.5526 C.2     1  UNL1        0.3721
     14 N           6.9973   -4.3929   21.4197 N.2     1  UNL1       -0.0307
     15 C           6.1375   -4.2001   20.2058 C.2     1  UNL1        0.2390
     16 C           4.9865   -3.3176   20.5885 C.2     1  UNL1        0.0895
     17 C           5.1351   -2.9650   22.0389 C.2     1  UNL1        0.0782
     18 C           4.2993   -2.1246   22.9582 C.3     1  UNL1        0.0751
     19 N           3.0345   -0.2680   26.2298 N.1     1  UNL1       -0.1910
     20 C           3.8703   -1.1084   25.3105 C.1     1  UNL1        0.1003
     21 N           1.1688    1.5592   19.4487 N.pl3   1  UNL1       -0.2128
     22 H           0.6340    1.9202   18.7052 H       1  UNL1        0.1738
     23 S           0.7286    1.7799   20.8656 S.O2    1  UNL1        0.0751
     24 O           1.9101    2.6756   21.0932 O.2     1  UNL1       -0.1499
     25 O          -0.4529    0.8843   20.6381 O.2     1  UNL1       -0.1499
     26 C           0.2883    2.0007   22.2825 C.ar    1  UNL1        0.1442
     27 C           0.7876    1.0987   23.3721 C.ar    1  UNL1        0.0234
     28 C           0.3474    1.3194   24.7889 C.ar    1  UNL1        0.0221
     29 C          -0.5921    2.4420   25.1162 C.ar    1  UNL1        0.0990
     30 N          -1.0914    3.3439   24.0267 N.ar    1  UNL1       -0.2409
     31 C          -0.6511    3.1233   22.6098 C.ar    1  UNL1        0.1190
@<TRIPOS>BOND
     1    19    20    3
     2    20    10    1
     3    10    11    2
     4    11    12    1
     5    12    13    2
     6    13    14    1
     7    14    15    2
     8    15    16    1
     9    16     8    1
    10     8     9    2
    11     8     1    1
    12     1     2   ar
    13     2     3   ar
    14     3     4   ar
    15     4     5   ar
    16     5    21    1
    17    21    23    1
    18    23    24    2
    19    23    25    2
    20    23    26    1
    21    26    27   ar
    22    27    28   ar
    23    28    29   ar
    24    29    30   ar
    25    30    31   ar
    26     5     6   ar
    27     6     7    1
    28    16    17    2
    29    17    18    1
    30    18    10    1
    31    17    13    1
    32     6     1   ar
    33    31    26   ar
    34    21    22    1
