@<TRIPOS>MOLECULE
*****
 34 37 0 0 0
SMALL
GASTEIGER

@<TRIPOS>ATOM
      1 N          -7.8551  -19.6451   21.4961 N.3     1  UNL1       -0.2641
      2 C          -8.5443  -19.2358   22.7639 C.3     1  UNL1        0.0981
      3 C          -9.4182  -20.2138   23.4919 C.3     1  UNL1        0.0224
      4 C         -10.1074  -19.8045   24.7598 C.3     1  UNL1        0.0065
      5 C          -9.9229  -18.4172   25.2996 C.3     1  UNL1        0.0277
      6 C          -9.0491  -17.4393   24.5716 C.ar    1  UNL1       -0.0073
      7 C          -8.8645  -16.0520   25.1114 C.ar    1  UNL1       -0.0015
      8 C          -7.9907  -15.0740   24.3834 C.ar    1  UNL1        0.0203
      9 C          -7.3014  -15.4833   23.1156 C.ar    1  UNL1        0.0985
     10 N          -7.4859  -16.8706   22.5758 N.ar    1  UNL1       -0.2471
     11 C          -8.3598  -17.8486   23.3038 C.ar    1  UNL1        0.0695
     12 C          -8.5122  -19.3958   20.1710 C.3     1  UNL1        0.0989
     13 C         -10.4146  -17.6277   20.2417 C.2     1  UNL1       -0.0081
     14 C          -9.9717  -19.0548   20.1099 C.2     1  UNL1       -0.0117
     15 C         -11.8740  -17.2868   20.1806 C.3     1  UNL1        0.1171
     16 N         -13.6821  -17.7929   23.6771 N.am    1  UNL1       -0.3133
     17 C         -12.7453  -17.2709   22.6282 C.2     1  UNL1        0.2979
     18 O         -11.7432  -16.2109   22.9781 O.2     1  UNL1       -0.2531
     19 N         -12.8107  -17.8088   21.2295 N.am    1  UNL1       -0.2851
     20 H         -13.6391  -17.4398   24.5951 H       1  UNL1        0.1465
     21 H         -14.3398  -18.4885   23.4475 H       1  UNL1        0.1465
     22 H         -13.4684  -18.5044   20.9999 H       1  UNL1        0.1513
     23 C          -6.5086  -20.3038   21.5534 C.3     1  UNL1        0.0889
     24 C          -5.2632  -19.4681   21.5274 C.3     1  UNL1        0.0764
     25 C          -4.3930  -19.4568   20.3057 C.3     1  UNL1        0.0626
     26 C          -3.1475  -18.6212   20.2797 C.ar    1  UNL1        0.0577
     27 N          -2.2773  -18.6099   19.0580 N.ar    1  UNL1       -0.2484
     28 C          -1.0319  -17.7743   19.0320 C.ar    1  UNL1        0.0984
     29 C          -0.6568  -16.9499   20.2277 C.ar    1  UNL1        0.0204
     30 C          -1.5270  -16.9612   21.4494 C.ar    1  UNL1       -0.0002
     31 C          -2.7724  -17.7968   21.4754 C.ar    1  UNL1        0.0073
     32 C          -3.6427  -17.8081   22.6971 C.3     1  UNL1        0.0968
     33 N          -4.8880  -18.6437   22.7231 N.3     1  UNL1       -0.2934
     34 H          -5.6659  -18.0075   22.8979 H       1  UNL1        0.1236
@<TRIPOS>BOND
     1    16    17   am
     2    17    18    2
     3    17    19   am
     4    19    15    1
     5    15    13    1
     6    13    14    2
     7    14    12    1
     8    12     1    1
     9     1    23    1
    10    24    23    1
    11    24    25    1
    12    25    26    1
    13    26    27   ar
    14    27    28   ar
    15    28    29   ar
    16    29    30   ar
    17    30    31   ar
    18    31    32    1
    19    32    33    1
    20     2     1    1
    21     2     3    1
    22     3     4    1
    23     4     5    1
    24     5     6    1
    25     6     7   ar
    26     7     8   ar
    27     8     9   ar
    28     9    10   ar
    29    10    11   ar
    30    33    24    1
    31    11     2    1
    32    31    26   ar
    33    11     6   ar
    34    16    20    1
    35    16    21    1
    36    19    22    1
    37    33    34    1
@<TRIPOS>MOLECULE
*****
 34 37 0 0 0
SMALL
GASTEIGER

@<TRIPOS>ATOM
      1 N          -8.1136  -18.6946   21.3813 N.3     1  UNL1       -0.2641
      2 C          -9.1496  -19.0586   22.4032 C.3     1  UNL1        0.0981
      3 C          -8.8557  -20.1164   23.4252 C.3     1  UNL1        0.0224
      4 C          -9.8917  -20.4804   24.4472 C.3     1  UNL1        0.0065
      5 C         -11.2215  -19.7865   24.4470 C.3     1  UNL1        0.0277
      6 C         -11.5153  -18.7287   23.4250 C.ar    1  UNL1       -0.0073
      7 C         -12.8452  -18.0347   23.4248 C.ar    1  UNL1       -0.0015
      8 C         -13.1391  -16.9769   22.4028 C.ar    1  UNL1        0.0203
      9 C         -12.1031  -16.6130   21.3809 C.ar    1  UNL1        0.0985
     10 N         -10.7733  -17.3068   21.3810 N.ar    1  UNL1       -0.2471
     11 C         -10.4794  -18.3647   22.4031 C.ar    1  UNL1        0.0695
     12 C          -7.7750  -19.6564   20.2812 C.3     1  UNL1        0.0989
     13 C          -5.3248  -20.4478   20.6282 C.2     1  UNL1       -0.0081
     14 C          -6.3625  -19.7645   19.7878 C.2     1  UNL1       -0.0117
     15 C          -3.9124  -20.5559   20.1349 C.3     1  UNL1        0.1171
     16 N          -1.4686  -18.4236   22.4222 N.am    1  UNL1       -0.3133
     17 C          -2.6091  -18.7832   21.5166 C.2     1  UNL1        0.2979
     18 O          -3.5865  -17.7297   21.0869 O.2     1  UNL1       -0.2531
     19 N          -2.7720  -20.1963   21.0406 N.am    1  UNL1       -0.2851
     20 H          -1.3617  -17.4961   22.7346 H       1  UNL1        0.1465
     21 H          -0.8271  -19.1151   22.7042 H       1  UNL1        0.1465
     22 H          -2.1304  -20.8878   21.3226 H       1  UNL1        0.1513
     23 C          -7.4162  -17.3689   21.4595 C.3     1  UNL1        0.0889
     24 C          -7.0197  -16.8076   22.7928 C.3     1  UNL1        0.0764
     25 C          -8.0715  -16.4734   23.8087 C.3     1  UNL1        0.0626
     26 C          -7.6749  -15.9120   25.1420 C.ar    1  UNL1        0.0577
     27 N          -8.7267  -15.5778   26.1579 N.ar    1  UNL1       -0.2484
     28 C          -8.3301  -15.0164   27.4911 C.ar    1  UNL1        0.0984
     29 C          -6.8818  -14.7893   27.8085 C.ar    1  UNL1        0.0204
     30 C          -5.8300  -15.1235   26.7926 C.ar    1  UNL1       -0.0002
     31 C          -6.2266  -15.6848   25.4594 C.ar    1  UNL1        0.0073
     32 C          -5.1748  -16.0191   24.4434 C.3     1  UNL1        0.0968
     33 N          -5.5714  -16.5804   23.1102 N.3     1  UNL1       -0.2934
     34 H          -5.1051  -17.4832   23.0203 H       1  UNL1        0.1236
@<TRIPOS>BOND
     1    16    17   am
     2    17    18    2
     3    17    19   am
     4    19    15    1
     5    15    13    1
     6    13    14    2
     7    14    12    1
     8    12     1    1
     9     1    23    1
    10    24    23    1
    11    24    25    1
    12    25    26    1
    13    26    27   ar
    14    27    28   ar
    15    28    29   ar
    16    29    30   ar
    17    30    31   ar
    18    31    32    1
    19    32    33    1
    20     2     1    1
    21     2     3    1
    22     3     4    1
    23     4     5    1
    24     5     6    1
    25     6     7   ar
    26     7     8   ar
    27     8     9   ar
    28     9    10   ar
    29    10    11   ar
    30    33    24    1
    31    11     2    1
    32    31    26   ar
    33    11     6   ar
    34    16    20    1
    35    16    21    1
    36    19    22    1
    37    33    34    1
@<TRIPOS>MOLECULE
*****
 34 37 0 0 0
SMALL
GASTEIGER

@<TRIPOS>ATOM
      1 N          -7.8756  -18.0292   22.4860 N.3     1  UNL1       -0.2641
      2 C          -9.3062  -18.2169   22.8963 C.3     1  UNL1        0.0981
      3 C          -9.6371  -19.0309   24.1120 C.3     1  UNL1        0.0224
      4 C         -11.0676  -19.2186   24.5224 C.3     1  UNL1        0.0065
      5 C         -12.1672  -18.5923   23.7170 C.3     1  UNL1        0.0277
      6 C         -11.8363  -17.7783   22.5014 C.ar    1  UNL1       -0.0073
      7 C         -12.9359  -17.1520   21.6960 C.ar    1  UNL1       -0.0015
      8 C         -12.6050  -16.3380   20.4803 C.ar    1  UNL1        0.0203
      9 C         -11.1745  -16.1503   20.0700 C.ar    1  UNL1        0.0985
     10 N         -10.0749  -16.7766   20.8753 N.ar    1  UNL1       -0.2471
     11 C         -10.4058  -17.5906   22.0910 C.ar    1  UNL1        0.0695
     12 C          -7.2227  -16.6870   22.6345 C.3     1  UNL1        0.0989
     13 C          -5.5698  -16.0812   24.5453 C.2     1  UNL1       -0.0081
     14 C          -6.9670  -16.1244   24.0013 C.2     1  UNL1       -0.0117
     15 C          -5.3142  -15.5187   25.9120 C.3     1  UNL1        0.1171
     16 N          -8.5204  -14.4247   27.9794 N.am    1  UNL1       -0.3133
     17 C          -7.4867  -15.2874   27.3180 C.2     1  UNL1        0.2979
     18 O          -7.5919  -16.7813   27.4012 O.2     1  UNL1       -0.2531
     19 N          -6.3479  -14.6560   26.5735 N.am    1  UNL1       -0.2851
     20 H          -9.2679  -14.8391   28.4681 H       1  UNL1        0.1465
     21 H          -8.4513  -13.4441   27.9248 H       1  UNL1        0.1465
     22 H          -6.2788  -13.6755   26.5188 H       1  UNL1        0.1513
     23 C          -7.0980  -19.1837   21.9272 C.3     1  UNL1        0.0889
     24 C          -5.6278  -19.0414   21.6656 C.3     1  UNL1        0.0764
     25 C          -5.1480  -18.5307   20.3394 C.3     1  UNL1        0.0626
     26 C          -3.6778  -18.3883   20.0778 C.ar    1  UNL1        0.0577
     27 N          -3.1980  -17.8776   18.7516 N.ar    1  UNL1       -0.2484
     28 C          -1.7279  -17.7353   18.4901 C.ar    1  UNL1        0.0984
     29 C          -0.7376  -18.1036   19.5548 C.ar    1  UNL1        0.0204
     30 C          -1.2174  -18.6143   20.8811 C.ar    1  UNL1       -0.0002
     31 C          -2.6875  -18.7566   21.1426 C.ar    1  UNL1        0.0073
     32 C          -3.1674  -19.2673   22.4688 C.3     1  UNL1        0.0968
     33 N          -4.6375  -19.4097   22.7303 N.3     1  UNL1       -0.2934
     34 H          -4.8495  -18.8305   23.5427 H       1  UNL1        0.1236
@<TRIPOS>BOND
     1    16    17   am
     2    17    18    2
     3    17    19   am
     4    19    15    1
     5    15    13    1
     6    13    14    2
     7    14    12    1
     8    12     1    1
     9     1    23    1
    10    24    23    1
    11    24    25    1
    12    25    26    1
    13    26    27   ar
    14    27    28   ar
    15    28    29   ar
    16    29    30   ar
    17    30    31   ar
    18    31    32    1
    19    32    33    1
    20     2     1    1
    21     2     3    1
    22     3     4    1
    23     4     5    1
    24     5     6    1
    25     6     7   ar
    26     7     8   ar
    27     8     9   ar
    28     9    10   ar
    29    10    11   ar
    30    33    24    1
    31    11     2    1
    32    31    26   ar
    33    11     6   ar
    34    16    20    1
    35    16    21    1
    36    19    22    1
    37    33    34    1
@<TRIPOS>MOLECULE
*****
 34 37 0 0 0
SMALL
GASTEIGER

@<TRIPOS>ATOM
      1 N          -8.6052  -17.3108   21.6964 N.3     1  UNL1       -0.2641
      2 C         -10.0832  -17.1135   21.5332 C.3     1  UNL1        0.0981
      3 C         -10.6154  -16.3949   20.3289 C.3     1  UNL1        0.0224
      4 C         -12.0934  -16.1975   20.1657 C.3     1  UNL1        0.0065
      5 C         -13.0392  -16.7188   21.2068 C.3     1  UNL1        0.0277
      6 C         -12.5069  -17.4373   22.4110 C.ar    1  UNL1       -0.0073
      7 C         -13.4527  -17.9586   23.4522 C.ar    1  UNL1       -0.0015
      8 C         -12.9204  -18.6772   24.6565 C.ar    1  UNL1        0.0203
      9 C         -11.4424  -18.8745   24.8197 C.ar    1  UNL1        0.0985
     10 N         -10.4967  -18.3533   23.7786 N.ar    1  UNL1       -0.2471
     11 C         -11.0289  -17.6347   22.5743 C.ar    1  UNL1        0.0695
     12 C          -7.7447  -16.1765   22.1683 C.3     1  UNL1        0.0989
     13 C          -6.0433  -15.8824   24.1096 C.2     1  UNL1       -0.0081
     14 C          -7.4593  -16.0099   23.6315 C.2     1  UNL1       -0.0117
     15 C          -5.7579  -15.7158   25.5727 C.3     1  UNL1        0.1171
     16 N          -8.6454  -14.4330   27.9742 N.am    1  UNL1       -0.3133
     17 C          -7.7944  -15.3471   27.1434 C.2     1  UNL1        0.2979
     18 O          -8.1288  -16.8065   27.0524 O.2     1  UNL1       -0.2531
     19 N          -6.6090  -14.8018   26.4036 N.am    1  UNL1       -0.2851
     20 H          -9.4235  -14.7910   28.4598 H       1  UNL1        0.1465
     21 H          -8.4259  -13.4752   28.0340 H       1  UNL1        0.1465
     22 H          -6.3895  -13.8439   26.4633 H       1  UNL1        0.1513
     23 C          -7.9878  -18.6425   21.3877 C.3     1  UNL1        0.0889
     24 C          -6.4952  -18.7902   21.3662 C.3     1  UNL1        0.0764
     25 C          -5.7180  -18.3760   20.1520 C.3     1  UNL1        0.0626
     26 C          -4.2254  -18.5237   20.1304 C.ar    1  UNL1        0.0577
     27 N          -3.4482  -18.1094   18.9162 N.ar    1  UNL1       -0.2484
     28 C          -1.9557  -18.2572   18.8946 C.ar    1  UNL1        0.0984
     29 C          -1.2404  -18.8192   20.0873 C.ar    1  UNL1        0.0204
     30 C          -2.0175  -19.2335   21.3015 C.ar    1  UNL1       -0.0002
     31 C          -3.5100  -19.0857   21.3230 C.ar    1  UNL1        0.0073
     32 C          -4.2873  -19.5000   22.5373 C.3     1  UNL1        0.0968
     33 N          -5.7798  -19.3523   22.5588 N.3     1  UNL1       -0.2934
     34 H          -6.0045  -18.7475   23.3489 H       1  UNL1        0.1236
@<TRIPOS>BOND
     1    16    17   am
     2    17    18    2
     3    17    19   am
     4    19    15    1
     5    15    13    1
     6    13    14    2
     7    14    12    1
     8    12     1    1
     9     1    23    1
    10    24    23    1
    11    24    25    1
    12    25    26    1
    13    26    27   ar
    14    27    28   ar
    15    28    29   ar
    16    29    30   ar
    17    30    31   ar
    18    31    32    1
    19    32    33    1
    20     2     1    1
    21     2     3    1
    22     3     4    1
    23     4     5    1
    24     5     6    1
    25     6     7   ar
    26     7     8   ar
    27     8     9   ar
    28     9    10   ar
    29    10    11   ar
    30    33    24    1
    31    11     2    1
    32    31    26   ar
    33    11     6   ar
    34    16    20    1
    35    16    21    1
    36    19    22    1
    37    33    34    1
@<TRIPOS>MOLECULE
*****
 34 37 0 0 0
SMALL
GASTEIGER

@<TRIPOS>ATOM
      1 N          -8.6553  -18.0290   21.2524 N.3     1  UNL1       -0.2641
      2 C         -10.1014  -17.6313   21.2273 C.3     1  UNL1        0.0981
      3 C         -10.6539  -16.8864   20.0484 C.3     1  UNL1        0.0224
      4 C         -12.1000  -16.4887   20.0232 C.3     1  UNL1        0.0065
      5 C         -12.9936  -16.8360   21.1769 C.3     1  UNL1        0.0277
      6 C         -12.4410  -17.5809   22.3557 C.ar    1  UNL1       -0.0073
      7 C         -13.3345  -17.9281   23.5095 C.ar    1  UNL1       -0.0015
      8 C         -12.7820  -18.6730   24.6883 C.ar    1  UNL1        0.0203
      9 C         -11.3359  -19.0707   24.7135 C.ar    1  UNL1        0.0985
     10 N         -10.4423  -18.7235   23.5599 N.ar    1  UNL1       -0.2471
     11 C         -10.9949  -17.9785   22.3809 C.ar    1  UNL1        0.0695
     12 C          -8.2720  -19.4729   21.1174 C.3     1  UNL1        0.0989
     13 C          -5.8556  -19.4267   20.1641 C.2     1  UNL1       -0.0081
     14 C          -6.8308  -19.8782   21.2106 C.2     1  UNL1       -0.0117
     15 C          -4.4144  -19.8320   20.2573 C.3     1  UNL1        0.1171
     16 N          -1.2805  -17.5351   21.0655 N.am    1  UNL1       -0.3133
     17 C          -2.2531  -18.3912   20.3097 C.2     1  UNL1        0.2979
     18 O          -2.0368  -18.6626   18.8503 O.2     1  UNL1       -0.2531
     19 N          -3.4418  -18.9759   21.0131 N.am    1  UNL1       -0.2851
     20 H          -0.5003  -17.1513   20.6037 H       1  UNL1        0.1465
     21 H          -1.4224  -17.3569   22.0233 H       1  UNL1        0.1465
     22 H          -3.5837  -18.7978   21.9709 H       1  UNL1        0.1513
     23 C          -7.5924  -16.9828   21.4127 C.3     1  UNL1        0.0889
     24 C          -7.1714  -16.5452   22.7843 C.3     1  UNL1        0.0764
     25 C          -8.2077  -16.2219   23.8195 C.3     1  UNL1        0.0626
     26 C          -7.7867  -15.7843   25.1911 C.ar    1  UNL1        0.0577
     27 N          -8.8230  -15.4611   26.2262 N.ar    1  UNL1       -0.2484
     28 C          -8.4020  -15.0235   27.5978 C.ar    1  UNL1        0.0984
     29 C          -6.9447  -14.9092   27.9342 C.ar    1  UNL1        0.0204
     30 C          -5.9084  -15.2325   26.8991 C.ar    1  UNL1       -0.0002
     31 C          -6.3294  -15.6700   25.5275 C.ar    1  UNL1        0.0073
     32 C          -5.2931  -15.9933   24.4923 C.3     1  UNL1        0.0968
     33 N          -5.7141  -16.4309   23.1207 N.3     1  UNL1       -0.2934
     34 H          -5.3031  -17.3516   22.9663 H       1  UNL1        0.1236
@<TRIPOS>BOND
     1    16    17   am
     2    17    18    2
     3    17    19   am
     4    19    15    1
     5    15    13    1
     6    13    14    2
     7    14    12    1
     8    12     1    1
     9     1    23    1
    10    24    23    1
    11    24    25    1
    12    25    26    1
    13    26    27   ar
    14    27    28   ar
    15    28    29   ar
    16    29    30   ar
    17    30    31   ar
    18    31    32    1
    19    32    33    1
    20     2     1    1
    21     2     3    1
    22     3     4    1
    23     4     5    1
    24     5     6    1
    25     6     7   ar
    26     7     8   ar
    27     8     9   ar
    28     9    10   ar
    29    10    11   ar
    30    33    24    1
    31    11     2    1
    32    31    26   ar
    33    11     6   ar
    34    16    20    1
    35    16    21    1
    36    19    22    1
    37    33    34    1
