@<TRIPOS>MOLECULE
*****
 39 41 0 0 0
SMALL
GASTEIGER

@<TRIPOS>ATOM
      1 C           1.9957   -0.7928   19.8775 C.2     1  UNL1        0.2491
      2 O           0.6742   -0.7943   20.5872 O.2     1  UNL1       -0.2699
      3 N           2.2244    0.1337   18.7203 N.am    1  UNL1       -0.2775
      4 C           5.0361   -2.2793   21.9502 C.ar    1  UNL1        0.1723
      5 C           3.9434   -1.3543   21.5027 C.ar    1  UNL1        0.0446
      6 C           3.0885   -1.7179   20.3250 C.ar    1  UNL1        0.0568
      7 C           3.3263   -3.0064   19.5949 C.ar    1  UNL1        0.0078
      8 C           4.4190   -3.9313   20.0424 C.ar    1  UNL1        0.0402
      9 C           5.2739   -3.5678   21.2201 C.ar    1  UNL1        0.1724
     10 O           6.3667   -4.4928   21.6676 O.3     1  UNL1       -0.4684
     11 C           7.7695   -4.2890   21.1772 C.3     1  UNL1        0.2526
     12 O           5.8910   -1.9158   23.1279 O.3     1  UNL1       -0.4723
     13 C           5.5685   -2.4637   24.4865 C.3     1  UNL1        0.2082
     14 C           5.2556   -1.5290   25.6172 C.3     1  UNL1        0.0794
     15 C           3.8323   -1.3102   26.0375 C.3     1  UNL1        0.1461
     16 C           2.7077   -0.6989   28.2983 C.3     1  UNL1        0.1741
     17 O           3.3885   -1.7025   27.4155 O.3     1  UNL1       -0.3510
     18 C           3.5460    0.1352   18.0106 C.3     1  UNL1        0.0757
     19 C           4.6480    1.0384   18.4794 C.3     1  UNL1        0.0215
     20 C           3.7654   -0.7664   16.8321 C.3     1  UNL1        0.0215
     21 C           1.1318    1.0588   18.2727 C.3     1  UNL1        0.0986
     22 C           1.0174    2.4294   18.8713 C.3     1  UNL1        0.0771
     23 C           0.1406    3.5392   18.3718 C.3     1  UNL1        0.0740
     24 N           0.3410    4.7266   19.2662 N.3     1  UNL1       -0.2943
     25 C           1.3417    4.3507   20.3185 C.3     1  UNL1        0.1129
     26 C           1.7597    2.9309   20.0744 C.3     1  UNL1        0.1890
     27 H          -0.5434    4.9825   19.7053 H       1  UNL1        0.1234
     28 O           2.7468    2.1498   20.8902 O.3     1  UNL1       -0.4369
     29 C           2.5245    1.9659   22.3621 C.2     1  UNL1        0.4018
     30 O           3.4011    2.6798   23.3480 O.2     1  UNL1       -0.2264
     31 N           1.4256    1.0680   22.8483 N.am    1  UNL1       -0.2665
     32 H           0.8502    0.5994   22.2013 H       1  UNL1        0.1531
     33 C           1.2033    0.8842   24.3203 C.3     1  UNL1        0.1194
     34 C           0.1361    1.6709   25.0217 C.ar    1  UNL1       -0.0025
     35 C          -0.1240    1.4463   26.4819 C.ar    1  UNL1       -0.0026
     36 C          -1.1912    2.2330   27.1834 C.ar    1  UNL1       -0.0003
     37 C          -1.9985    3.2443   26.4247 C.ar    1  UNL1       -0.0000
     38 C          -1.7385    3.4689   24.9645 C.ar    1  UNL1       -0.0003
     39 C          -0.6712    2.6822   24.2631 C.ar    1  UNL1       -0.0026
@<TRIPOS>BOND
     1    16    17    1
     2    17    15    1
     3    15    14    1
     4    14    13    1
     5    13    12    1
     6    12     4    1
     7     4     5   ar
     8     5     6   ar
     9     6     1    1
    10     1     2    2
    11     1     3   am
    12     3    21    1
    13    22    21    1
    14    22    23    1
    15    23    24    1
    16    24    25    1
    17    25    26    1
    18    26    28    1
    19    28    29    1
    20    29    30    2
    21    29    31   am
    22    31    33    1
    23    33    34    1
    24    34    35   ar
    25    35    36   ar
    26    36    37   ar
    27    37    38   ar
    28    38    39   ar
    29     3    18    1
    30    18    19    1
    31    18    20    1
    32     6     7   ar
    33     7     8   ar
    34     8     9   ar
    35     9    10    1
    36    10    11    1
    37     9     4   ar
    38    26    22    1
    39    39    34   ar
    40    24    27    1
    41    31    32    1
@<TRIPOS>MOLECULE
*****
 39 41 0 0 0
SMALL
GASTEIGER

@<TRIPOS>ATOM
      1 C          -0.3584    1.3163   27.7777 C.2     1  UNL1        0.2491
      2 O          -0.9775   -0.0152   28.0837 O.2     1  UNL1       -0.2699
      3 N           0.3446    2.0827   28.8587 N.am    1  UNL1       -0.2775
      4 C          -1.6496    3.3708   24.6373 C.ar    1  UNL1        0.1723
      5 C          -1.5657    2.8055   26.0242 C.ar    1  UNL1        0.0446
      6 C          -0.4423    1.8816   26.3908 C.ar    1  UNL1        0.0568
      7 C           0.5971    1.5229   25.3706 C.ar    1  UNL1        0.0078
      8 C           0.5131    2.0881   23.9837 C.ar    1  UNL1        0.0402
      9 C          -0.6102    3.0121   23.6171 C.ar    1  UNL1        0.1724
     10 O          -0.6942    3.5773   22.2302 O.3     1  UNL1       -0.4684
     11 C          -0.9661    2.6712   21.0662 C.3     1  UNL1        0.2526
     12 O          -2.7730    4.2947   24.2707 O.3     1  UNL1       -0.4723
     13 C          -4.1905    3.8062   24.3144 C.3     1  UNL1        0.2082
     14 C          -5.0451    4.0902   25.5140 C.3     1  UNL1        0.0794
     15 C          -4.5796    5.0681   26.5519 C.3     1  UNL1        0.1461
     16 C          -6.7228    6.1479   27.5471 C.3     1  UNL1        0.1741
     17 O          -5.4493    5.3778   27.7341 O.3     1  UNL1       -0.3510
     18 C           0.9637    3.4143   28.5527 C.3     1  UNL1        0.0757
     19 C           0.1768    4.6736   28.7642 C.3     1  UNL1        0.0215
     20 C           2.3698    3.4865   28.0352 C.3     1  UNL1        0.0215
     21 C           0.4286    1.5175   30.2456 C.3     1  UNL1        0.0986
     22 C           1.7140    0.9190   30.7350 C.3     1  UNL1        0.0771
     23 C           2.3845    1.2189   32.0429 C.3     1  UNL1        0.0740
     24 N           3.6395    0.4008   32.1188 N.3     1  UNL1       -0.2943
     25 C           3.7446   -0.4047   30.8578 C.3     1  UNL1        0.1129
     26 C           2.5546   -0.0845   30.0026 C.3     1  UNL1        0.1890
     27 H           3.5982   -0.2224   32.9252 H       1  UNL1        0.1234
     28 O           2.2574   -0.6656   28.6521 O.3     1  UNL1       -0.4369
     29 C           3.2879   -0.6006   27.5642 C.2     1  UNL1        0.4018
     30 O           4.0785    0.6569   27.3542 O.2     1  UNL1       -0.2264
     31 N           3.5281   -1.7928   26.6862 N.am    1  UNL1       -0.2665
     32 H           3.0093   -2.6181   26.8240 H       1  UNL1        0.1531
     33 C           4.5587   -1.7276   25.5983 C.3     1  UNL1        0.1194
     34 C           4.1303   -1.6565   24.1626 C.ar    1  UNL1       -0.0025
     35 C           4.6399   -2.6659   23.1770 C.ar    1  UNL1       -0.0026
     36 C           4.2115   -2.5949   21.7412 C.ar    1  UNL1       -0.0003
     37 C           3.2734   -1.5144   21.2910 C.ar    1  UNL1       -0.0000
     38 C           2.7638   -0.5050   22.2767 C.ar    1  UNL1       -0.0003
     39 C           3.1922   -0.5761   23.7124 C.ar    1  UNL1       -0.0026
@<TRIPOS>BOND
     1    16    17    1
     2    17    15    1
     3    15    14    1
     4    14    13    1
     5    13    12    1
     6    12     4    1
     7     4     5   ar
     8     5     6   ar
     9     6     1    1
    10     1     2    2
    11     1     3   am
    12     3    21    1
    13    22    21    1
    14    22    23    1
    15    23    24    1
    16    24    25    1
    17    25    26    1
    18    26    28    1
    19    28    29    1
    20    29    30    2
    21    29    31   am
    22    31    33    1
    23    33    34    1
    24    34    35   ar
    25    35    36   ar
    26    36    37   ar
    27    37    38   ar
    28    38    39   ar
    29     3    18    1
    30    18    19    1
    31    18    20    1
    32     6     7   ar
    33     7     8   ar
    34     8     9   ar
    35     9    10    1
    36    10    11    1
    37     9     4   ar
    38    26    22    1
    39    39    34   ar
    40    24    27    1
    41    31    32    1
@<TRIPOS>MOLECULE
*****
 39 41 0 0 0
SMALL
GASTEIGER

@<TRIPOS>ATOM
      1 C           5.8468   -3.6515   22.5668 C.2     1  UNL1        0.2491
      2 O           4.3471   -3.6485   22.5922 O.2     1  UNL1       -0.2699
      3 N           6.5746   -3.8621   21.2723 N.am    1  UNL1       -0.2775
      4 C           7.6922   -4.4027   25.9991 C.ar    1  UNL1        0.1723
      5 C           6.9202   -4.6102   24.7299 C.ar    1  UNL1        0.0446
      6 C           6.6188   -3.4439   23.8361 C.ar    1  UNL1        0.0568
      7 C           7.0895   -2.0701   24.2115 C.ar    1  UNL1        0.0078
      8 C           7.8615   -1.8625   25.4807 C.ar    1  UNL1        0.0402
      9 C           8.1628   -3.0288   26.3745 C.ar    1  UNL1        0.1724
     10 O           8.9349   -2.8212   27.6438 O.3     1  UNL1       -0.4684
     11 C           8.3677   -1.9618   28.7345 C.3     1  UNL1        0.2526
     12 O           7.9935   -5.5690   26.8929 O.3     1  UNL1       -0.4723
     13 C           7.1200   -5.8499   28.0795 C.3     1  UNL1        0.2082
     14 C           7.7304   -5.9997   29.4415 C.3     1  UNL1        0.0794
     15 C           6.9475   -5.6123   30.6609 C.3     1  UNL1        0.1461
     16 C           6.4211   -3.6716   32.3061 C.3     1  UNL1        0.1741
     17 O           6.6014   -4.1731   30.9040 O.3     1  UNL1       -0.3510
     18 C           8.0744   -3.8652   21.2469 C.3     1  UNL1        0.0757
     19 C           8.8240   -2.5796   21.0588 C.3     1  UNL1        0.0215
     20 C           8.8247   -5.1538   21.4097 C.3     1  UNL1        0.0215
     21 C           5.8027   -4.0697   20.0030 C.3     1  UNL1        0.0986
     22 C           5.6602   -2.9461   19.0196 C.3     1  UNL1        0.0771
     23 C           6.7306   -2.4388   18.0994 C.3     1  UNL1        0.0740
     24 N           6.1543   -1.3117   17.2947 N.3     1  UNL1       -0.2943
     25 C           4.7276   -1.1225   17.7175 C.3     1  UNL1        0.1129
     26 C           4.4223   -2.1326   18.7835 C.3     1  UNL1        0.1890
     27 H           6.1935   -1.5402   16.3013 H       1  UNL1        0.1234
     28 O           3.1094   -2.2998   19.4896 O.3     1  UNL1       -0.4369
     29 C           2.6842   -1.3046   20.5281 C.2     1  UNL1        0.4018
     30 O           1.3241   -0.6764   20.4525 O.2     1  UNL1       -0.2264
     31 N           3.6190   -0.9374   21.6423 N.am    1  UNL1       -0.2665
     32 H           4.5116   -1.3496   21.6919 H       1  UNL1        0.1531
     33 C           3.1937    0.0579   22.6808 C.3     1  UNL1        0.1194
     34 C           3.8050    0.0207   24.0501 C.ar    1  UNL1       -0.0025
     35 C           3.5554   -1.1522   24.9512 C.ar    1  UNL1       -0.0026
     36 C           4.1667   -1.1895   26.3206 C.ar    1  UNL1       -0.0003
     37 C           5.0275   -0.0538   26.7887 C.ar    1  UNL1       -0.0000
     38 C           5.2771    1.1191   25.8876 C.ar    1  UNL1       -0.0003
     39 C           4.6658    1.1564   24.5183 C.ar    1  UNL1       -0.0026
@<TRIPOS>BOND
     1    16    17    1
     2    17    15    1
     3    15    14    1
     4    14    13    1
     5    13    12    1
     6    12     4    1
     7     4     5   ar
     8     5     6   ar
     9     6     1    1
    10     1     2    2
    11     1     3   am
    12     3    21    1
    13    22    21    1
    14    22    23    1
    15    23    24    1
    16    24    25    1
    17    25    26    1
    18    26    28    1
    19    28    29    1
    20    29    30    2
    21    29    31   am
    22    31    33    1
    23    33    34    1
    24    34    35   ar
    25    35    36   ar
    26    36    37   ar
    27    37    38   ar
    28    38    39   ar
    29     3    18    1
    30    18    19    1
    31    18    20    1
    32     6     7   ar
    33     7     8   ar
    34     8     9   ar
    35     9    10    1
    36    10    11    1
    37     9     4   ar
    38    26    22    1
    39    39    34   ar
    40    24    27    1
    41    31    32    1
@<TRIPOS>MOLECULE
*****
 39 41 0 0 0
SMALL
GASTEIGER

@<TRIPOS>ATOM
      1 C           8.1245   -4.7700   22.2146 C.2     1  UNL1        0.2491
      2 O           8.4956   -6.2186   22.0981 O.2     1  UNL1       -0.2699
      3 N           8.1433   -4.0963   23.5547 N.am    1  UNL1       -0.2775
      4 C           5.9491   -3.3234   19.2271 C.ar    1  UNL1        0.1723
      5 C           6.3391   -4.0985   20.4507 C.ar    1  UNL1        0.0446
      6 C           7.7345   -3.9948   20.9910 C.ar    1  UNL1        0.0568
      7 C           8.7400   -3.1161   20.3078 C.ar    1  UNL1        0.0078
      8 C           8.3500   -2.3410   19.0842 C.ar    1  UNL1        0.0402
      9 C           6.9545   -2.4447   18.5439 C.ar    1  UNL1        0.1724
     10 O           6.5646   -1.6696   17.3202 O.3     1  UNL1       -0.4684
     11 C           5.9807   -0.2948   17.4578 C.3     1  UNL1        0.2526
     12 O           4.5536   -3.4271   18.6868 O.3     1  UNL1       -0.4723
     13 C           3.4014   -2.8787   19.4752 C.3     1  UNL1        0.2082
     14 C           3.5506   -1.5858   20.2209 C.3     1  UNL1        0.0794
     15 C           2.3461   -0.9222   20.8199 C.3     1  UNL1        0.1461
     16 C           1.1647    0.4789   18.9784 C.3     1  UNL1        0.1741
     17 O           1.1413   -0.6464   19.9699 O.3     1  UNL1       -0.3510
     18 C           7.7722   -2.6476   23.6712 C.3     1  UNL1        0.0757
     19 C           6.3309   -2.2358   23.6164 C.3     1  UNL1        0.0215
     20 C           8.8424   -1.6107   23.8425 C.3     1  UNL1        0.0215
     21 C           8.5333   -4.8714   24.7783 C.3     1  UNL1        0.0986
     22 C           7.5570   -5.0347   25.9054 C.3     1  UNL1        0.0771
     23 C           6.8666   -3.9251   26.6416 C.3     1  UNL1        0.0740
     24 N           5.9827   -4.5409   27.6854 N.3     1  UNL1       -0.2943
     25 C           6.1268   -6.0312   27.5943 C.3     1  UNL1        0.1129
     26 C           7.0998   -6.3363   26.4942 C.3     1  UNL1        0.1890
     27 H           5.0122   -4.2760   27.5172 H       1  UNL1        0.1234
     28 O           7.5385   -7.7032   26.0592 O.3     1  UNL1       -0.4369
     29 C           7.5424   -8.8374   27.0408 C.2     1  UNL1        0.4018
     30 O           8.6639   -8.9711   28.0280 O.2     1  UNL1       -0.2264
     31 N           6.4249   -9.8379   27.0353 N.am    1  UNL1       -0.2665
     32 H           5.6888   -9.7502   26.3874 H       1  UNL1        0.1531
     33 C           6.4289  -10.9721   28.0169 C.3     1  UNL1        0.1194
     34 C           5.2828  -11.9393   28.0501 C.ar    1  UNL1       -0.0025
     35 C           4.2822  -11.8784   29.1659 C.ar    1  UNL1       -0.0026
     36 C           3.1360  -12.8456   29.1992 C.ar    1  UNL1       -0.0003
     37 C           2.9906  -13.8736   28.1167 C.ar    1  UNL1       -0.0000
     38 C           3.9913  -13.9345   27.0008 C.ar    1  UNL1       -0.0003
     39 C           5.1374  -12.9674   26.9676 C.ar    1  UNL1       -0.0026
@<TRIPOS>BOND
     1    16    17    1
     2    17    15    1
     3    15    14    1
     4    14    13    1
     5    13    12    1
     6    12     4    1
     7     4     5   ar
     8     5     6   ar
     9     6     1    1
    10     1     2    2
    11     1     3   am
    12     3    21    1
    13    22    21    1
    14    22    23    1
    15    23    24    1
    16    24    25    1
    17    25    26    1
    18    26    28    1
    19    28    29    1
    20    29    30    2
    21    29    31   am
    22    31    33    1
    23    33    34    1
    24    34    35   ar
    25    35    36   ar
    26    36    37   ar
    27    37    38   ar
    28    38    39   ar
    29     3    18    1
    30    18    19    1
    31    18    20    1
    32     6     7   ar
    33     7     8   ar
    34     8     9   ar
    35     9    10    1
    36    10    11    1
    37     9     4   ar
    38    26    22    1
    39    39    34   ar
    40    24    27    1
    41    31    32    1
@<TRIPOS>MOLECULE
*****
 39 41 0 0 0
SMALL
GASTEIGER

@<TRIPOS>ATOM
      1 C           3.2669   -1.0921   21.6817 C.2     1  UNL1        0.2491
      2 O           2.6702   -1.7157   20.4549 O.2     1  UNL1       -0.2699
      3 N           4.1647   -1.8989   22.5722 N.am    1  UNL1       -0.2775
      4 C           1.3360    2.1368   22.9450 C.ar    1  UNL1        0.1723
      5 C           1.6371    0.7064   22.6087 C.ar    1  UNL1        0.0446
      6 C           2.9658    0.3385   22.0180 C.ar    1  UNL1        0.0568
      7 C           3.9935    1.4010   21.7635 C.ar    1  UNL1        0.0078
      8 C           3.6924    2.8315   22.0998 C.ar    1  UNL1        0.0402
      9 C           2.3636    3.1993   22.6905 C.ar    1  UNL1        0.1724
     10 O           2.0626    4.6299   23.0268 O.3     1  UNL1       -0.4684
     11 C           2.9886    5.4013   23.9197 C.3     1  UNL1        0.2526
     12 O           0.0072    2.5047   23.5357 O.3     1  UNL1       -0.4723
     13 C          -0.9703    3.3149   22.7369 C.3     1  UNL1        0.2082
     14 C          -1.1925    3.0050   21.2862 C.3     1  UNL1        0.0794
     15 C          -2.4423    3.4742   20.6020 C.3     1  UNL1        0.1461
     16 C          -5.0288    3.3690   20.3815 C.3     1  UNL1        0.1741
     17 O          -3.7367    2.7499   20.8254 O.3     1  UNL1       -0.3510
     18 C           4.7615   -1.2751   23.7990 C.3     1  UNL1        0.0757
     19 C           4.0359   -1.3546   25.1094 C.3     1  UNL1        0.0215
     20 C           6.0838   -0.5719   23.7153 C.3     1  UNL1        0.0215
     21 C           4.4658   -3.3293   22.2360 C.3     1  UNL1        0.0986
     22 C           5.8559   -3.7300   21.8395 C.3     1  UNL1        0.0771
     23 C           7.0306   -3.8679   22.7619 C.3     1  UNL1        0.0740
     24 N           8.2161   -4.2863   21.9435 N.3     1  UNL1       -0.2943
     25 C           7.7739   -4.4069   20.5153 C.3     1  UNL1        0.1129
     26 C           6.3153   -4.0631   20.4510 C.3     1  UNL1        0.1890
     27 H           8.5655   -5.1855   22.2748 H       1  UNL1        0.1234
     28 O           5.4652   -4.0540   19.2151 O.3     1  UNL1       -0.4369
     29 C           5.4381   -2.8417   18.3324 C.2     1  UNL1        0.4018
     30 O           6.6914   -2.3853   17.6461 O.2     1  UNL1       -0.2264
     31 N           4.1576   -2.0855   18.1358 N.am    1  UNL1       -0.2665
     32 H           3.3350   -2.3849   18.5862 H       1  UNL1        0.1531
     33 C           4.1305   -0.8731   17.2530 C.3     1  UNL1        0.1194
     34 C           3.5279    0.4060   17.7538 C.ar    1  UNL1       -0.0025
     35 C           2.0678    0.4651   18.0925 C.ar    1  UNL1       -0.0026
     36 C           1.4651    1.7441   18.5933 C.ar    1  UNL1       -0.0003
     37 C           2.3226    2.9642   18.7554 C.ar    1  UNL1       -0.0000
     38 C           3.7827    2.9051   18.4167 C.ar    1  UNL1       -0.0003
     39 C           4.3853    1.6261   17.9159 C.ar    1  UNL1       -0.0026
@<TRIPOS>BOND
     1    16    17    1
     2    17    15    1
     3    15    14    1
     4    14    13    1
     5    13    12    1
     6    12     4    1
     7     4     5   ar
     8     5     6   ar
     9     6     1    1
    10     1     2    2
    11     1     3   am
    12     3    21    1
    13    22    21    1
    14    22    23    1
    15    23    24    1
    16    24    25    1
    17    25    26    1
    18    26    28    1
    19    28    29    1
    20    29    30    2
    21    29    31   am
    22    31    33    1
    23    33    34    1
    24    34    35   ar
    25    35    36   ar
    26    36    37   ar
    27    37    38   ar
    28    38    39   ar
    29     3    18    1
    30    18    19    1
    31    18    20    1
    32     6     7   ar
    33     7     8   ar
    34     8     9   ar
    35     9    10    1
    36    10    11    1
    37     9     4   ar
    38    26    22    1
    39    39    34   ar
    40    24    27    1
    41    31    32    1
@<TRIPOS>MOLECULE
*****
 39 41 0 0 0
SMALL
GASTEIGER

@<TRIPOS>ATOM
      1 C           3.2405   -1.1694   22.0722 C.2     1  UNL1        0.2491
      2 O           2.7033   -1.8064   20.8250 O.2     1  UNL1       -0.2699
      3 N           4.2442   -1.8993   22.9147 N.am    1  UNL1       -0.2775
      4 C           1.1996    1.7131   23.8821 C.ar    1  UNL1        0.1723
      5 C           1.6662    0.3462   23.4773 C.ar    1  UNL1        0.0446
      6 C           2.7740    0.1976   22.4770 C.ar    1  UNL1        0.0568
      7 C           3.4152    1.4158   21.8815 C.ar    1  UNL1        0.0078
      8 C           2.9487    2.7827   22.2863 C.ar    1  UNL1        0.0402
      9 C           1.8409    2.9313   23.2866 C.ar    1  UNL1        0.1724
     10 O           1.3743    4.2983   23.6914 O.3     1  UNL1       -0.4684
     11 C           2.0081    4.9912   24.8611 C.3     1  UNL1        0.2526
     12 O           0.0918    1.8618   24.8824 O.3     1  UNL1       -0.4723
     13 C           0.3877    1.7623   26.3496 C.3     1  UNL1        0.2082
     14 C          -0.7232    1.4997   27.3226 C.3     1  UNL1        0.0794
     15 C          -0.6960    0.2673   28.1773 C.3     1  UNL1        0.1461
     16 C           0.3841    1.6252   30.1111 C.3     1  UNL1        0.1741
     17 O          -0.0832    0.3168   29.5455 O.3     1  UNL1       -0.3510
     18 C           4.7814   -1.2622   24.1620 C.3     1  UNL1        0.0757
     19 C           5.9497   -0.3248   24.0820 C.3     1  UNL1        0.0215
     20 C           4.1503   -1.5626   25.4892 C.3     1  UNL1        0.0215
     21 C           4.7108   -3.2662   22.5100 C.3     1  UNL1        0.0986
     22 C           6.1282   -3.4737   22.0650 C.3     1  UNL1        0.0771
     23 C           7.3369   -3.4954   22.9530 C.3     1  UNL1        0.0740
     24 N           8.5414   -3.7310   22.0907 N.3     1  UNL1       -0.2943
     25 C           8.0772   -3.8551   20.6698 C.3     1  UNL1        0.1129
     26 C           6.5857   -3.6960   20.6539 C.3     1  UNL1        0.1890
     27 H           9.0100   -4.5903   22.3780 H       1  UNL1        0.1234
     28 O           5.7062   -3.7498   19.4400 O.3     1  UNL1       -0.4369
     29 C           5.6139   -2.5630   18.5274 C.2     1  UNL1        0.4018
     30 O           6.6791   -2.3231   17.4989 O.2     1  UNL1       -0.2264
     31 N           4.4565   -1.6160   18.6433 N.am    1  UNL1       -0.2665
     32 H           3.7573   -1.7734   19.3184 H       1  UNL1        0.1531
     33 C           4.3642   -0.4291   17.7307 C.3     1  UNL1        0.1194
     34 C           3.4658    0.7194   18.0825 C.ar    1  UNL1       -0.0025
     35 C           4.0332    2.1014   18.2174 C.ar    1  UNL1       -0.0026
     36 C           3.1349    3.2500   18.5692 C.ar    1  UNL1       -0.0003
     37 C           1.6692    3.0166   18.7860 C.ar    1  UNL1       -0.0000
     38 C           1.1017    1.6346   18.6510 C.ar    1  UNL1       -0.0003
     39 C           2.0001    0.4860   18.2993 C.ar    1  UNL1       -0.0026
@<TRIPOS>BOND
     1    16    17    1
     2    17    15    1
     3    15    14    1
     4    14    13    1
     5    13    12    1
     6    12     4    1
     7     4     5   ar
     8     5     6   ar
     9     6     1    1
    10     1     2    2
    11     1     3   am
    12     3    21    1
    13    22    21    1
    14    22    23    1
    15    23    24    1
    16    24    25    1
    17    25    26    1
    18    26    28    1
    19    28    29    1
    20    29    30    2
    21    29    31   am
    22    31    33    1
    23    33    34    1
    24    34    35   ar
    25    35    36   ar
    26    36    37   ar
    27    37    38   ar
    28    38    39   ar
    29     3    18    1
    30    18    19    1
    31    18    20    1
    32     6     7   ar
    33     7     8   ar
    34     8     9   ar
    35     9    10    1
    36    10    11    1
    37     9     4   ar
    38    26    22    1
    39    39    34   ar
    40    24    27    1
    41    31    32    1
@<TRIPOS>MOLECULE
*****
 39 41 0 0 0
SMALL
GASTEIGER

@<TRIPOS>ATOM
      1 C           5.7824   -3.3197   21.9235 C.2     1  UNL1        0.2491
      2 O           4.7512   -4.3851   22.1505 O.2     1  UNL1       -0.2699
      3 N           6.7877   -3.0090   22.9926 N.am    1  UNL1       -0.2775
      4 C           4.8962   -0.6599   19.1145 C.ar    1  UNL1        0.1723
      5 C           4.8703   -1.4147   20.4105 C.ar    1  UNL1        0.0446
      6 C           5.8084   -2.5649   20.6275 C.ar    1  UNL1        0.0568
      7 C           6.7723   -2.9604   19.5484 C.ar    1  UNL1        0.0078
      8 C           6.7982   -2.2056   18.2524 C.ar    1  UNL1        0.0402
      9 C           5.8602   -1.0554   18.0355 C.ar    1  UNL1        0.1724
     10 O           5.8861   -0.3006   16.7394 O.3     1  UNL1       -0.4684
     11 C           6.8148    0.8649   16.5688 C.3     1  UNL1        0.2526
     12 O           3.9582    0.4903   18.8976 O.3     1  UNL1       -0.4723
     13 C           2.7422    0.3144   18.0372 C.3     1  UNL1        0.2082
     14 C           1.3784    0.5789   18.6030 C.3     1  UNL1        0.0794
     15 C           0.9143   -0.1648   19.8202 C.3     1  UNL1        0.1461
     16 C           0.3989    1.3388   21.8754 C.3     1  UNL1        0.1741
     17 O          -0.0774    0.4664   20.7520 O.3     1  UNL1       -0.3510
     18 C           7.8190   -1.9436   22.7656 C.3     1  UNL1        0.0757
     19 C           7.4872   -0.5074   23.0434 C.3     1  UNL1        0.0215
     20 C           9.1819   -2.3144   22.2607 C.3     1  UNL1        0.0215
     21 C           6.7618   -3.7637   24.2886 C.3     1  UNL1        0.0986
     22 C           7.3805   -5.1275   24.3749 C.3     1  UNL1        0.0771
     23 C           8.2065   -5.7897   23.3123 C.3     1  UNL1        0.0740
     24 N           8.6184   -7.1399   23.8196 N.3     1  UNL1       -0.2943
     25 C           8.0470   -7.3121   25.1957 C.3     1  UNL1        0.1129
     26 C           7.2819   -6.0684   25.5389 C.3     1  UNL1        0.1890
     27 H           9.6360   -7.1999   23.8573 H       1  UNL1        0.1234
     28 O           6.5473   -5.8108   26.8210 O.3     1  UNL1       -0.4369
     29 C           7.2937   -5.7891   28.1219 C.2     1  UNL1        0.4018
     30 O           8.7936   -5.8067   28.1263 O.2     1  UNL1       -0.2264
     31 N           6.5403   -5.7499   29.4184 N.am    1  UNL1       -0.2665
     32 H           5.5559   -5.7384   29.4155 H       1  UNL1        0.1531
     33 C           7.2868   -5.7283   30.7192 C.3     1  UNL1        0.1194
     34 C           7.5458   -4.4242   31.4138 C.ar    1  UNL1       -0.0025
     35 C           8.9537   -3.9448   31.6084 C.ar    1  UNL1       -0.0026
     36 C           9.2128   -2.6407   32.3029 C.ar    1  UNL1       -0.0003
     37 C           8.0639   -1.8161   32.8028 C.ar    1  UNL1       -0.0000
     38 C           6.6558   -2.2955   32.6082 C.ar    1  UNL1       -0.0003
     39 C           6.3969   -3.5996   31.9136 C.ar    1  UNL1       -0.0026
@<TRIPOS>BOND
     1    16    17    1
     2    17    15    1
     3    15    14    1
     4    14    13    1
     5    13    12    1
     6    12     4    1
     7     4     5   ar
     8     5     6   ar
     9     6     1    1
    10     1     2    2
    11     1     3   am
    12     3    21    1
    13    22    21    1
    14    22    23    1
    15    23    24    1
    16    24    25    1
    17    25    26    1
    18    26    28    1
    19    28    29    1
    20    29    30    2
    21    29    31   am
    22    31    33    1
    23    33    34    1
    24    34    35   ar
    25    35    36   ar
    26    36    37   ar
    27    37    38   ar
    28    38    39   ar
    29     3    18    1
    30    18    19    1
    31    18    20    1
    32     6     7   ar
    33     7     8   ar
    34     8     9   ar
    35     9    10    1
    36    10    11    1
    37     9     4   ar
    38    26    22    1
    39    39    34   ar
    40    24    27    1
    41    31    32    1
@<TRIPOS>MOLECULE
*****
 39 41 0 0 0
SMALL
GASTEIGER

@<TRIPOS>ATOM
      1 C           5.0417   -2.5871   23.4232 C.2     1  UNL1        0.2491
      2 O           4.4815   -3.8350   22.8077 O.2     1  UNL1       -0.2699
      3 N           6.2763   -2.6585   24.2721 N.am    1  UNL1       -0.2775
      4 C           2.4244    0.3847   23.6851 C.ar    1  UNL1        0.1723
      5 C           3.0989   -0.9346   23.9183 C.ar    1  UNL1        0.0446
      6 C           4.3672   -1.2677   23.1900 C.ar    1  UNL1        0.0568
      7 C           4.9610   -0.2815   22.2283 C.ar    1  UNL1        0.0078
      8 C           4.2865    1.0378   21.9951 C.ar    1  UNL1        0.0402
      9 C           3.0182    1.3709   22.7235 C.ar    1  UNL1        0.1724
     10 O           2.3437    2.6903   22.4902 O.3     1  UNL1       -0.4684
     11 C           1.1643    2.7769   21.5674 C.3     1  UNL1        0.2526
     12 O           1.1561    0.7178   24.4135 O.3     1  UNL1       -0.4723
     13 C           1.2143    1.4132   25.7412 C.3     1  UNL1        0.2082
     14 C           0.0277    1.3794   26.6582 C.3     1  UNL1        0.0794
     15 C           0.2285    1.3788   28.1448 C.3     1  UNL1        0.1461
     16 C          -1.3870   -0.5250   28.8629 C.3     1  UNL1        0.1741
     17 O          -0.0419    0.1345   28.9376 O.3     1  UNL1       -0.3510
     18 C           6.8364   -1.4106   24.8877 C.3     1  UNL1        0.0757
     19 C           6.2633   -0.8844   26.1702 C.3     1  UNL1        0.0215
     20 C           7.9697   -0.6888   24.2208 C.3     1  UNL1        0.0215
     21 C           6.9508   -3.9778   24.5054 C.3     1  UNL1        0.0986
     22 C           7.6571   -4.6690   23.3770 C.3     1  UNL1        0.0771
     23 C           8.0792   -6.1081   23.3506 C.3     1  UNL1        0.0740
     24 N           8.7484   -6.3710   22.0341 N.3     1  UNL1       -0.2943
     25 C           8.7399   -5.0942   21.2468 C.3     1  UNL1        0.1129
     26 C           8.0655   -4.0424   22.0768 C.3     1  UNL1        0.1890
     27 H           8.2400   -7.0945   21.5257 H       1  UNL1        0.1234
     28 O           7.8392   -2.6145   21.6767 O.3     1  UNL1       -0.4369
     29 C           7.0278   -2.2973   20.4557 C.2     1  UNL1        0.4018
     30 O           7.3670   -1.0984   19.6204 O.2     1  UNL1       -0.2264
     31 N           5.8772   -3.1788   20.0699 N.am    1  UNL1       -0.2665
     32 H           5.6545   -3.9657   20.6181 H       1  UNL1        0.1531
     33 C           5.0658   -2.8615   18.8488 C.3     1  UNL1        0.1194
     34 C           3.9606   -1.8503   18.9246 C.ar    1  UNL1       -0.0025
     35 C           2.8741   -2.0019   19.9477 C.ar    1  UNL1       -0.0026
     36 C           1.7688   -0.9906   20.0236 C.ar    1  UNL1       -0.0003
     37 C           1.7500    0.1723   19.0764 C.ar    1  UNL1       -0.0000
     38 C           2.8365    0.3240   18.0533 C.ar    1  UNL1       -0.0003
     39 C           3.9418   -0.6873   17.9775 C.ar    1  UNL1       -0.0026
@<TRIPOS>BOND
     1    16    17    1
     2    17    15    1
     3    15    14    1
     4    14    13    1
     5    13    12    1
     6    12     4    1
     7     4     5   ar
     8     5     6   ar
     9     6     1    1
    10     1     2    2
    11     1     3   am
    12     3    21    1
    13    22    21    1
    14    22    23    1
    15    23    24    1
    16    24    25    1
    17    25    26    1
    18    26    28    1
    19    28    29    1
    20    29    30    2
    21    29    31   am
    22    31    33    1
    23    33    34    1
    24    34    35   ar
    25    35    36   ar
    26    36    37   ar
    27    37    38   ar
    28    38    39   ar
    29     3    18    1
    30    18    19    1
    31    18    20    1
    32     6     7   ar
    33     7     8   ar
    34     8     9   ar
    35     9    10    1
    36    10    11    1
    37     9     4   ar
    38    26    22    1
    39    39    34   ar
    40    24    27    1
    41    31    32    1
@<TRIPOS>MOLECULE
*****
 39 41 0 0 0
SMALL
GASTEIGER

@<TRIPOS>ATOM
      1 C           1.8466   -0.5837   19.8970 C.2     1  UNL1        0.2491
      2 O           0.4751   -0.5408   20.5030 O.2     1  UNL1       -0.2699
      3 N           2.1909    0.3263   18.7554 N.am    1  UNL1       -0.2775
      4 C           4.5860   -2.1995   22.2707 C.ar    1  UNL1        0.1723
      5 C           3.5589   -1.2466   21.7351 C.ar    1  UNL1        0.0446
      6 C           2.8737   -1.5367   20.4326 C.ar    1  UNL1        0.0568
      7 C           3.2157   -2.7796   19.6658 C.ar    1  UNL1        0.0078
      8 C           4.2428   -3.7325   20.2015 C.ar    1  UNL1        0.0402
      9 C           4.9280   -3.4425   21.5039 C.ar    1  UNL1        0.1724
     10 O           5.9551   -4.3955   22.0396 O.3     1  UNL1       -0.4684
     11 C           7.4134   -4.1395   21.7989 C.3     1  UNL1        0.2526
     12 O           5.2712   -1.9095   23.5732 O.3     1  UNL1       -0.4723
     13 C           4.4686   -1.8066   24.8362 C.3     1  UNL1        0.2082
     14 C           4.1527   -0.4599   25.4165 C.3     1  UNL1        0.0794
     15 C           2.8679    0.2276   25.0604 C.3     1  UNL1        0.1461
     16 C           1.6494    1.7688   26.7603 C.3     1  UNL1        0.1741
     17 O           2.5780    1.5989   25.5946 O.3     1  UNL1       -0.3510
     18 C           3.5625    0.2833   18.1494 C.3     1  UNL1        0.0757
     19 C           4.6731    1.0937   18.7491 C.3     1  UNL1        0.0215
     20 C           3.8233   -0.5701   16.9437 C.3     1  UNL1        0.0215
     21 C           1.1639    1.2793   18.2197 C.3     1  UNL1        0.0986
     22 C           1.1497    2.7055   18.6840 C.3     1  UNL1        0.0771
     23 C           2.1086    3.7794   18.2630 C.3     1  UNL1        0.0740
     24 N           1.7257    5.0459   18.9697 N.3     1  UNL1       -0.2943
     25 C           0.5301    4.7548   19.8275 C.3     1  UNL1        0.1129
     26 C           0.1741    3.3083   19.6509 C.3     1  UNL1        0.1890
     27 H           1.4942    5.7671   18.2865 H       1  UNL1        0.1234
     28 O          -0.9586    2.5907   20.3233 O.3     1  UNL1       -0.4369
     29 C          -2.3608    3.1042   20.1823 C.2     1  UNL1        0.4018
     30 O          -2.7439    3.9196   18.9829 O.2     1  UNL1       -0.2264
     31 N          -3.3801    2.8023   21.2405 N.am    1  UNL1       -0.2665
     32 H          -3.1287    2.2671   22.0277 H       1  UNL1        0.1531
     33 C          -4.7824    3.3158   21.0995 C.3     1  UNL1        0.1194
     34 C          -5.5247    3.8107   22.3053 C.ar    1  UNL1       -0.0025
     35 C          -6.8768    4.4407   22.1473 C.ar    1  UNL1       -0.0026
     36 C          -7.6192    4.9356   23.3531 C.ar    1  UNL1       -0.0003
     37 C          -7.0095    4.8006   24.7169 C.ar    1  UNL1       -0.0000
     38 C          -5.6573    4.1706   24.8749 C.ar    1  UNL1       -0.0003
     39 C          -4.9150    3.6757   23.6691 C.ar    1  UNL1       -0.0026
@<TRIPOS>BOND
     1    16    17    1
     2    17    15    1
     3    15    14    1
     4    14    13    1
     5    13    12    1
     6    12     4    1
     7     4     5   ar
     8     5     6   ar
     9     6     1    1
    10     1     2    2
    11     1     3   am
    12     3    21    1
    13    22    21    1
    14    22    23    1
    15    23    24    1
    16    24    25    1
    17    25    26    1
    18    26    28    1
    19    28    29    1
    20    29    30    2
    21    29    31   am
    22    31    33    1
    23    33    34    1
    24    34    35   ar
    25    35    36   ar
    26    36    37   ar
    27    37    38   ar
    28    38    39   ar
    29     3    18    1
    30    18    19    1
    31    18    20    1
    32     6     7   ar
    33     7     8   ar
    34     8     9   ar
    35     9    10    1
    36    10    11    1
    37     9     4   ar
    38    26    22    1
    39    39    34   ar
    40    24    27    1
    41    31    32    1
