@<TRIPOS>MOLECULE
*****
 27 30 0 0 0
SMALL
GASTEIGER

@<TRIPOS>ATOM
      1 C          -6.1610  -18.8262   21.4274 C.2     1  UNL1       -0.0246
      2 C          -7.6211  -18.7603   21.0904 C.2     1  UNL1       -0.0421
      3 C          -8.2519  -17.7170   21.9642 C.3     1  UNL1        0.0480
      4 C          -7.1816  -17.1380   22.8413 C.ar    1  UNL1       -0.0184
      5 C          -7.2167  -16.0752   23.8991 C.ar    1  UNL1       -0.0040
      6 C          -5.9596  -15.6979   24.6252 C.ar    1  UNL1       -0.0003
      7 C          -4.6674  -16.3835   24.2935 C.ar    1  UNL1       -0.0000
      8 C          -4.6322  -17.4463   23.2357 C.ar    1  UNL1       -0.0006
      9 C          -5.8893  -17.8236   22.5096 C.ar    1  UNL1       -0.0079
     10 C          -5.4885  -21.1749   20.5432 C.3     1  UNL1        0.0111
     11 C          -5.1499  -19.7351   20.7937 C.3     1  UNL1        0.0634
     12 C          -3.8004  -19.2045   20.4104 C.ar    1  UNL1        0.0818
     13 C          -2.5688  -19.7257   21.0899 C.ar    1  UNL1        0.1139
     14 N          -1.2192  -19.1950   20.7066 N.ar    1  UNL1       -0.2394
     15 C          -1.1011  -18.1432   19.6437 C.ar    1  UNL1        0.1195
     16 C          -2.3326  -17.6220   18.9642 C.ar    1  UNL1        0.1191
     17 N          -3.6822  -18.1526   19.3475 N.ar    1  UNL1       -0.2446
     18 C          -8.3266  -19.5918   20.0604 C.3     1  UNL1        0.0394
     19 C          -9.5265  -19.0430   19.3470 C.3     1  UNL1        0.0768
     20 N         -10.7708  -18.7127   20.1169 N.3     1  UNL1       -0.2670
     21 C         -11.4508  -17.3914   19.9123 C.3     1  UNL1        0.0899
     22 C         -11.3350  -19.7036   21.0913 C.3     1  UNL1        0.1057
     23 C         -11.0423  -19.5653   22.5560 C.ar    1  UNL1        0.0234
     24 C         -10.0651  -20.3888   23.3415 C.ar    1  UNL1        0.0041
     25 C         -10.0943  -19.9116   24.7633 C.ar    1  UNL1        0.0072
     26 C         -11.0895  -18.7932   24.8565 C.ar    1  UNL1        0.0352
     27 S         -11.6754  -18.5792   23.4923 S.2     1  UNL1       -0.0894
@<TRIPOS>BOND
     1    11    10    1
     2    11     1    1
     3     1     2    2
     4     2    18    1
     5    18    19    1
     6    19    20    1
     7    20    21    1
     8    20    22    1
     9    22    23    1
    10    23    24   ar
    11    24    25   ar
    12    25    26   ar
    13    26    27   ar
    14     2     3    1
    15     3     4    1
    16     4     5   ar
    17     5     6   ar
    18     6     7   ar
    19     7     8   ar
    20     8     9   ar
    21    11    12    1
    22    12    13   ar
    23    13    14   ar
    24    14    15   ar
    25    15    16   ar
    26    16    17   ar
    27     9     1    1
    28    17    12   ar
    29    27    23   ar
    30     9     4   ar
@<TRIPOS>MOLECULE
*****
 27 30 0 0 0
SMALL
GASTEIGER

@<TRIPOS>ATOM
      1 C          -8.4858  -17.1576   23.9586 C.2     1  UNL1       -0.0246
      2 C          -7.3412  -17.2389   22.9926 C.2     1  UNL1       -0.0421
      3 C          -6.1744  -16.5132   23.5942 C.3     1  UNL1        0.0480
      4 C          -6.5979  -15.9833   24.9321 C.ar    1  UNL1       -0.0184
      5 C          -5.8673  -15.1897   25.9743 C.ar    1  UNL1       -0.0040
      6 C          -6.5653  -14.7943   27.2418 C.ar    1  UNL1       -0.0003
      7 C          -7.9938  -15.1925   27.4670 C.ar    1  UNL1       -0.0000
      8 C          -8.7244  -15.9862   26.4248 C.ar    1  UNL1       -0.0006
      9 C          -8.0264  -16.3816   25.1573 C.ar    1  UNL1       -0.0079
     10 C         -10.3652  -18.7835   24.7166 C.3     1  UNL1        0.0111
     11 C          -9.8502  -17.7485   23.7607 C.3     1  UNL1        0.0634
     12 C         -10.6998  -17.3044   22.6071 C.ar    1  UNL1        0.0818
     13 C         -11.9906  -18.0089   22.3113 C.ar    1  UNL1        0.1139
     14 N         -12.8401  -17.5648   21.1575 N.ar    1  UNL1       -0.2394
     15 C         -12.3989  -16.4163   20.2996 C.ar    1  UNL1        0.1195
     16 C         -11.1081  -15.7117   20.5954 C.ar    1  UNL1        0.1191
     17 N         -10.2585  -16.1558   21.7491 N.ar    1  UNL1       -0.2446
     18 C          -7.3600  -17.9254   21.6590 C.3     1  UNL1        0.0394
     19 C          -7.2599  -19.4201   21.5835 C.3     1  UNL1        0.0768
     20 N          -5.9452  -20.0687   21.2659 N.3     1  UNL1       -0.2670
     21 C          -5.8945  -21.2460   20.3377 C.3     1  UNL1        0.0899
     22 C          -4.6813  -19.5401   21.8766 C.3     1  UNL1        0.1057
     23 C          -3.5562  -19.0842   20.9954 C.ar    1  UNL1        0.0234
     24 C          -3.6774  -18.6480   19.5654 C.ar    1  UNL1        0.0041
     25 C          -2.3085  -18.2787   19.0758 C.ar    1  UNL1        0.0072
     26 C          -1.3412  -18.4865   20.2033 C.ar    1  UNL1        0.0352
     27 S          -2.1124  -18.9844   21.3896 S.2     1  UNL1       -0.0894
@<TRIPOS>BOND
     1    11    10    1
     2    11     1    1
     3     1     2    2
     4     2    18    1
     5    18    19    1
     6    19    20    1
     7    20    21    1
     8    20    22    1
     9    22    23    1
    10    23    24   ar
    11    24    25   ar
    12    25    26   ar
    13    26    27   ar
    14     2     3    1
    15     3     4    1
    16     4     5   ar
    17     5     6   ar
    18     6     7   ar
    19     7     8   ar
    20     8     9   ar
    21    11    12    1
    22    12    13   ar
    23    13    14   ar
    24    14    15   ar
    25    15    16   ar
    26    16    17   ar
    27     9     1    1
    28    17    12   ar
    29    27    23   ar
    30     9     4   ar
@<TRIPOS>MOLECULE
*****
 27 30 0 0 0
SMALL
GASTEIGER

@<TRIPOS>ATOM
      1 C          -4.0448  -18.1955   22.1564 C.2     1  UNL1       -0.0246
      2 C          -4.9348  -19.1897   21.4711 C.2     1  UNL1       -0.0421
      3 C          -4.3414  -19.4942   20.1276 C.3     1  UNL1        0.0480
      4 C          -3.0847  -18.6882   19.9824 C.ar    1  UNL1       -0.0184
      5 C          -2.0836  -18.5814   18.8705 C.ar    1  UNL1       -0.0040
      6 C          -0.8992  -17.6721   19.0125 C.ar    1  UNL1       -0.0003
      7 C          -0.7158  -16.8695   20.2664 C.ar    1  UNL1       -0.0000
      8 C          -1.7169  -16.9762   21.3783 C.ar    1  UNL1       -0.0006
      9 C          -2.9013  -17.8856   21.2363 C.ar    1  UNL1       -0.0079
     10 C          -3.3466  -17.9899   24.6505 C.3     1  UNL1        0.0111
     11 C          -4.2603  -17.6135   23.5219 C.3     1  UNL1        0.0634
     12 C          -5.3895  -16.6551   23.7591 C.ar    1  UNL1        0.0818
     13 C          -5.3443  -15.7175   24.9290 C.ar    1  UNL1        0.1139
     14 N          -6.4735  -14.7590   25.1661 N.ar    1  UNL1       -0.2394
     15 C          -7.6480  -14.7381   24.2333 C.ar    1  UNL1        0.1195
     16 C          -7.6932  -15.6757   23.0633 C.ar    1  UNL1        0.1191
     17 N          -6.5640  -16.6342   22.8262 N.ar    1  UNL1       -0.2446
     18 C          -6.1966  -19.7764   22.0311 C.3     1  UNL1        0.0394
     19 C          -7.4721  -19.7007   21.2454 C.3     1  UNL1        0.0768
     20 N          -8.7747  -19.4650   21.9508 N.3     1  UNL1       -0.2670
     21 C          -8.8636  -19.6355   23.4385 C.3     1  UNL1        0.0899
     22 C          -9.9884  -19.0588   21.1687 C.3     1  UNL1        0.1057
     23 C         -10.9775  -18.1003   21.7628 C.ar    1  UNL1        0.0234
     24 C         -12.1375  -18.4625   22.6421 C.ar    1  UNL1        0.0041
     25 C         -12.8571  -17.1974   23.0048 C.ar    1  UNL1        0.0072
     26 C         -12.1419  -16.0532   22.3496 C.ar    1  UNL1        0.0352
     27 S         -10.9802  -16.6113   21.5820 S.2     1  UNL1       -0.0894
@<TRIPOS>BOND
     1    11    10    1
     2    11     1    1
     3     1     2    2
     4     2    18    1
     5    18    19    1
     6    19    20    1
     7    20    21    1
     8    20    22    1
     9    22    23    1
    10    23    24   ar
    11    24    25   ar
    12    25    26   ar
    13    26    27   ar
    14     2     3    1
    15     3     4    1
    16     4     5   ar
    17     5     6   ar
    18     6     7   ar
    19     7     8   ar
    20     8     9   ar
    21    11    12    1
    22    12    13   ar
    23    13    14   ar
    24    14    15   ar
    25    15    16   ar
    26    16    17   ar
    27     9     1    1
    28    17    12   ar
    29    27    23   ar
    30     9     4   ar
@<TRIPOS>MOLECULE
*****
 27 30 0 0 0
SMALL
GASTEIGER

@<TRIPOS>ATOM
      1 C         -14.1206   -6.4115   18.1697 C.2     1  UNL1       -0.0246
      2 C         -14.2752   -5.3633   19.2315 C.2     1  UNL1       -0.0421
      3 C         -12.9134   -5.0539   19.7791 C.3     1  UNL1        0.0480
      4 C         -11.9172   -5.9109   19.0557 C.ar    1  UNL1       -0.0184
      5 C         -10.4271   -6.0357   19.1742 C.ar    1  UNL1       -0.0040
      6 C          -9.6832   -6.9995   18.2981 C.ar    1  UNL1       -0.0003
      7 C         -10.4293   -7.8385   17.3035 C.ar    1  UNL1       -0.0000
      8 C         -11.9194   -7.7138   17.1850 C.ar    1  UNL1       -0.0006
      9 C         -12.6633   -6.7500   18.0611 C.ar    1  UNL1       -0.0079
     10 C         -15.7288   -6.3126   16.1315 C.3     1  UNL1        0.0111
     11 C         -15.2288   -7.0153   17.3589 C.3     1  UNL1        0.0634
     12 C         -15.8370   -8.3216   17.7754 C.ar    1  UNL1        0.0818
     13 C         -14.9945   -9.5619   17.8167 C.ar    1  UNL1        0.1139
     14 N         -15.6029  -10.8682   18.2332 N.ar    1  UNL1       -0.2394
     15 C         -17.0537  -10.9343   18.6084 C.ar    1  UNL1        0.1195
     16 C         -17.8963   -9.6939   18.5670 C.ar    1  UNL1        0.1191
     17 N         -17.2879   -8.3876   18.1505 N.ar    1  UNL1       -0.2446
     18 C         -15.5650   -4.7348   19.6689 C.3     1  UNL1        0.0394
     19 C         -16.1734   -3.6291   18.8582 C.3     1  UNL1        0.0768
     20 N         -15.4221   -2.3468   18.6556 N.3     1  UNL1       -0.2670
     21 C         -15.3573   -1.3331   19.7595 C.3     1  UNL1        0.0899
     22 C         -14.7355   -2.0780   17.3494 C.3     1  UNL1        0.1057
     23 C         -13.3149   -2.5141   17.1451 C.ar    1  UNL1        0.0234
     24 C         -12.8470   -3.5786   16.1975 C.ar    1  UNL1        0.0041
     25 C         -11.3557   -3.6847   16.3193 C.ar    1  UNL1        0.0072
     26 C         -10.9019   -2.6857   17.3421 C.ar    1  UNL1        0.0352
     27 S         -12.1128   -1.9623   17.8525 S.2     1  UNL1       -0.0894
@<TRIPOS>BOND
     1    11    10    1
     2    11     1    1
     3     1     2    2
     4     2    18    1
     5    18    19    1
     6    19    20    1
     7    20    21    1
     8    20    22    1
     9    22    23    1
    10    23    24   ar
    11    24    25   ar
    12    25    26   ar
    13    26    27   ar
    14     2     3    1
    15     3     4    1
    16     4     5   ar
    17     5     6   ar
    18     6     7   ar
    19     7     8   ar
    20     8     9   ar
    21    11    12    1
    22    12    13   ar
    23    13    14   ar
    24    14    15   ar
    25    15    16   ar
    26    16    17   ar
    27     9     1    1
    28    17    12   ar
    29    27    23   ar
    30     9     4   ar
@<TRIPOS>MOLECULE
*****
 27 30 0 0 0
SMALL
GASTEIGER

@<TRIPOS>ATOM
      1 C          -9.1125  -17.9236   21.4777 C.2     1  UNL1       -0.0246
      2 C          -7.7973  -17.7805   22.1846 C.2     1  UNL1       -0.0421
      3 C          -6.8323  -18.7497   21.5687 C.3     1  UNL1        0.0480
      4 C          -7.5510  -19.4917   20.4811 C.ar    1  UNL1       -0.0184
      5 C          -7.1043  -20.5664   19.5348 C.ar    1  UNL1       -0.0040
      6 C          -8.0669  -21.1304   18.5322 C.ar    1  UNL1       -0.0003
      7 C          -9.4762  -20.6198   18.4760 C.ar    1  UNL1       -0.0000
      8 C          -9.9229  -19.5452   19.4223 C.ar    1  UNL1       -0.0006
      9 C          -8.9603  -18.9812   20.4249 C.ar    1  UNL1       -0.0079
     10 C         -10.6359  -15.8646   21.0415 C.3     1  UNL1        0.0111
     11 C         -10.3608  -17.1456   21.7719 C.3     1  UNL1        0.0634
     12 C         -11.3341  -17.6486   22.7963 C.ar    1  UNL1        0.0818
     13 C         -10.8510  -18.4899   23.9404 C.ar    1  UNL1        0.1139
     14 N         -11.8244  -18.9929   24.9649 N.ar    1  UNL1       -0.2394
     15 C         -13.2808  -18.6545   24.8454 C.ar    1  UNL1        0.1195
     16 C         -13.7640  -17.8131   23.7014 C.ar    1  UNL1        0.1191
     17 N         -12.7906  -17.3102   22.6769 N.ar    1  UNL1       -0.2446
     18 C          -7.4995  -16.8344   23.3098 C.3     1  UNL1        0.0394
     19 C          -6.2395  -16.0207   23.2919 C.3     1  UNL1        0.0768
     20 N          -5.1773  -16.2601   24.3237 N.3     1  UNL1       -0.2670
     21 C          -5.1023  -15.3853   25.5398 C.3     1  UNL1        0.0899
     22 C          -4.1902  -17.3744   24.1392 C.3     1  UNL1        0.1057
     23 C          -3.4238  -17.4926   22.8553 C.ar    1  UNL1        0.0234
     24 C          -3.3605  -18.7052   21.9746 C.ar    1  UNL1        0.0041
     25 C          -2.4837  -18.3809   20.8016 C.ar    1  UNL1        0.0072
     26 C          -2.0051  -16.9679   20.9572 C.ar    1  UNL1        0.0352
     27 S          -2.5861  -16.4189   22.2264 S.2     1  UNL1       -0.0894
@<TRIPOS>BOND
     1    11    10    1
     2    11     1    1
     3     1     2    2
     4     2    18    1
     5    18    19    1
     6    19    20    1
     7    20    21    1
     8    20    22    1
     9    22    23    1
    10    23    24   ar
    11    24    25   ar
    12    25    26   ar
    13    26    27   ar
    14     2     3    1
    15     3     4    1
    16     4     5   ar
    17     5     6   ar
    18     6     7   ar
    19     7     8   ar
    20     8     9   ar
    21    11    12    1
    22    12    13   ar
    23    13    14   ar
    24    14    15   ar
    25    15    16   ar
    26    16    17   ar
    27     9     1    1
    28    17    12   ar
    29    27    23   ar
    30     9     4   ar
@<TRIPOS>MOLECULE
*****
 27 30 0 0 0
SMALL
GASTEIGER

@<TRIPOS>ATOM
      1 C          -5.7745  -18.9653   21.2370 C.2     1  UNL1       -0.0246
      2 C          -7.2196  -19.0237   20.8391 C.2     1  UNL1       -0.0421
      3 C          -7.9779  -18.0617   21.7048 C.3     1  UNL1        0.0480
      4 C          -7.0015  -17.4087   22.6377 C.ar    1  UNL1       -0.0184
      5 C          -7.1764  -16.3777   23.7131 C.ar    1  UNL1       -0.0040
      6 C          -5.9896  -15.9053   24.4993 C.ar    1  UNL1       -0.0003
      7 C          -4.6278  -16.4638   24.2101 C.ar    1  UNL1       -0.0000
      8 C          -4.4529  -17.4947   23.1348 C.ar    1  UNL1       -0.0006
      9 C          -5.6397  -17.9672   22.3486 C.ar    1  UNL1       -0.0079
     10 C          -4.8307  -21.2376   20.4026 C.3     1  UNL1        0.0111
     11 C          -4.6599  -19.7647   20.6299 C.3     1  UNL1        0.0634
     12 C          -3.3745  -19.0914   20.2501 C.ar    1  UNL1        0.0818
     13 C          -3.3356  -18.1558   19.0783 C.ar    1  UNL1        0.1139
     14 N          -2.0501  -17.4825   18.6985 N.ar    1  UNL1       -0.2394
     15 C          -0.8036  -17.7447   19.4904 C.ar    1  UNL1        0.1195
     16 C          -0.8424  -18.6804   20.6623 C.ar    1  UNL1        0.1191
     17 N          -2.1279  -19.3537   21.0421 N.ar    1  UNL1       -0.2446
     18 C          -7.8038  -19.8918   19.7643 C.3     1  UNL1        0.0394
     19 C          -9.0916  -19.5009   19.1019 C.3     1  UNL1        0.0768
     20 N         -10.3252  -19.2871   19.9280 N.3     1  UNL1       -0.2670
     21 C         -10.7470  -20.3226   20.9279 C.3     1  UNL1        0.0899
     22 C         -11.1370  -18.0378   19.7542 C.3     1  UNL1        0.1057
     23 C         -11.6623  -17.3113   20.9568 C.ar    1  UNL1        0.0234
     24 C         -11.0847  -16.0626   21.5544 C.ar    1  UNL1        0.0041
     25 C         -11.9228  -15.6854   22.7399 C.ar    1  UNL1        0.0072
     26 C         -13.0184  -16.7011   22.8749 C.ar    1  UNL1        0.0352
     27 S         -12.8573  -17.7059   21.7729 S.2     1  UNL1       -0.0894
@<TRIPOS>BOND
     1    11    10    1
     2    11     1    1
     3     1     2    2
     4     2    18    1
     5    18    19    1
     6    19    20    1
     7    20    21    1
     8    20    22    1
     9    22    23    1
    10    23    24   ar
    11    24    25   ar
    12    25    26   ar
    13    26    27   ar
    14     2     3    1
    15     3     4    1
    16     4     5   ar
    17     5     6   ar
    18     6     7   ar
    19     7     8   ar
    20     8     9   ar
    21    11    12    1
    22    12    13   ar
    23    13    14   ar
    24    14    15   ar
    25    15    16   ar
    26    16    17   ar
    27     9     1    1
    28    17    12   ar
    29    27    23   ar
    30     9     4   ar
@<TRIPOS>MOLECULE
*****
 27 30 0 0 0
SMALL
GASTEIGER

@<TRIPOS>ATOM
      1 C          -7.7110  -18.4242   21.6322 C.2     1  UNL1       -0.0246
      2 C          -6.3078  -18.8401   21.9610 C.2     1  UNL1       -0.0421
      3 C          -5.9149  -19.9350   21.0140 C.3     1  UNL1        0.0480
      4 C          -7.0753  -20.1959   20.0999 C.ar    1  UNL1       -0.0184
      5 C          -7.2645  -21.1630   18.9691 C.ar    1  UNL1       -0.0040
      6 C          -8.5638  -21.1964   18.2203 C.ar    1  UNL1       -0.0003
      7 C          -9.6738  -20.2627   18.6024 C.ar    1  UNL1       -0.0000
      8 C          -9.4846  -19.2955   19.7332 C.ar    1  UNL1       -0.0006
      9 C          -8.1853  -19.2622   20.4820 C.ar    1  UNL1       -0.0079
     10 C          -7.9418  -15.9716   22.4577 C.3     1  UNL1        0.0111
     11 C          -8.5011  -17.3577   22.3309 C.3     1  UNL1        0.0634
     12 C          -9.8505  -17.6771   22.9027 C.ar    1  UNL1        0.0818
     13 C         -11.0791  -17.0352   22.3296 C.ar    1  UNL1        0.1139
     14 N         -12.4284  -17.3547   22.9016 N.ar    1  UNL1       -0.2394
     15 C         -12.5493  -18.3161   24.0466 C.ar    1  UNL1        0.1195
     16 C         -11.3207  -18.9581   24.6197 C.ar    1  UNL1        0.1191
     17 N          -9.9713  -18.6386   24.0478 N.ar    1  UNL1       -0.2446
     18 C          -5.4483  -18.2624   23.0462 C.3     1  UNL1        0.0394
     19 C          -4.0142  -17.9235   22.7667 C.3     1  UNL1        0.0768
     20 N          -3.5867  -16.4887   22.6749 N.3     1  UNL1       -0.2670
     21 C          -4.4262  -15.4145   23.3007 C.3     1  UNL1        0.0899
     22 C          -2.3198  -16.1279   21.9574 C.3     1  UNL1        0.1057
     23 C          -1.8889  -16.9143   20.7549 C.ar    1  UNL1        0.0234
     24 C          -2.7835  -17.4046   19.6552 C.ar    1  UNL1        0.0041
     25 C          -1.9353  -18.1418   18.6616 C.ar    1  UNL1        0.0072
     26 C          -0.5165  -18.1071   19.1473 C.ar    1  UNL1        0.0352
     27 S          -0.4879  -17.3485   20.4410 S.2     1  UNL1       -0.0894
@<TRIPOS>BOND
     1    11    10    1
     2    11     1    1
     3     1     2    2
     4     2    18    1
     5    18    19    1
     6    19    20    1
     7    20    21    1
     8    20    22    1
     9    22    23    1
    10    23    24   ar
    11    24    25   ar
    12    25    26   ar
    13    26    27   ar
    14     2     3    1
    15     3     4    1
    16     4     5   ar
    17     5     6   ar
    18     6     7   ar
    19     7     8   ar
    20     8     9   ar
    21    11    12    1
    22    12    13   ar
    23    13    14   ar
    24    14    15   ar
    25    15    16   ar
    26    16    17   ar
    27     9     1    1
    28    17    12   ar
    29    27    23   ar
    30     9     4   ar
@<TRIPOS>MOLECULE
*****
 27 30 0 0 0
SMALL
GASTEIGER

@<TRIPOS>ATOM
      1 C           4.1968   -2.1927   19.2836 C.2     1  UNL1       -0.0246
      2 C           5.2026   -1.6720   18.3000 C.2     1  UNL1       -0.0421
      3 C           4.6894   -0.3714   17.7570 C.3     1  UNL1        0.0480
      4 C           3.3666   -0.0882   18.4049 C.ar    1  UNL1       -0.0184
      5 C           2.3999    1.0493   18.2577 C.ar    1  UNL1       -0.0040
      6 C           1.1287    1.0610   19.0539 C.ar    1  UNL1       -0.0003
      7 C           0.8243   -0.0647   19.9974 C.ar    1  UNL1       -0.0000
      8 C           1.7910   -1.2021   20.1447 C.ar    1  UNL1       -0.0006
      9 C           3.0621   -1.2138   19.3484 C.ar    1  UNL1       -0.0079
     10 C           3.7845   -4.7499   19.4861 C.3     1  UNL1        0.0111
     11 C           4.3065   -3.4683   20.0651 C.3     1  UNL1        0.0634
     12 C           4.9382   -3.4625   21.4255 C.ar    1  UNL1        0.0818
     13 C           4.2738   -2.7371   22.5579 C.ar    1  UNL1        0.1139
     14 N           4.9055   -2.7313   23.9184 N.ar    1  UNL1       -0.2394
     15 C           6.2017   -3.4509   24.1465 C.ar    1  UNL1        0.1195
     16 C           6.8662   -4.1763   23.0141 C.ar    1  UNL1        0.1191
     17 N           6.2345   -4.1821   21.6537 N.ar    1  UNL1       -0.2446
     18 C           6.4946   -2.3355   17.9253 C.3     1  UNL1        0.0394
     19 C           7.6500   -2.3215   18.8819 C.3     1  UNL1        0.0768
     20 N           8.0091   -1.0578   19.6057 N.3     1  UNL1       -0.2670
     21 C           8.3587    0.1775   18.8299 C.3     1  UNL1        0.0899
     22 C           8.0186   -1.0293   21.1054 C.3     1  UNL1        0.1057
     23 C           7.0052   -0.2084   21.8464 C.ar    1  UNL1        0.0234
     24 C           5.7445    0.3659   21.2710 C.ar    1  UNL1        0.0041
     25 C           5.0347    1.1116   22.3619 C.ar    1  UNL1        0.0072
     26 C           5.8566    0.9983   23.6115 C.ar    1  UNL1        0.0352
     27 S           7.0744    0.1825   23.2929 S.2     1  UNL1       -0.0894
@<TRIPOS>BOND
     1    11    10    1
     2    11     1    1
     3     1     2    2
     4     2    18    1
     5    18    19    1
     6    19    20    1
     7    20    21    1
     8    20    22    1
     9    22    23    1
    10    23    24   ar
    11    24    25   ar
    12    25    26   ar
    13    26    27   ar
    14     2     3    1
    15     3     4    1
    16     4     5   ar
    17     5     6   ar
    18     6     7   ar
    19     7     8   ar
    20     8     9   ar
    21    11    12    1
    22    12    13   ar
    23    13    14   ar
    24    14    15   ar
    25    15    16   ar
    26    16    17   ar
    27     9     1    1
    28    17    12   ar
    29    27    23   ar
    30     9     4   ar
@<TRIPOS>MOLECULE
*****
 27 30 0 0 0
SMALL
GASTEIGER

@<TRIPOS>ATOM
      1 C           4.0368   -2.1800   19.2926 C.2     1  UNL1       -0.0246
      2 C           5.0170   -1.6686   18.2789 C.2     1  UNL1       -0.0421
      3 C           4.4921   -0.3708   17.7403 C.3     1  UNL1        0.0480
      4 C           3.1874   -0.0801   18.4211 C.ar    1  UNL1       -0.0184
      5 C           2.2194    1.0582   18.2914 C.ar    1  UNL1       -0.0040
      6 C           0.9699    1.0784   19.1211 C.ar    1  UNL1       -0.0003
      7 C           0.6885   -0.0398   20.0805 C.ar    1  UNL1       -0.0000
      8 C           1.6566   -1.1782   20.2102 C.ar    1  UNL1       -0.0006
      9 C           2.9061   -1.1983   19.3805 C.ar    1  UNL1       -0.0079
     10 C           3.6136   -4.7324   19.5304 C.3     1  UNL1        0.0111
     11 C           4.1648   -3.4502   20.0802 C.3     1  UNL1        0.0634
     12 C           4.8440   -3.4383   21.4175 C.ar    1  UNL1        0.0818
     13 C           4.2443   -2.6682   22.5565 C.ar    1  UNL1        0.1139
     14 N           4.9236   -2.6563   23.8938 N.ar    1  UNL1       -0.2394
     15 C           6.2025   -3.4145   24.0923 C.ar    1  UNL1        0.1195
     16 C           6.8022   -4.1847   22.9533 C.ar    1  UNL1        0.1191
     17 N           6.1230   -4.1966   21.6160 N.ar    1  UNL1       -0.2446
     18 C           6.2973   -2.3375   17.8748 C.3     1  UNL1        0.0394
     19 C           7.4980   -2.2624   18.7707 C.3     1  UNL1        0.0768
     20 N           7.8142   -0.9880   19.4958 N.3     1  UNL1       -0.2670
     21 C           7.4607   -0.8429   20.9464 C.3     1  UNL1        0.0899
     22 C           8.4839    0.1414   18.7705 C.3     1  UNL1        0.1057
     23 C           7.6568    1.2133   18.1249 C.ar    1  UNL1        0.0234
     24 C           6.7432    2.1690   18.8335 C.ar    1  UNL1        0.0041
     25 C           6.1199    3.0642   17.8039 C.ar    1  UNL1        0.0072
     26 C           6.6481    2.6617   16.4589 C.ar    1  UNL1        0.0352
     27 S           7.5980    1.5179   16.6573 S.2     1  UNL1       -0.0894
@<TRIPOS>BOND
     1    11    10    1
     2    11     1    1
     3     1     2    2
     4     2    18    1
     5    18    19    1
     6    19    20    1
     7    20    21    1
     8    20    22    1
     9    22    23    1
    10    23    24   ar
    11    24    25   ar
    12    25    26   ar
    13    26    27   ar
    14     2     3    1
    15     3     4    1
    16     4     5   ar
    17     5     6   ar
    18     6     7   ar
    19     7     8   ar
    20     8     9   ar
    21    11    12    1
    22    12    13   ar
    23    13    14   ar
    24    14    15   ar
    25    15    16   ar
    26    16    17   ar
    27     9     1    1
    28    17    12   ar
    29    27    23   ar
    30     9     4   ar
