@<TRIPOS>MOLECULE
*****
 31 35 0 0 0
SMALL
GASTEIGER

@<TRIPOS>ATOM
      1 C           2.9507    0.6115   19.6867 C.ar    1  UNL1        0.1646
      2 N           3.2377    0.6894   21.1570 N.ar    1  UNL1       -0.2224
      3 C           1.9262    0.7388   21.8833 C.ar    1  UNL1        0.1074
      4 C           0.8287    0.6914   20.8620 C.ar    1  UNL1        0.0588
      5 S           1.4619    0.6127   19.5044 S.2     1  UNL1       -0.0508
      6 C           1.7443    0.8211   23.3699 C.ar    1  UNL1        0.1026
      7 C           0.4439    1.3039   23.9407 C.ar    1  UNL1        0.0224
      8 C           0.2618    1.3863   25.4273 C.ar    1  UNL1        0.0239
      9 C           1.3802    0.9858   26.3433 C.ar    1  UNL1        0.1189
     10 C           2.6806    0.5030   25.7724 C.ar    1  UNL1        0.2416
     11 N           2.8627    0.4206   24.2857 N.ar    1  UNL1       -0.2089
     12 N           1.1983    1.0681   27.8299 N.ar    1  UNL1       -0.2826
     13 C           1.0028   -0.0924   28.7598 C.ar    1  UNL1        0.1826
     14 N           0.8635    0.4477   30.1523 N.ar    1  UNL1       -0.2280
     15 C           0.9730    1.9420   30.0828 C.ar    1  UNL1        0.0786
     16 C           0.8902    2.8871   31.2449 C.3     1  UNL1        0.0538
     17 C           1.1799    2.3255   28.6476 C.ar    1  UNL1        0.0963
     18 O           3.7991    0.1025   26.6883 O.3     1  UNL1       -0.4551
     19 C           4.0367   -1.3469   26.9926 C.3     1  UNL1        0.2543
     20 N           3.9731    0.5442   18.5912 N.pl3   1  UNL1       -0.2786
     21 H           4.1333    1.3288   18.0185 H       1  UNL1        0.1555
     22 N           6.1251   -0.8141   17.7735 N.ar    1  UNL1       -0.2383
     23 N           6.5154   -2.2621   17.7386 N.ar    1  UNL1       -0.1729
     24 C           5.3828   -3.0614   18.3117 C.ar    1  UNL1        0.0773
     25 C           4.2926   -2.1074   18.7009 C.ar    1  UNL1        0.0244
     26 C           4.7514   -0.7186   18.3682 C.ar    1  UNL1        0.1275
     27 C           3.1600   -2.9066   19.2740 C.3     1  UNL1        0.0308
     28 C           3.5502   -4.3546   19.2391 C.3     1  UNL1        0.0112
     29 C           4.9240   -4.4502   18.6443 C.3     1  UNL1        0.0477
     30 C           6.5636    1.0938   16.0655 C.3     1  UNL1        0.0285
     31 C           6.9617    0.3361   17.2973 C.3     1  UNL1        0.1289
@<TRIPOS>BOND
     1    30    31    1
     2    31    22    1
     3    22    23   ar
     4    23    24   ar
     5    24    25   ar
     6    25    26   ar
     7    26    20    1
     8    20     1    1
     9     1     2   ar
    10     2     3   ar
    11     3     6    1
    12     6     7   ar
    13     7     8   ar
    14     8     9   ar
    15     9    12    1
    16    12    13   ar
    17    13    14   ar
    18    14    15   ar
    19    15    16    1
    20    15    17   ar
    21     9    10   ar
    22    10    18    1
    23    18    19    1
    24    10    11   ar
    25     3     4   ar
    26     4     5   ar
    27    25    27    1
    28    27    28    1
    29    28    29    1
    30    26    22   ar
    31     5     1   ar
    32    29    24    1
    33    11     6   ar
    34    17    12   ar
    35    20    21    1
@<TRIPOS>MOLECULE
*****
 31 35 0 0 0
SMALL
GASTEIGER

@<TRIPOS>ATOM
      1 C           2.7086    0.6022   19.5692 C.ar    1  UNL1        0.1646
      2 N           3.0536    0.7148   21.0247 N.ar    1  UNL1       -0.2224
      3 C           1.7729    0.7199   21.8056 C.ar    1  UNL1        0.1074
      4 C           0.6364    0.6104   20.8328 C.ar    1  UNL1        0.0588
      5 S           1.2147    0.5377   19.4506 S.2     1  UNL1       -0.0508
      6 C           1.6504    0.8173   23.2974 C.ar    1  UNL1        0.1026
      7 C           2.7976    0.4074   24.1725 C.ar    1  UNL1        0.0224
      8 C           2.6751    0.5048   25.6643 C.ar    1  UNL1        0.0239
      9 C           1.4053    1.0121   26.2811 C.ar    1  UNL1        0.1189
     10 C           0.2581    1.4219   25.4059 C.ar    1  UNL1        0.2416
     11 N           0.3806    1.3246   23.9140 N.ar    1  UNL1       -0.2089
     12 N           1.2828    1.1095   27.7728 N.ar    1  UNL1       -0.2826
     13 C           0.9753   -0.0223   28.7080 C.ar    1  UNL1        0.1826
     14 N           0.9486    0.5246   30.1045 N.ar    1  UNL1       -0.2280
     15 C           1.2397    1.9943   30.0324 C.ar    1  UNL1        0.0786
     16 C           1.3116    2.9370   31.1970 C.3     1  UNL1        0.0538
     17 C           1.4462    2.3558   28.5914 C.ar    1  UNL1        0.0963
     18 O          -1.0117    1.9292   26.0226 O.3     1  UNL1       -0.4551
     19 C          -1.2083    3.4016   26.2308 C.3     1  UNL1        0.2543
     20 N           3.6859    0.5614   18.4320 N.pl3   1  UNL1       -0.2786
     21 H           3.7790    1.3385   17.8348 H       1  UNL1        0.1555
     22 N           5.8228   -0.7175   17.4609 N.ar    1  UNL1       -0.2383
     23 N           6.3077   -2.1370   17.4777 N.ar    1  UNL1       -0.1729
     24 C           5.3059   -2.9601   18.2319 C.ar    1  UNL1        0.0773
     25 C           4.2018   -2.0495   18.6812 C.ar    1  UNL1        0.0244
     26 C           4.5212   -0.6636   18.2047 C.ar    1  UNL1        0.1275
     27 C           3.2000   -2.8727   19.4354 C.3     1  UNL1        0.0308
     28 C           3.6849   -4.2920   19.4522 C.3     1  UNL1        0.0112
     29 C           4.9864   -4.3461   18.7084 C.3     1  UNL1        0.0477
     30 C           7.4394    1.3100   17.6198 C.3     1  UNL1        0.0285
     31 C           6.5173    0.4438   16.8139 C.3     1  UNL1        0.1289
@<TRIPOS>BOND
     1    30    31    1
     2    31    22    1
     3    22    23   ar
     4    23    24   ar
     5    24    25   ar
     6    25    26   ar
     7    26    20    1
     8    20     1    1
     9     1     2   ar
    10     2     3   ar
    11     3     6    1
    12     6     7   ar
    13     7     8   ar
    14     8     9   ar
    15     9    12    1
    16    12    13   ar
    17    13    14   ar
    18    14    15   ar
    19    15    16    1
    20    15    17   ar
    21     9    10   ar
    22    10    18    1
    23    18    19    1
    24    10    11   ar
    25     3     4   ar
    26     4     5   ar
    27    25    27    1
    28    27    28    1
    29    28    29    1
    30    26    22   ar
    31     5     1   ar
    32    29    24    1
    33    11     6   ar
    34    17    12   ar
    35    20    21    1
@<TRIPOS>MOLECULE
*****
 31 35 0 0 0
SMALL
GASTEIGER

@<TRIPOS>ATOM
      1 C          -1.3462    3.9959   19.6017 C.ar    1  UNL1        0.1646
      2 N          -0.5713    2.8596   20.2005 N.ar    1  UNL1       -0.2224
      3 C           0.2641    2.2461   19.1162 C.ar    1  UNL1        0.1074
      4 C           0.0056    3.0032   17.8474 C.ar    1  UNL1        0.0588
      5 S          -0.9896    4.0847   18.1475 S.2     1  UNL1       -0.0508
      6 C           1.1947    1.0802   19.2732 C.ar    1  UNL1        0.1026
      7 C           1.1712    0.2662   20.5329 C.ar    1  UNL1        0.0224
      8 C           2.1017   -0.8997   20.6901 C.ar    1  UNL1        0.0239
      9 C           3.0558   -1.2517   19.5874 C.ar    1  UNL1        0.1189
     10 C           3.0793   -0.4378   18.3277 C.ar    1  UNL1        0.2416
     11 N           2.1487    0.7282   18.1705 N.ar    1  UNL1       -0.2089
     12 N           3.9864   -2.4176   19.7444 N.ar    1  UNL1       -0.2826
     13 C           3.7076   -3.8308   19.3259 C.ar    1  UNL1        0.1826
     14 N           4.9081   -4.6616   19.6704 N.ar    1  UNL1       -0.2280
     15 C           5.9287   -3.7618   20.3018 C.ar    1  UNL1        0.0786
     16 C           7.2816   -4.1763   20.8000 C.3     1  UNL1        0.0538
     17 C           5.3591   -2.3750   20.3475 C.ar    1  UNL1        0.0963
     18 O           4.0333   -0.7897   17.2250 O.3     1  UNL1       -0.4551
     19 C           5.3583   -0.0931   17.1287 C.3     1  UNL1        0.2543
     20 N          -2.3086    4.8870   20.3295 N.pl3   1  UNL1       -0.2786
     21 H          -2.2182    5.8653   20.2660 H       1  UNL1        0.1555
     22 N          -4.7281    3.7935   20.6386 N.ar    1  UNL1       -0.2383
     23 N          -5.5177    3.2775   21.8049 N.ar    1  UNL1       -0.1729
     24 C          -4.6865    3.4526   23.0413 C.ar    1  UNL1        0.0773
     25 C          -3.3832    4.0768   22.6391 C.ar    1  UNL1        0.0244
     26 C          -3.4089    4.2875   21.1542 C.ar    1  UNL1        0.1275
     27 C          -2.5521    4.2519   23.8754 C.3     1  UNL1        0.0308
     28 C          -3.3417    3.7359   25.0417 C.3     1  UNL1        0.0112
     29 C          -4.6609    3.2419   24.5262 C.3     1  UNL1        0.0477
     30 C          -6.5111    3.2342   18.8336 C.3     1  UNL1        0.0285
     31 C          -5.1785    3.8123   19.2080 C.3     1  UNL1        0.1289
@<TRIPOS>BOND
     1    30    31    1
     2    31    22    1
     3    22    23   ar
     4    23    24   ar
     5    24    25   ar
     6    25    26   ar
     7    26    20    1
     8    20     1    1
     9     1     2   ar
    10     2     3   ar
    11     3     6    1
    12     6     7   ar
    13     7     8   ar
    14     8     9   ar
    15     9    12    1
    16    12    13   ar
    17    13    14   ar
    18    14    15   ar
    19    15    16    1
    20    15    17   ar
    21     9    10   ar
    22    10    18    1
    23    18    19    1
    24    10    11   ar
    25     3     4   ar
    26     4     5   ar
    27    25    27    1
    28    27    28    1
    29    28    29    1
    30    26    22   ar
    31     5     1   ar
    32    29    24    1
    33    11     6   ar
    34    17    12   ar
    35    20    21    1
@<TRIPOS>MOLECULE
*****
 31 35 0 0 0
SMALL
GASTEIGER

@<TRIPOS>ATOM
      1 C           3.6652    1.8808   34.8259 C.ar    1  UNL1        0.1646
      2 N           2.8387    2.4244   33.6983 N.ar    1  UNL1       -0.2224
      3 C           2.9522    1.4763   32.5414 C.ar    1  UNL1        0.1074
      4 C           3.8488    0.3468   32.9541 C.ar    1  UNL1        0.0588
      5 S           4.2895    0.5968   34.3659 S.2     1  UNL1       -0.0508
      6 C           2.2861    1.6307   31.2064 C.ar    1  UNL1        0.1026
      7 C           2.5137    2.8707   30.3936 C.ar    1  UNL1        0.0224
      8 C           1.8476    3.0251   29.0585 C.ar    1  UNL1        0.0239
      9 C           0.9538    1.9396   28.5362 C.ar    1  UNL1        0.1189
     10 C           0.7262    0.6996   29.3490 C.ar    1  UNL1        0.2416
     11 N           1.3923    0.5451   30.6841 N.ar    1  UNL1       -0.2089
     12 N           0.2876    2.0940   27.2011 N.ar    1  UNL1       -0.2826
     13 C           0.7789    1.5314   25.9003 C.ar    1  UNL1        0.1826
     14 N          -0.1919    1.9278   24.8278 N.ar    1  UNL1       -0.2280
     15 C          -1.2831    2.7354   25.4657 C.ar    1  UNL1        0.0786
     16 C          -2.4636    3.3350   24.7606 C.3     1  UNL1        0.0538
     17 C          -0.9868    2.8381   26.9325 C.ar    1  UNL1        0.0963
     18 O          -0.1675   -0.3860   28.8267 O.3     1  UNL1       -0.4551
     19 C          -1.6493   -0.3080   29.0463 C.3     1  UNL1        0.2543
     20 N           3.8372    2.5106   36.1763 N.pl3   1  UNL1       -0.2786
     21 H           4.7325    2.7825   36.4823 H       1  UNL1        0.1555
     22 N           1.7197    3.9064   37.0210 N.ar    1  UNL1       -0.2383
     23 N           0.6715    3.7091   38.0757 N.ar    1  UNL1       -0.1729
     24 C           0.9488    2.4071   38.7671 C.ar    1  UNL1        0.0773
     25 C           2.1684    1.7997   38.1397 C.ar    1  UNL1        0.0244
     26 C           2.6449    2.7262   37.0606 C.ar    1  UNL1        0.1275
     27 C           2.4457    0.4977   38.8311 C.3     1  UNL1        0.0308
     28 C           1.3974    0.3005   39.8857 C.3     1  UNL1        0.0112
     29 C           0.4723    1.4806   39.8462 C.3     1  UNL1        0.0477
     30 C           1.0221    6.3179   36.3521 C.3     1  UNL1        0.0285
     31 C           1.8245    5.0779   36.0903 C.3     1  UNL1        0.1289
@<TRIPOS>BOND
     1    30    31    1
     2    31    22    1
     3    22    23   ar
     4    23    24   ar
     5    24    25   ar
     6    25    26   ar
     7    26    20    1
     8    20     1    1
     9     1     2   ar
    10     2     3   ar
    11     3     6    1
    12     6     7   ar
    13     7     8   ar
    14     8     9   ar
    15     9    12    1
    16    12    13   ar
    17    13    14   ar
    18    14    15   ar
    19    15    16    1
    20    15    17   ar
    21     9    10   ar
    22    10    18    1
    23    18    19    1
    24    10    11   ar
    25     3     4   ar
    26     4     5   ar
    27    25    27    1
    28    27    28    1
    29    28    29    1
    30    26    22   ar
    31     5     1   ar
    32    29    24    1
    33    11     6   ar
    34    17    12   ar
    35    20    21    1
@<TRIPOS>MOLECULE
*****
 31 35 0 0 0
SMALL
GASTEIGER

@<TRIPOS>ATOM
      1 C           2.9785    0.9155   19.7409 C.ar    1  UNL1        0.1646
      2 N           2.0324    1.5055   20.7444 N.ar    1  UNL1       -0.2224
      3 C           0.7615    1.8598   20.0308 C.ar    1  UNL1        0.1074
      4 C           0.9220    1.4888   18.5864 C.ar    1  UNL1        0.0588
      5 S           2.2922    0.9052   18.4072 S.2     1  UNL1       -0.0508
      6 C          -0.4562    2.4767   20.6526 C.ar    1  UNL1        0.1026
      7 C          -0.4543    2.8361   22.1090 C.ar    1  UNL1        0.0224
      8 C          -1.6719    3.4530   22.7308 C.ar    1  UNL1        0.0239
      9 C          -2.8915    3.7107   21.8964 C.ar    1  UNL1        0.1189
     10 C          -2.8934    3.3513   20.4401 C.ar    1  UNL1        0.2416
     11 N          -1.6757    2.7343   19.8182 N.ar    1  UNL1       -0.2089
     12 N          -4.1091    4.3276   22.5182 N.ar    1  UNL1       -0.2826
     13 C          -4.1991    5.7072   23.1001 C.ar    1  UNL1        0.1826
     14 N          -5.5962    5.9055   23.6088 N.ar    1  UNL1       -0.2280
     15 C          -6.3696    4.6484   23.3413 C.ar    1  UNL1        0.0786
     16 C          -7.8095    4.4087   23.6872 C.3     1  UNL1        0.0538
     17 C          -5.4506    3.6733   22.6673 C.ar    1  UNL1        0.0963
     18 O          -4.1129    3.6089   19.6056 O.3     1  UNL1       -0.4551
     19 C          -3.9664    4.0451   18.1780 C.3     1  UNL1        0.2543
     20 N           4.3670    0.4225   20.0218 N.pl3   1  UNL1       -0.2786
     21 H           4.9167    0.8643   20.7088 H       1  UNL1        0.1555
     22 N           6.0367   -0.6937   18.2579 N.ar    1  UNL1       -0.2383
     23 N           6.2572   -2.0837   17.7389 N.ar    1  UNL1       -0.1729
     24 C           5.2748   -2.9927   18.4163 C.ar    1  UNL1        0.0773
     25 C           4.4472   -2.1645   19.3539 C.ar    1  UNL1        0.0244
     26 C           4.9180   -0.7437   19.2560 C.ar    1  UNL1        0.1275
     27 C           3.4648   -3.0735   20.0312 C.3     1  UNL1        0.0308
     28 C           3.6854   -4.4634   19.5122 C.3     1  UNL1        0.0112
     29 C           4.8040   -4.4135   18.5141 C.3     1  UNL1        0.0477
     30 C           6.8823    0.9171   16.4033 C.3     1  UNL1        0.0285
     31 C           6.8006    0.5311   17.8504 C.3     1  UNL1        0.1289
@<TRIPOS>BOND
     1    30    31    1
     2    31    22    1
     3    22    23   ar
     4    23    24   ar
     5    24    25   ar
     6    25    26   ar
     7    26    20    1
     8    20     1    1
     9     1     2   ar
    10     2     3   ar
    11     3     6    1
    12     6     7   ar
    13     7     8   ar
    14     8     9   ar
    15     9    12    1
    16    12    13   ar
    17    13    14   ar
    18    14    15   ar
    19    15    16    1
    20    15    17   ar
    21     9    10   ar
    22    10    18    1
    23    18    19    1
    24    10    11   ar
    25     3     4   ar
    26     4     5   ar
    27    25    27    1
    28    27    28    1
    29    28    29    1
    30    26    22   ar
    31     5     1   ar
    32    29    24    1
    33    11     6   ar
    34    17    12   ar
    35    20    21    1
@<TRIPOS>MOLECULE
*****
 31 35 0 0 0
SMALL
GASTEIGER

@<TRIPOS>ATOM
      1 C           2.7391   -0.8138   21.5732 C.ar    1  UNL1        0.1646
      2 N           3.5668   -1.6713   22.4843 N.ar    1  UNL1       -0.2224
      3 C           3.6106   -1.0101   23.8300 C.ar    1  UNL1        0.1074
      4 C           2.8101    0.2560   23.7507 C.ar    1  UNL1        0.0588
      5 S           2.2715    0.3773   22.3560 S.2     1  UNL1       -0.0508
      6 C           4.3289   -1.5247   25.0421 C.ar    1  UNL1        0.1026
      7 C           3.8032   -1.2162   26.4126 C.ar    1  UNL1        0.0224
      8 C           4.5214   -1.7307   27.6248 C.ar    1  UNL1        0.0239
      9 C           5.7654   -2.5538   27.4664 C.ar    1  UNL1        0.1189
     10 C           6.2911   -2.8623   26.0959 C.ar    1  UNL1        0.2416
     11 N           5.5729   -2.3477   24.8836 N.ar    1  UNL1       -0.2089
     12 N           6.4837   -3.0684   28.6786 N.ar    1  UNL1       -0.2826
     13 C           7.3234   -2.2542   29.6177 C.ar    1  UNL1        0.1826
     14 N           7.8471   -3.1702   30.6839 N.ar    1  UNL1       -0.2280
     15 C           7.3309   -4.5504   30.4037 C.ar    1  UNL1        0.0786
     16 C           7.6087   -5.7781   31.2197 C.3     1  UNL1        0.0538
     17 C           6.4883   -4.4875   29.1644 C.ar    1  UNL1        0.0963
     18 O           7.5351   -3.6853   25.9374 O.3     1  UNL1       -0.4551
     19 C           7.5910   -4.7682   24.9010 C.3     1  UNL1        0.2543
     20 N           2.4329   -1.0976   20.1325 N.pl3   1  UNL1       -0.2786
     21 H           1.4983   -1.1890   19.8367 H       1  UNL1        0.1555
     22 N           4.1085   -2.5350   18.6255 N.ar    1  UNL1       -0.2383
     23 N           5.2093   -2.2112   17.6593 N.ar    1  UNL1       -0.1729
     24 C           5.3316   -0.7184   17.5794 C.ar    1  UNL1        0.0773
     25 C           4.3065   -0.1195   18.4961 C.ar    1  UNL1        0.0244
     26 C           3.5505   -1.2422   19.1426 C.ar    1  UNL1        0.1275
     27 C           4.4288    1.3734   18.4162 C.3     1  UNL1        0.0308
     28 C           5.5296    1.6971   17.4500 C.3     1  UNL1        0.0112
     29 C           6.0875    0.4044   16.9328 C.3     1  UNL1        0.0477
     30 C           4.5568   -5.0870   18.8160 C.3     1  UNL1        0.0285
     31 C           3.6467   -3.9101   19.0074 C.3     1  UNL1        0.1289
@<TRIPOS>BOND
     1    30    31    1
     2    31    22    1
     3    22    23   ar
     4    23    24   ar
     5    24    25   ar
     6    25    26   ar
     7    26    20    1
     8    20     1    1
     9     1     2   ar
    10     2     3   ar
    11     3     6    1
    12     6     7   ar
    13     7     8   ar
    14     8     9   ar
    15     9    12    1
    16    12    13   ar
    17    13    14   ar
    18    14    15   ar
    19    15    16    1
    20    15    17   ar
    21     9    10   ar
    22    10    18    1
    23    18    19    1
    24    10    11   ar
    25     3     4   ar
    26     4     5   ar
    27    25    27    1
    28    27    28    1
    29    28    29    1
    30    26    22   ar
    31     5     1   ar
    32    29    24    1
    33    11     6   ar
    34    17    12   ar
    35    20    21    1
@<TRIPOS>MOLECULE
*****
 31 35 0 0 0
SMALL
GASTEIGER

@<TRIPOS>ATOM
      1 C          -1.4771    4.0400   19.7295 C.ar    1  UNL1        0.1646
      2 N          -0.6900    2.8995   20.3039 N.ar    1  UNL1       -0.2224
      3 C           0.1401    2.3085   19.2033 C.ar    1  UNL1        0.1074
      4 C          -0.1339    3.0836   17.9486 C.ar    1  UNL1        0.0588
      5 S          -1.1334    4.1538   18.2739 S.2     1  UNL1       -0.0508
      6 C           1.0793    1.1463   19.3343 C.ar    1  UNL1        0.1026
      7 C           1.0886    0.3275   20.5910 C.ar    1  UNL1        0.0224
      8 C           2.0278   -0.8347   20.7221 C.ar    1  UNL1        0.0239
      9 C           2.9578   -1.1781   19.5964 C.ar    1  UNL1        0.1189
     10 C           2.9486   -0.3593   18.3397 C.ar    1  UNL1        0.2416
     11 N           2.0093    0.8030   18.2086 N.ar    1  UNL1       -0.2089
     12 N           3.8970   -2.3403   19.7275 N.ar    1  UNL1       -0.2826
     13 C           3.6207   -3.7502   19.2965 C.ar    1  UNL1        0.1826
     14 N           4.8304   -4.5779   19.6152 N.ar    1  UNL1       -0.2280
     15 C           5.8544   -3.6794   20.2430 C.ar    1  UNL1        0.0786
     16 C           7.2162   -4.0916   20.7181 C.3     1  UNL1        0.0538
     17 C           5.2776   -2.2965   20.3124 C.ar    1  UNL1        0.0963
     18 O           3.8785   -0.7026   17.2140 O.3     1  UNL1       -0.4551
     19 C           5.2410   -0.0784   17.1497 C.3     1  UNL1        0.2543
     20 N          -2.4390    4.9134   20.4792 N.pl3   1  UNL1       -0.2786
     21 H          -2.1144    5.7198   20.9412 H       1  UNL1        0.1555
     22 N          -4.6113    3.9181   21.6773 N.ar    1  UNL1       -0.2383
     23 N          -6.0503    3.7448   21.2907 N.ar    1  UNL1       -0.1729
     24 C          -6.2239    4.2776   19.8993 C.ar    1  UNL1        0.0773
     25 C          -4.8922    4.7802   19.4259 C.ar    1  UNL1        0.0244
     26 C          -3.8956    4.5580   20.5248 C.ar    1  UNL1        0.1275
     27 C          -5.0658    5.3130   18.0345 C.3     1  UNL1        0.0308
     28 C          -6.5047    5.1396   17.6480 C.3     1  UNL1        0.0112
     29 C          -7.2204    4.4997   18.8005 C.3     1  UNL1        0.0477
     30 C          -4.7944    3.6246   24.2522 C.3     1  UNL1        0.0285
     31 C          -3.9962    3.5213   22.9865 C.3     1  UNL1        0.1289
@<TRIPOS>BOND
     1    30    31    1
     2    31    22    1
     3    22    23   ar
     4    23    24   ar
     5    24    25   ar
     6    25    26   ar
     7    26    20    1
     8    20     1    1
     9     1     2   ar
    10     2     3   ar
    11     3     6    1
    12     6     7   ar
    13     7     8   ar
    14     8     9   ar
    15     9    12    1
    16    12    13   ar
    17    13    14   ar
    18    14    15   ar
    19    15    16    1
    20    15    17   ar
    21     9    10   ar
    22    10    18    1
    23    18    19    1
    24    10    11   ar
    25     3     4   ar
    26     4     5   ar
    27    25    27    1
    28    27    28    1
    29    28    29    1
    30    26    22   ar
    31     5     1   ar
    32    29    24    1
    33    11     6   ar
    34    17    12   ar
    35    20    21    1
@<TRIPOS>MOLECULE
*****
 31 35 0 0 0
SMALL
GASTEIGER

@<TRIPOS>ATOM
      1 C           4.7627   -2.9944   20.0002 C.ar    1  UNL1        0.1646
      2 N           4.7135   -3.0781   21.4971 N.ar    1  UNL1       -0.2224
      3 C           6.0185   -3.6446   21.9728 C.ar    1  UNL1        0.1074
      4 C           6.8741   -3.9109   20.7699 C.ar    1  UNL1        0.0588
      5 S           6.0980   -3.5091   19.5508 S.2     1  UNL1       -0.0508
      6 C           6.4006   -3.8998   23.4007 C.ar    1  UNL1        0.1026
      7 C           6.0373   -2.9056   24.4635 C.ar    1  UNL1        0.0224
      8 C           6.4193   -3.1607   25.8913 C.ar    1  UNL1        0.0239
      9 C           7.1648   -4.4102   26.2565 C.ar    1  UNL1        0.1189
     10 C           7.5281   -5.4044   25.1937 C.ar    1  UNL1        0.2416
     11 N           7.1460   -5.1492   23.7657 N.ar    1  UNL1       -0.2089
     12 N           7.5469   -4.6654   27.6843 N.ar    1  UNL1       -0.2826
     13 C           8.8972   -4.4256   28.2921 C.ar    1  UNL1        0.1826
     14 N           8.8306   -4.8172   29.7385 N.ar    1  UNL1       -0.2280
     15 C           7.4393   -5.2991   30.0247 C.ar    1  UNL1        0.0786
     16 C           6.9306   -5.7889   31.3481 C.3     1  UNL1        0.0538
     17 C           6.6459   -5.2053   28.7551 C.ar    1  UNL1        0.0963
     18 O           8.2736   -6.6538   25.5587 O.3     1  UNL1       -0.4551
     19 C           7.5250   -7.8577   26.0486 C.3     1  UNL1        0.2543
     20 N           3.6686   -2.4854   19.1092 N.pl3   1  UNL1       -0.2786
     21 H           3.1344   -3.1171   18.5756 H       1  UNL1        0.1555
     22 N           4.2901    0.0247   18.4324 N.ar    1  UNL1       -0.2383
     23 N           3.6164    1.3580   18.5696 N.ar    1  UNL1       -0.1729
     24 C           2.2986    1.1433   19.2531 C.ar    1  UNL1        0.0773
     25 C           2.1577   -0.3226   19.5385 C.ar    1  UNL1        0.0244
     26 C           3.3885   -1.0139   19.0313 C.ar    1  UNL1        0.1275
     27 C           0.8399   -0.5372   20.2220 C.3     1  UNL1        0.0308
     28 C           0.1663    0.7960   20.3591 C.3     1  UNL1        0.0112
     29 C           1.0678    1.8346   19.7603 C.3     1  UNL1        0.0477
     30 C           6.0681    0.5846   16.6228 C.3     1  UNL1        0.0285
     31 C           5.6299   -0.2259   17.8065 C.3     1  UNL1        0.1289
@<TRIPOS>BOND
     1    30    31    1
     2    31    22    1
     3    22    23   ar
     4    23    24   ar
     5    24    25   ar
     6    25    26   ar
     7    26    20    1
     8    20     1    1
     9     1     2   ar
    10     2     3   ar
    11     3     6    1
    12     6     7   ar
    13     7     8   ar
    14     8     9   ar
    15     9    12    1
    16    12    13   ar
    17    13    14   ar
    18    14    15   ar
    19    15    16    1
    20    15    17   ar
    21     9    10   ar
    22    10    18    1
    23    18    19    1
    24    10    11   ar
    25     3     4   ar
    26     4     5   ar
    27    25    27    1
    28    27    28    1
    29    28    29    1
    30    26    22   ar
    31     5     1   ar
    32    29    24    1
    33    11     6   ar
    34    17    12   ar
    35    20    21    1
@<TRIPOS>MOLECULE
*****
 31 35 0 0 0
SMALL
GASTEIGER

@<TRIPOS>ATOM
      1 C           4.6774   -3.0291   20.2686 C.ar    1  UNL1        0.1646
      2 N           4.5613   -3.0924   21.7628 N.ar    1  UNL1       -0.2224
      3 C           5.9027   -3.4723   22.3163 C.ar    1  UNL1        0.1074
      4 C           6.8478   -3.6437   21.1642 C.ar    1  UNL1        0.0588
      5 S           6.0905   -3.3698   19.8987 S.2     1  UNL1       -0.0508
      6 C           6.2398   -3.6496   23.7671 C.ar    1  UNL1        0.1026
      7 C           7.0209   -4.8495   24.2144 C.ar    1  UNL1        0.0224
      8 C           7.3580   -5.0268   25.6652 C.ar    1  UNL1        0.0239
      9 C           6.9140   -4.0042   26.6688 C.ar    1  UNL1        0.1189
     10 C           6.1329   -2.8043   26.2215 C.ar    1  UNL1        0.2416
     11 N           5.7957   -2.6269   24.7707 N.ar    1  UNL1       -0.2089
     12 N           7.2510   -4.1815   28.1197 N.ar    1  UNL1       -0.2826
     13 C           8.2368   -3.3653   28.9020 C.ar    1  UNL1        0.1826
     14 N           8.2565   -3.8855   30.3087 N.ar    1  UNL1       -0.2280
     15 C           7.2829   -5.0233   30.3958 C.ar    1  UNL1        0.0786
     16 C           6.9833   -5.8355   31.6208 C.3     1  UNL1        0.0538
     17 C           6.6615   -5.2062   29.0429 C.ar    1  UNL1        0.0963
     18 O           5.6888   -1.7817   27.2251 O.3     1  UNL1       -0.4551
     19 C           4.2297   -1.6146   27.5302 C.3     1  UNL1        0.2543
     20 N           3.5740   -2.6854   19.3124 N.pl3   1  UNL1       -0.2786
     21 H           3.0515   -3.4023   18.8854 H       1  UNL1        0.1555
     22 N           4.0738   -0.3437   18.1243 N.ar    1  UNL1       -0.2383
     23 N           3.4043    0.9985   18.1019 N.ar    1  UNL1       -0.1729
     24 C           2.1836    0.9222   18.9703 C.ar    1  UNL1        0.0773
     25 C           2.0986   -0.4670   19.5295 C.ar    1  UNL1        0.0244
     26 C           3.2668   -1.2494   19.0066 C.ar    1  UNL1        0.1275
     27 C           0.8780   -0.5433   20.3979 C.3     1  UNL1        0.0308
     28 C           0.2086    0.7988   20.3754 C.3     1  UNL1        0.0112
     29 C           1.0155    1.7046   19.4931 C.3     1  UNL1        0.0477
     30 C           6.6428   -0.1206   17.8080 C.3     1  UNL1        0.0285
     31 C           5.3296   -0.7149   17.3929 C.3     1  UNL1        0.1289
@<TRIPOS>BOND
     1    30    31    1
     2    31    22    1
     3    22    23   ar
     4    23    24   ar
     5    24    25   ar
     6    25    26   ar
     7    26    20    1
     8    20     1    1
     9     1     2   ar
    10     2     3   ar
    11     3     6    1
    12     6     7   ar
    13     7     8   ar
    14     8     9   ar
    15     9    12    1
    16    12    13   ar
    17    13    14   ar
    18    14    15   ar
    19    15    16    1
    20    15    17   ar
    21     9    10   ar
    22    10    18    1
    23    18    19    1
    24    10    11   ar
    25     3     4   ar
    26     4     5   ar
    27    25    27    1
    28    27    28    1
    29    28    29    1
    30    26    22   ar
    31     5     1   ar
    32    29    24    1
    33    11     6   ar
    34    17    12   ar
    35    20    21    1
