@<TRIPOS>MOLECULE
*****
 29 32 0 0 0
SMALL
GASTEIGER

@<TRIPOS>ATOM
      1 O         -15.7363   -0.0250   17.6821 O.2     1  UNL1       -0.1683
      2 S         -14.5282    0.7226   18.1633 S.O2    1  UNL1        0.0143
      3 O         -13.3201    1.4702   18.6446 O.2     1  UNL1       -0.1683
      4 C         -13.7795   -0.5707   18.2928 C.ar    1  UNL1        0.1251
      5 C         -12.2897   -0.5605   18.4678 C.ar    1  UNL1        0.0215
      6 C         -11.5410   -1.8538   18.5973 C.ar    1  UNL1        0.0205
      7 C         -12.2819   -3.1573   18.5517 C.ar    1  UNL1        0.0814
      8 N         -13.7717   -3.1674   18.3767 N.ar    1  UNL1       -0.2425
      9 C         -14.5204   -1.8741   18.2473 C.ar    1  UNL1        0.1171
     10 C         -11.5333   -4.4506   18.6812 C.ar    1  UNL1        0.0178
     11 C         -12.2522   -5.7546   18.5002 C.ar    1  UNL1        0.0038
     12 C         -11.5036   -7.0480   18.6296 C.ar    1  UNL1        0.0297
     13 C         -10.0361   -7.0374   18.9400 C.ar    1  UNL1        0.1401
     14 F          -9.2875   -8.3308   19.0695 F       1  UNL1       -0.2042
     15 C          -9.3172   -5.7333   19.1210 C.ar    1  UNL1        0.0297
     16 C         -10.0658   -4.4401   18.9916 C.ar    1  UNL1        0.0038
     17 C         -15.2770    2.0159   18.0339 C.3     1  UNL1        0.1823
     18 C         -15.6847    2.7727   19.2631 C.ar    1  UNL1        0.0014
     19 C         -15.2804    4.2077   19.4289 C.ar    1  UNL1       -0.0029
     20 C         -15.6881    4.9646   20.6581 C.ar    1  UNL1       -0.0048
     21 C         -16.5000    4.2864   21.7216 C.ar    1  UNL1       -0.0247
     22 C         -16.9042    2.8516   21.5558 C.ar    1  UNL1       -0.0250
     23 C         -16.4966    2.0947   20.3266 C.ar    1  UNL1       -0.0071
     24 C         -17.7069    1.9924   22.4873 C.3     1  UNL1        0.0431
     25 C         -18.3034    2.3561   23.8148 C.3     1  UNL1        0.0733
     26 N         -18.2446    3.6686   24.5384 N.3     1  UNL1       -0.2969
     27 C         -17.5749    4.9417   24.1134 C.3     1  UNL1        0.0733
     28 C         -16.7984    5.2167   22.8598 C.3     1  UNL1        0.0431
     29 H         -17.8208    3.4452   25.4388 H       1  UNL1        0.1233
@<TRIPOS>BOND
     1     1     2    2
     2     2     3    2
     3     2    17    1
     4    17    18    1
     5    18    19   ar
     6    19    20   ar
     7    20    21   ar
     8    21    22   ar
     9    22    23   ar
    10    22    24    1
    11    24    25    1
    12    25    26    1
    13    26    27    1
    14    27    28    1
    15     2     4    1
    16     4     5   ar
    17     5     6   ar
    18     6     7   ar
    19     7    10    1
    20    10    11   ar
    21    11    12   ar
    22    12    13   ar
    23    13    14    1
    24    13    15   ar
    25    15    16   ar
    26     7     8   ar
    27     8     9   ar
    28    23    18   ar
    29     9     4   ar
    30    28    21    1
    31    16    10   ar
    32    26    29    1
@<TRIPOS>MOLECULE
*****
 29 32 0 0 0
SMALL
GASTEIGER

@<TRIPOS>ATOM
      1 O           8.1136   -2.3953   21.2939 O.2     1  UNL1       -0.1683
      2 S           7.2604   -3.5671   20.9080 S.O2    1  UNL1        0.0143
      3 O           6.4072   -4.7389   20.5222 O.2     1  UNL1       -0.1683
      4 C           6.1138   -2.6408   20.6301 C.ar    1  UNL1        0.1251
      5 C           4.7172   -3.1810   20.5433 C.ar    1  UNL1        0.0215
      6 C           3.5707   -2.2546   20.2654 C.ar    1  UNL1        0.0205
      7 C           3.8207   -0.7880   20.0743 C.ar    1  UNL1        0.0814
      8 N           5.2174   -0.2477   20.1610 N.ar    1  UNL1       -0.2425
      9 C           6.3639   -1.1741   20.4390 C.ar    1  UNL1        0.1171
     10 C           2.6742    0.1384   19.7963 C.ar    1  UNL1        0.0178
     11 C           2.8648    1.3154   18.8861 C.ar    1  UNL1        0.0038
     12 C           1.7183    2.2419   18.6081 C.ar    1  UNL1        0.0297
     13 C           0.3813    1.9915   19.2404 C.ar    1  UNL1        0.1401
     14 F          -0.7651    2.9180   18.9624 F       1  UNL1       -0.2042
     15 C           0.1908    0.8145   20.1506 C.ar    1  UNL1        0.0297
     16 C           1.3372   -0.1119   20.4286 C.ar    1  UNL1        0.0038
     17 C           8.4070   -4.4935   21.1859 C.3     1  UNL1        0.1823
     18 C           8.4014   -5.3440   22.4215 C.ar    1  UNL1        0.0014
     19 C           9.0911   -6.6761   22.4181 C.ar    1  UNL1       -0.0029
     20 C           9.0856   -7.5267   23.6536 C.ar    1  UNL1       -0.0048
     21 C           8.3903   -7.0451   24.8926 C.ar    1  UNL1       -0.0247
     22 C           7.7007   -5.7132   24.8959 C.ar    1  UNL1       -0.0250
     23 C           7.7062   -4.8626   23.6604 C.ar    1  UNL1       -0.0071
     24 C           6.9544   -5.0492   26.0149 C.3     1  UNL1        0.0431
     25 C           6.7135   -5.5534   27.4070 C.3     1  UNL1        0.0733
     26 N           7.1593   -6.8459   28.0238 N.3     1  UNL1       -0.2969
     27 C           7.9562   -7.9536   27.4009 C.3     1  UNL1        0.0733
     28 C           8.5041   -8.0423   26.0074 C.3     1  UNL1        0.0431
     29 H           6.2958   -7.2937   28.3308 H       1  UNL1        0.1233
@<TRIPOS>BOND
     1     1     2    2
     2     2     3    2
     3     2    17    1
     4    17    18    1
     5    18    19   ar
     6    19    20   ar
     7    20    21   ar
     8    21    22   ar
     9    22    23   ar
    10    22    24    1
    11    24    25    1
    12    25    26    1
    13    26    27    1
    14    27    28    1
    15     2     4    1
    16     4     5   ar
    17     5     6   ar
    18     6     7   ar
    19     7    10    1
    20    10    11   ar
    21    11    12   ar
    22    12    13   ar
    23    13    14    1
    24    13    15   ar
    25    15    16   ar
    26     7     8   ar
    27     8     9   ar
    28    23    18   ar
    29     9     4   ar
    30    28    21    1
    31    16    10   ar
    32    26    29    1
@<TRIPOS>MOLECULE
*****
 29 32 0 0 0
SMALL
GASTEIGER

@<TRIPOS>ATOM
      1 O           0.6519    3.7245   20.9166 O.2     1  UNL1       -0.1683
      2 S           0.0187    2.3780   20.7270 S.O2    1  UNL1        0.0143
      3 O          -0.6145    1.0315   20.5374 O.2     1  UNL1       -0.1683
      4 C          -1.2413    2.8803   21.3673 C.ar    1  UNL1        0.1251
      5 C          -1.2412    3.2752   22.8145 C.ar    1  UNL1        0.0215
      6 C          -2.5013    3.7775   23.4547 C.ar    1  UNL1        0.0205
      7 C          -3.7613    3.8850   22.6481 C.ar    1  UNL1        0.0814
      8 N          -3.7614    3.4901   21.2010 N.ar    1  UNL1       -0.2425
      9 C          -2.5014    2.9877   20.5606 C.ar    1  UNL1        0.1171
     10 C          -5.0214    4.3873   23.2884 C.ar    1  UNL1        0.0178
     11 C          -6.3457    4.1501   22.6250 C.ar    1  UNL1        0.0038
     12 C          -7.6058    4.6524   23.2652 C.ar    1  UNL1        0.0297
     13 C          -7.5416    5.3918   24.5688 C.ar    1  UNL1        0.1401
     14 F          -8.8017    5.8941   25.2090 F       1  UNL1       -0.2042
     15 C          -6.2172    5.6290   25.2321 C.ar    1  UNL1        0.0297
     16 C          -4.9572    5.1267   24.5919 C.ar    1  UNL1        0.0038
     17 C           1.2787    1.8757   20.0866 C.3     1  UNL1        0.1823
     18 C           2.0346    0.7392   20.7087 C.ar    1  UNL1        0.0014
     19 C           2.4014    0.7890   22.1623 C.ar    1  UNL1       -0.0029
     20 C           3.1573   -0.3475   22.7845 C.ar    1  UNL1       -0.0048
     21 C           3.5463   -1.5338   21.9530 C.ar    1  UNL1       -0.0247
     22 C           3.1794   -1.5836   20.4995 C.ar    1  UNL1       -0.0250
     23 C           2.4236   -0.4472   19.8773 C.ar    1  UNL1       -0.0071
     24 C           3.4674   -2.6633   19.4987 C.3     1  UNL1        0.0431
     25 C           4.1935   -3.9597   19.7044 C.3     1  UNL1        0.0733
     26 N           4.8108   -4.4966   20.9615 N.3     1  UNL1       -0.2969
     27 C           4.8546   -3.8698   22.3236 C.3     1  UNL1        0.0733
     28 C           4.2918   -2.5512   22.7649 C.3     1  UNL1        0.0431
     29 H           5.7896   -4.6510   20.7198 H       1  UNL1        0.1233
@<TRIPOS>BOND
     1     1     2    2
     2     2     3    2
     3     2    17    1
     4    17    18    1
     5    18    19   ar
     6    19    20   ar
     7    20    21   ar
     8    21    22   ar
     9    22    23   ar
    10    22    24    1
    11    24    25    1
    12    25    26    1
    13    26    27    1
    14    27    28    1
    15     2     4    1
    16     4     5   ar
    17     5     6   ar
    18     6     7   ar
    19     7    10    1
    20    10    11   ar
    21    11    12   ar
    22    12    13   ar
    23    13    14    1
    24    13    15   ar
    25    15    16   ar
    26     7     8   ar
    27     8     9   ar
    28    23    18   ar
    29     9     4   ar
    30    28    21    1
    31    16    10   ar
    32    26    29    1
@<TRIPOS>MOLECULE
*****
 29 32 0 0 0
SMALL
GASTEIGER

@<TRIPOS>ATOM
      1 O          -0.4563    1.1734   25.3686 O.2     1  UNL1       -0.1683
      2 S           0.0786    2.3882   24.6699 S.O2    1  UNL1        0.0143
      3 O           0.6135    3.6030   23.9712 O.2     1  UNL1       -0.1683
      4 C           0.8407    1.5085   23.7237 C.ar    1  UNL1        0.1251
      5 C           1.9104    0.5954   24.2453 C.ar    1  UNL1        0.0215
      6 C           2.6724   -0.2844   23.2991 C.ar    1  UNL1        0.0205
      7 C           2.3649   -0.2511   21.8313 C.ar    1  UNL1        0.0814
      8 N           1.2952    0.6620   21.3097 N.ar    1  UNL1       -0.2425
      9 C           0.5331    1.5418   22.2559 C.ar    1  UNL1        0.1171
     10 C           3.1269   -1.1308   20.8851 C.ar    1  UNL1        0.0178
     11 C           3.1219   -0.8325   19.4150 C.ar    1  UNL1        0.0038
     12 C           3.8839   -1.7122   18.4687 C.ar    1  UNL1        0.0297
     13 C           4.6509   -2.8902   18.9925 C.ar    1  UNL1        0.1401
     14 F           5.4129   -3.7699   18.0461 F       1  UNL1       -0.2042
     15 C           4.6558   -3.1884   20.4626 C.ar    1  UNL1        0.0297
     16 C           3.8938   -2.3087   21.4088 C.ar    1  UNL1        0.0038
     17 C          -0.6835    3.2680   25.6161 C.3     1  UNL1        0.1823
     18 C          -2.1347    3.5556   25.3687 C.ar    1  UNL1        0.0014
     19 C          -3.0466    3.8567   26.5210 C.ar    1  UNL1       -0.0029
     20 C          -4.4979    4.1443   26.2737 C.ar    1  UNL1       -0.0048
     21 C          -5.0372    4.1307   24.8740 C.ar    1  UNL1       -0.0247
     22 C          -4.1254    3.8296   23.7218 C.ar    1  UNL1       -0.0250
     23 C          -2.6741    3.5420   23.9691 C.ar    1  UNL1       -0.0071
     24 C          -4.4554    3.7654   22.2599 C.3     1  UNL1        0.0431
     25 C          -5.7788    3.9867   21.5893 C.3     1  UNL1        0.0733
     26 N          -7.0989    4.3266   22.2149 N.3     1  UNL1       -0.2969
     27 C          -7.4219    4.5294   23.6657 C.3     1  UNL1        0.0733
     28 C          -6.5044    4.4422   24.8491 C.3     1  UNL1        0.0431
     29 H          -7.7236    3.5776   21.9164 H       1  UNL1        0.1233
@<TRIPOS>BOND
     1     1     2    2
     2     2     3    2
     3     2    17    1
     4    17    18    1
     5    18    19   ar
     6    19    20   ar
     7    20    21   ar
     8    21    22   ar
     9    22    23   ar
    10    22    24    1
    11    24    25    1
    12    25    26    1
    13    26    27    1
    14    27    28    1
    15     2     4    1
    16     4     5   ar
    17     5     6   ar
    18     6     7   ar
    19     7    10    1
    20    10    11   ar
    21    11    12   ar
    22    12    13   ar
    23    13    14    1
    24    13    15   ar
    25    15    16   ar
    26     7     8   ar
    27     8     9   ar
    28    23    18   ar
    29     9     4   ar
    30    28    21    1
    31    16    10   ar
    32    26    29    1
@<TRIPOS>MOLECULE
*****
 29 32 0 0 0
SMALL
GASTEIGER

@<TRIPOS>ATOM
      1 O           0.9696    3.5074   22.4326 O.2     1  UNL1       -0.1683
      2 S           0.6845    2.3583   23.3537 S.O2    1  UNL1        0.0143
      3 O           0.3994    1.2093   24.2747 O.2     1  UNL1       -0.1683
      4 C          -0.7287    2.8357   23.5117 C.ar    1  UNL1        0.1251
      5 C          -1.5068    3.2864   22.3110 C.ar    1  UNL1        0.0215
      6 C          -2.9200    3.7637   22.4692 C.ar    1  UNL1        0.0205
      7 C          -3.5552    3.7904   23.8277 C.ar    1  UNL1        0.0814
      8 N          -2.7771    3.3396   25.0284 N.ar    1  UNL1       -0.2425
      9 C          -1.3639    2.8623   24.8703 C.ar    1  UNL1        0.1171
     10 C          -4.9684    4.2677   23.9859 C.ar    1  UNL1        0.0178
     11 C          -5.3516    5.0951   25.1769 C.ar    1  UNL1        0.0038
     12 C          -6.7648    5.5725   25.3351 C.ar    1  UNL1        0.0297
     13 C          -7.7948    5.2224   24.3023 C.ar    1  UNL1        0.1401
     14 F          -9.2080    5.6998   24.4605 F       1  UNL1       -0.2042
     15 C          -7.4115    4.3950   23.1112 C.ar    1  UNL1        0.0297
     16 C          -5.9984    3.9177   22.9531 C.ar    1  UNL1        0.0038
     17 C           2.0977    1.8810   23.1956 C.3     1  UNL1        0.1823
     18 C           2.4000    0.7157   22.3009 C.ar    1  UNL1        0.0014
     19 C           1.8688    0.6895   20.8983 C.ar    1  UNL1       -0.0029
     20 C           2.1711   -0.4758   20.0034 C.ar    1  UNL1       -0.0048
     21 C           3.0047   -1.6149   20.5112 C.ar    1  UNL1       -0.0247
     22 C           3.5358   -1.5887   21.9137 C.ar    1  UNL1       -0.0250
     23 C           3.2335   -0.4234   22.8086 C.ar    1  UNL1       -0.0071
     24 C           4.3797   -2.6125   22.6135 C.3     1  UNL1        0.0431
     25 C           4.9008   -3.9155   22.0835 C.3     1  UNL1        0.0733
     26 N           4.7067   -4.5163   20.7229 N.3     1  UNL1       -0.2969
     27 C           3.9436   -3.9627   19.5562 C.3     1  UNL1        0.0733
     28 C           3.1861   -2.6714   19.4620 C.3     1  UNL1        0.0431
     29 H           4.2757   -5.4230   20.9031 H       1  UNL1        0.1233
@<TRIPOS>BOND
     1     1     2    2
     2     2     3    2
     3     2    17    1
     4    17    18    1
     5    18    19   ar
     6    19    20   ar
     7    20    21   ar
     8    21    22   ar
     9    22    23   ar
    10    22    24    1
    11    24    25    1
    12    25    26    1
    13    26    27    1
    14    27    28    1
    15     2     4    1
    16     4     5   ar
    17     5     6   ar
    18     6     7   ar
    19     7    10    1
    20    10    11   ar
    21    11    12   ar
    22    12    13   ar
    23    13    14    1
    24    13    15   ar
    25    15    16   ar
    26     7     8   ar
    27     8     9   ar
    28    23    18   ar
    29     9     4   ar
    30    28    21    1
    31    16    10   ar
    32    26    29    1
@<TRIPOS>MOLECULE
*****
 29 32 0 0 0
SMALL
GASTEIGER

@<TRIPOS>ATOM
      1 O           6.5349   -5.8483   26.1027 O.2     1  UNL1       -0.1683
      2 S           7.7471   -4.9837   25.9215 S.O2    1  UNL1        0.0143
      3 O           8.9594   -4.1190   25.7403 O.2     1  UNL1       -0.1683
      4 C           7.1982   -4.4874   24.6167 C.ar    1  UNL1        0.1251
      5 C           6.1805   -3.3856   24.6017 C.ar    1  UNL1        0.0215
      6 C           5.6317   -2.8894   23.2969 C.ar    1  UNL1        0.0205
      7 C           6.1004   -3.4950   22.0071 C.ar    1  UNL1        0.0814
      8 N           7.1181   -4.5969   22.0221 N.ar    1  UNL1       -0.2425
      9 C           7.6670   -5.0931   23.3269 C.ar    1  UNL1        0.1171
     10 C           5.5516   -2.9989   20.7023 C.ar    1  UNL1        0.0178
     11 C           6.4698   -2.7834   19.5359 C.ar    1  UNL1        0.0038
     12 C           5.9210   -2.2873   18.2310 C.ar    1  UNL1        0.0297
     13 C           4.4540   -2.0065   18.0925 C.ar    1  UNL1        0.1401
     14 F           3.9052   -1.5104   16.7876 F       1  UNL1       -0.2042
     15 C           3.5358   -2.2220   19.2590 C.ar    1  UNL1        0.0297
     16 C           4.0846   -2.7181   20.5637 C.ar    1  UNL1        0.0038
     17 C           8.2961   -5.4799   27.2263 C.3     1  UNL1        0.1823
     18 C           7.7325   -4.9699   28.5195 C.ar    1  UNL1        0.0014
     19 C           7.8023   -5.8185   29.7544 C.ar    1  UNL1       -0.0029
     20 C           7.2388   -5.3085   31.0477 C.ar    1  UNL1       -0.0048
     21 C           6.6053   -3.9500   31.1059 C.ar    1  UNL1       -0.0247
     22 C           6.5355   -3.1016   29.8710 C.ar    1  UNL1       -0.0250
     23 C           7.0990   -3.6114   28.5777 C.ar    1  UNL1       -0.0071
     24 C           5.9516   -1.7291   29.7109 C.3     1  UNL1        0.0431
     25 C           5.2934   -0.8663   30.7465 C.3     1  UNL1        0.0733
     26 N           5.0565   -1.1628   32.1976 N.3     1  UNL1       -0.2969
     27 C           5.4193   -2.3953   32.9718 C.3     1  UNL1        0.0733
     28 C           6.1086   -3.6358   32.4859 C.3     1  UNL1        0.0431
     29 H           4.0470   -1.0754   32.3148 H       1  UNL1        0.1233
@<TRIPOS>BOND
     1     1     2    2
     2     2     3    2
     3     2    17    1
     4    17    18    1
     5    18    19   ar
     6    19    20   ar
     7    20    21   ar
     8    21    22   ar
     9    22    23   ar
    10    22    24    1
    11    24    25    1
    12    25    26    1
    13    26    27    1
    14    27    28    1
    15     2     4    1
    16     4     5   ar
    17     5     6   ar
    18     6     7   ar
    19     7    10    1
    20    10    11   ar
    21    11    12   ar
    22    12    13   ar
    23    13    14    1
    24    13    15   ar
    25    15    16   ar
    26     7     8   ar
    27     8     9   ar
    28    23    18   ar
    29     9     4   ar
    30    28    21    1
    31    16    10   ar
    32    26    29    1
@<TRIPOS>MOLECULE
*****
 29 32 0 0 0
SMALL
GASTEIGER

@<TRIPOS>ATOM
      1 O           1.3693    3.5792   22.6100 O.2     1  UNL1       -0.1683
      2 S           1.0690    2.3836   23.4647 S.O2    1  UNL1        0.0143
      3 O           0.7688    1.1881   24.3194 O.2     1  UNL1       -0.1683
      4 C          -0.3642    2.8148   23.5642 C.ar    1  UNL1        0.1251
      5 C          -1.0388    2.8724   24.9028 C.ar    1  UNL1        0.0215
      6 C          -2.4721    3.3036   25.0022 C.ar    1  UNL1        0.0205
      7 C          -3.2308    3.6770   23.7633 C.ar    1  UNL1        0.0814
      8 N          -2.5562    3.6193   22.4248 N.ar    1  UNL1       -0.2425
      9 C          -1.1229    3.1882   22.3253 C.ar    1  UNL1        0.1171
     10 C          -4.6640    4.1082   23.8628 C.ar    1  UNL1        0.0178
     11 C          -5.6334    3.7448   22.7773 C.ar    1  UNL1        0.0038
     12 C          -7.0667    4.1759   22.8766 C.ar    1  UNL1        0.0297
     13 C          -7.5306    4.9704   24.0615 C.ar    1  UNL1        0.1401
     14 F          -8.9639    5.4015   24.1609 F       1  UNL1       -0.2042
     15 C          -6.5611    5.3336   25.1470 C.ar    1  UNL1        0.0297
     16 C          -5.1279    4.9025   25.0476 C.ar    1  UNL1        0.0038
     17 C           2.5023    1.9525   23.3652 C.3     1  UNL1        0.1823
     18 C           2.8832    0.8185   22.4602 C.ar    1  UNL1        0.0014
     19 C           3.1631   -0.5383   23.0352 C.ar    1  UNL1       -0.0029
     20 C           3.5440   -1.6724   22.1302 C.ar    1  UNL1       -0.0048
     21 C           3.6450   -1.4495   20.6503 C.ar    1  UNL1       -0.0247
     22 C           3.3651   -0.0927   20.0754 C.ar    1  UNL1       -0.0250
     23 C           2.9842    1.0413   20.9802 C.ar    1  UNL1       -0.0071
     24 C           3.4081    0.3420   18.6403 C.3     1  UNL1        0.0431
     25 C           3.7417   -0.4728   17.4259 C.3     1  UNL1        0.0733
     26 N           4.1146   -1.9235   17.3466 N.3     1  UNL1       -0.2969
     27 C           4.2460   -2.9178   18.4620 C.3     1  UNL1        0.0733
     28 C           4.0371   -2.7068   19.9323 C.3     1  UNL1        0.0431
     29 H           5.0273   -1.9282   16.8912 H       1  UNL1        0.1233
@<TRIPOS>BOND
     1     1     2    2
     2     2     3    2
     3     2    17    1
     4    17    18    1
     5    18    19   ar
     6    19    20   ar
     7    20    21   ar
     8    21    22   ar
     9    22    23   ar
    10    22    24    1
    11    24    25    1
    12    25    26    1
    13    26    27    1
    14    27    28    1
    15     2     4    1
    16     4     5   ar
    17     5     6   ar
    18     6     7   ar
    19     7    10    1
    20    10    11   ar
    21    11    12   ar
    22    12    13   ar
    23    13    14    1
    24    13    15   ar
    25    15    16   ar
    26     7     8   ar
    27     8     9   ar
    28    23    18   ar
    29     9     4   ar
    30    28    21    1
    31    16    10   ar
    32    26    29    1
@<TRIPOS>MOLECULE
*****
 29 32 0 0 0
SMALL
GASTEIGER

@<TRIPOS>ATOM
      1 O           2.6830    2.5095   24.1843 O.2     1  UNL1       -0.1683
      2 S           1.4386    1.6802   24.3019 S.O2    1  UNL1        0.0143
      3 O           0.1942    0.8509   24.4194 O.2     1  UNL1       -0.1683
      4 C           1.5542    1.7185   25.7969 C.ar    1  UNL1        0.1251
      5 C           0.3748    1.3561   26.6499 C.ar    1  UNL1        0.0215
      6 C           0.4905    1.3944   28.1449 C.ar    1  UNL1        0.0205
      7 C           1.7856    1.7951   28.7870 C.ar    1  UNL1        0.0814
      8 N           2.9650    2.1575   27.9340 N.ar    1  UNL1       -0.2425
      9 C           2.8494    2.1192   26.4390 C.ar    1  UNL1        0.1171
     10 C           1.9013    1.8334   30.2820 C.ar    1  UNL1        0.0178
     11 C           1.1652    2.8803   31.0646 C.ar    1  UNL1        0.0038
     12 C           1.2809    2.9187   32.5596 C.ar    1  UNL1        0.0297
     13 C           2.1327    1.9102   33.2721 C.ar    1  UNL1        0.1401
     14 F           2.2484    1.9486   34.7672 F       1  UNL1       -0.2042
     15 C           2.8687    0.8634   32.4895 C.ar    1  UNL1        0.0297
     16 C           2.7530    0.8251   30.9946 C.ar    1  UNL1        0.0038
     17 C           1.3229    1.6419   22.8068 C.3     1  UNL1        0.1823
     18 C           1.8935    0.4859   22.0399 C.ar    1  UNL1        0.0014
     19 C           1.5180    0.2814   20.6021 C.ar    1  UNL1       -0.0029
     20 C           2.0885   -0.8746   19.8351 C.ar    1  UNL1       -0.0048
     21 C           3.0345   -1.8260   20.5059 C.ar    1  UNL1       -0.0247
     22 C           3.4099   -1.6215   21.9436 C.ar    1  UNL1       -0.0250
     23 C           2.8394   -0.4655   22.7106 C.ar    1  UNL1       -0.0071
     24 C           4.3285   -2.4452   22.7967 C.3     1  UNL1        0.0431
     25 C           5.0986   -3.6770   22.4225 C.3     1  UNL1        0.0733
     26 N           5.1401   -4.3891   21.1031 N.3     1  UNL1       -0.2969
     27 C           4.4220   -4.0455   19.8318 C.3     1  UNL1        0.0733
     28 C           3.4849   -2.9048   19.5660 C.3     1  UNL1        0.0431
     29 H           4.8405   -5.3404   21.3167 H       1  UNL1        0.1233
@<TRIPOS>BOND
     1     1     2    2
     2     2     3    2
     3     2    17    1
     4    17    18    1
     5    18    19   ar
     6    19    20   ar
     7    20    21   ar
     8    21    22   ar
     9    22    23   ar
    10    22    24    1
    11    24    25    1
    12    25    26    1
    13    26    27    1
    14    27    28    1
    15     2     4    1
    16     4     5   ar
    17     5     6   ar
    18     6     7   ar
    19     7    10    1
    20    10    11   ar
    21    11    12   ar
    22    12    13   ar
    23    13    14    1
    24    13    15   ar
    25    15    16   ar
    26     7     8   ar
    27     8     9   ar
    28    23    18   ar
    29     9     4   ar
    30    28    21    1
    31    16    10   ar
    32    26    29    1
@<TRIPOS>MOLECULE
*****
 29 32 0 0 0
SMALL
GASTEIGER

@<TRIPOS>ATOM
      1 O           9.0548   -4.7400   27.8077 O.2     1  UNL1       -0.1683
      2 S           7.6093   -4.9949   28.1170 S.O2    1  UNL1        0.0143
      3 O           6.1638   -5.2499   28.4263 O.2     1  UNL1       -0.1683
      4 C           7.2524   -4.7035   26.6895 C.ar    1  UNL1        0.1251
      5 C           6.5292   -3.4364   26.3409 C.ar    1  UNL1        0.0215
      6 C           6.1724   -3.1451   24.9134 C.ar    1  UNL1        0.0205
      7 C           6.5387   -4.1207   23.8345 C.ar    1  UNL1        0.0814
      8 N           7.2620   -5.3877   24.1831 N.ar    1  UNL1       -0.2425
      9 C           7.6188   -5.6792   25.6106 C.ar    1  UNL1        0.1171
     10 C           6.1819   -3.8293   22.4070 C.ar    1  UNL1        0.0178
     11 C           7.2632   -3.5480   21.4061 C.ar    1  UNL1        0.0038
     12 C           6.9065   -3.2566   19.9786 C.ar    1  UNL1        0.0297
     13 C           5.4684   -3.2466   19.5519 C.ar    1  UNL1        0.1401
     14 F           5.1117   -2.9553   18.1243 F       1  UNL1       -0.2042
     15 C           4.3872   -3.5280   20.5528 C.ar    1  UNL1        0.0297
     16 C           4.7440   -3.8193   21.9802 C.ar    1  UNL1        0.0038
     17 C           7.9662   -5.2864   29.5445 C.3     1  UNL1        0.1823
     18 C           7.8836   -4.1996   30.5750 C.ar    1  UNL1        0.0014
     19 C           9.1030   -3.3954   30.9162 C.ar    1  UNL1       -0.0029
     20 C           9.0205   -2.3086   31.9468 C.ar    1  UNL1       -0.0048
     21 C           7.7185   -2.0259   32.6361 C.ar    1  UNL1       -0.0247
     22 C           6.4992   -2.8300   32.2948 C.ar    1  UNL1       -0.0250
     23 C           6.5817   -3.9169   31.2643 C.ar    1  UNL1       -0.0071
     24 C           5.1139   -2.7133   32.8584 C.3     1  UNL1        0.0431
     25 C           4.6060   -1.7634   33.9024 C.3     1  UNL1        0.0733
     26 N           5.3579   -0.6959   34.6406 N.3     1  UNL1       -0.2969
     27 C           6.8033   -0.3144   34.5173 C.3     1  UNL1        0.0733
     28 C           7.8539   -0.9063   33.6252 C.3     1  UNL1        0.0431
     29 H           5.2397   -0.9346   35.6252 H       1  UNL1        0.1233
@<TRIPOS>BOND
     1     1     2    2
     2     2     3    2
     3     2    17    1
     4    17    18    1
     5    18    19   ar
     6    19    20   ar
     7    20    21   ar
     8    21    22   ar
     9    22    23   ar
    10    22    24    1
    11    24    25    1
    12    25    26    1
    13    26    27    1
    14    27    28    1
    15     2     4    1
    16     4     5   ar
    17     5     6   ar
    18     6     7   ar
    19     7    10    1
    20    10    11   ar
    21    11    12   ar
    22    12    13   ar
    23    13    14    1
    24    13    15   ar
    25    15    16   ar
    26     7     8   ar
    27     8     9   ar
    28    23    18   ar
    29     9     4   ar
    30    28    21    1
    31    16    10   ar
    32    26    29    1
