@<TRIPOS>MOLECULE
*****
 17 18 0 0 0
SMALL
GASTEIGER

@<TRIPOS>ATOM
      1 O         -12.2920  -18.7650   24.7941 O.2     1  UNL1       -0.2866
      2 C         -11.0867  -18.3028   24.0301 C.2     1  UNL1        0.1957
      3 C         -11.0822  -18.3581   22.5312 C.ar    1  UNL1        0.0394
      4 C         -10.7765  -19.6479   21.8292 C.ar    1  UNL1        0.0032
      5 C         -10.7720  -19.7032   20.3302 C.ar    1  UNL1        0.0006
      6 C         -11.0732  -18.4686   19.5332 C.ar    1  UNL1        0.0067
      7 C         -11.3788  -17.1787   20.2353 C.ar    1  UNL1        0.0347
      8 BR        -11.6799  -15.9442   19.4384 Br      1  UNL1       -0.0490
      9 C         -11.3833  -17.1235   21.7343 C.ar    1  UNL1        0.0099
     10 C          -9.8858  -17.7854   24.7652 C.2     1  UNL1        0.0421
     11 C          -9.2789  -16.4695   24.3779 C.2     1  UNL1        0.0048
     12 C          -8.0780  -15.9520   25.1130 C.ar    1  UNL1        0.0193
     13 C          -8.0492  -15.9749   26.6125 C.ar    1  UNL1        0.0031
     14 C          -6.8484  -15.4575   27.3475 C.ar    1  UNL1        0.0207
     15 C          -5.6764  -14.9172   26.5830 C.ar    1  UNL1        0.0989
     16 N          -5.7052  -14.8943   25.0834 N.ar    1  UNL1       -0.2423
     17 C          -6.9060  -15.4117   24.3485 C.ar    1  UNL1        0.0988
@<TRIPOS>BOND
     1     1     2    2
     2     2    10    1
     3    10    11    2
     4    11    12    1
     5    12    13   ar
     6    13    14   ar
     7    14    15   ar
     8    15    16   ar
     9    16    17   ar
    10     2     3    1
    11     3     4   ar
    12     4     5   ar
    13     5     6   ar
    14     6     7   ar
    15     7     8    1
    16     7     9   ar
    17    17    12   ar
    18     9     3   ar
@<TRIPOS>MOLECULE
*****
 17 18 0 0 0
SMALL
GASTEIGER

@<TRIPOS>ATOM
      1 O          -9.0151  -20.8525   23.9255 O.2     1  UNL1       -0.2866
      2 C          -8.9602  -19.7145   22.9498 C.2     1  UNL1        0.1957
      3 C         -10.2281  -19.0533   22.4967 C.ar    1  UNL1        0.0394
      4 C         -10.3818  -18.6266   21.0669 C.ar    1  UNL1        0.0032
      5 C         -11.6497  -17.9654   20.6138 C.ar    1  UNL1        0.0006
      6 C         -12.7638  -17.7309   21.5904 C.ar    1  UNL1        0.0067
      7 C         -12.6100  -18.1577   23.0202 C.ar    1  UNL1        0.0347
      8 BR        -13.7241  -17.9232   23.9968 Br      1  UNL1       -0.0490
      9 C         -11.3421  -18.8189   23.4733 C.ar    1  UNL1        0.0099
     10 C          -7.6374  -19.2377   22.4273 C.2     1  UNL1        0.0421
     11 C          -6.5727  -20.2299   22.0642 C.2     1  UNL1        0.0048
     12 C          -5.2499  -19.7531   21.5417 C.ar    1  UNL1        0.0193
     13 C          -4.8142  -20.1225   20.1548 C.ar    1  UNL1        0.0031
     14 C          -3.4914  -19.6457   19.6323 C.ar    1  UNL1        0.0207
     15 C          -2.6045  -18.7996   20.4967 C.ar    1  UNL1        0.0989
     16 N          -3.0403  -18.4302   21.8837 N.ar    1  UNL1       -0.2423
     17 C          -4.3630  -18.9070   22.4061 C.ar    1  UNL1        0.0988
@<TRIPOS>BOND
     1     1     2    2
     2     2    10    1
     3    10    11    2
     4    11    12    1
     5    12    13   ar
     6    13    14   ar
     7    14    15   ar
     8    15    16   ar
     9    16    17   ar
    10     2     3    1
    11     3     4   ar
    12     4     5   ar
    13     5     6   ar
    14     6     7   ar
    15     7     8    1
    16     7     9   ar
    17    17    12   ar
    18     9     3   ar
@<TRIPOS>MOLECULE
*****
 17 18 0 0 0
SMALL
GASTEIGER

@<TRIPOS>ATOM
      1 O          -8.9875  -19.6741   19.6296 O.2     1  UNL1       -0.2866
      2 C          -8.5074  -19.2542   20.9872 C.2     1  UNL1        0.1957
      3 C          -9.4505  -19.2672   22.1535 C.ar    1  UNL1        0.0394
      4 C          -9.1022  -20.0397   23.3912 C.ar    1  UNL1        0.0032
      5 C         -10.0453  -20.0527   24.5574 C.ar    1  UNL1        0.0006
      6 C         -11.3369  -19.2931   24.4861 C.ar    1  UNL1        0.0067
      7 C         -11.6852  -18.5206   23.2484 C.ar    1  UNL1        0.0347
      8 BR        -12.9767  -17.7611   23.1770 Br      1  UNL1       -0.0490
      9 C         -10.7420  -18.5076   22.0821 C.ar    1  UNL1        0.0099
     10 C          -7.0839  -18.8212   21.1784 C.2     1  UNL1        0.0421
     11 C          -6.0272  -19.8373   21.4961 C.2     1  UNL1        0.0048
     12 C          -4.6038  -19.4043   21.6873 C.ar    1  UNL1        0.0193
     13 C          -4.2719  -18.3404   22.6913 C.ar    1  UNL1        0.0031
     14 C          -2.8486  -17.9075   22.8825 C.ar    1  UNL1        0.0207
     15 C          -1.7571  -18.5385   22.0698 C.ar    1  UNL1        0.0989
     16 N          -2.0889  -19.6024   21.0658 N.ar    1  UNL1       -0.2423
     17 C          -3.5123  -20.0353   20.8746 C.ar    1  UNL1        0.0988
@<TRIPOS>BOND
     1     1     2    2
     2     2    10    1
     3    10    11    2
     4    11    12    1
     5    12    13   ar
     6    13    14   ar
     7    14    15   ar
     8    15    16   ar
     9    16    17   ar
    10     2     3    1
    11     3     4   ar
    12     4     5   ar
    13     5     6   ar
    14     6     7   ar
    15     7     8    1
    16     7     9   ar
    17    17    12   ar
    18     9     3   ar
@<TRIPOS>MOLECULE
*****
 17 18 0 0 0
SMALL
GASTEIGER

@<TRIPOS>ATOM
      1 O          -9.3656  -20.5332   24.0186 O.2     1  UNL1       -0.2866
      2 C          -9.2160  -19.3965   23.0514 C.2     1  UNL1        0.1957
      3 C         -10.4148  -18.5875   22.6535 C.ar    1  UNL1        0.0394
      4 C         -11.6594  -18.6300   23.4897 C.ar    1  UNL1        0.0032
      5 C         -12.8582  -17.8210   23.0918 C.ar    1  UNL1        0.0006
      6 C         -12.8125  -16.9695   21.8577 C.ar    1  UNL1        0.0067
      7 C         -11.5679  -16.9271   21.0215 C.ar    1  UNL1        0.0347
      8 BR        -11.5221  -16.0756   19.7875 Br      1  UNL1       -0.0490
      9 C         -10.3690  -17.7361   21.4195 C.ar    1  UNL1        0.0099
     10 C          -7.8674  -19.0687   22.4821 C.2     1  UNL1        0.0421
     11 C          -6.8856  -20.1669   22.1993 C.2     1  UNL1        0.0048
     12 C          -5.5371  -19.8392   21.6300 C.ar    1  UNL1        0.0193
     13 C          -5.1145  -20.4272   20.3164 C.ar    1  UNL1        0.0031
     14 C          -3.7660  -20.0995   19.7472 C.ar    1  UNL1        0.0207
     15 C          -2.8401  -19.1837   20.4915 C.ar    1  UNL1        0.0989
     16 N          -3.2627  -18.5956   21.8051 N.ar    1  UNL1       -0.2423
     17 C          -4.6112  -18.9234   22.3743 C.ar    1  UNL1        0.0988
@<TRIPOS>BOND
     1     1     2    2
     2     2    10    1
     3    10    11    2
     4    11    12    1
     5    12    13   ar
     6    13    14   ar
     7    14    15   ar
     8    15    16   ar
     9    16    17   ar
    10     2     3    1
    11     3     4   ar
    12     4     5   ar
    13     5     6   ar
    14     6     7   ar
    15     7     8    1
    16     7     9   ar
    17    17    12   ar
    18     9     3   ar
@<TRIPOS>MOLECULE
*****
 17 18 0 0 0
SMALL
GASTEIGER

@<TRIPOS>ATOM
      1 O          -5.8066  -21.3427   20.1142 O.2     1  UNL1       -0.2866
      2 C          -5.7587  -20.2638   21.1552 C.2     1  UNL1        0.1957
      3 C          -4.5517  -19.3801   21.2645 C.ar    1  UNL1        0.0394
      4 C          -4.1251  -18.8553   22.6034 C.ar    1  UNL1        0.0032
      5 C          -2.9181  -17.9715   22.7128 C.ar    1  UNL1        0.0006
      6 C          -2.1376  -17.6125   21.4831 C.ar    1  UNL1        0.0067
      7 C          -2.5641  -18.1372   20.1442 C.ar    1  UNL1        0.0347
      8 BR         -1.7836  -17.7783   18.9146 Br      1  UNL1       -0.0490
      9 C          -3.7712  -19.0211   20.0350 C.ar    1  UNL1        0.0099
     10 C          -6.9180  -20.0688   22.0870 C.2     1  UNL1        0.0421
     11 C          -8.1063  -19.2656   21.6479 C.2     1  UNL1        0.0048
     12 C          -9.2655  -19.0706   22.5797 C.ar    1  UNL1        0.0193
     13 C          -9.4450  -19.9848   23.7552 C.ar    1  UNL1        0.0031
     14 C         -10.6042  -19.7898   24.6869 C.ar    1  UNL1        0.0207
     15 C         -11.5840  -18.6804   24.4431 C.ar    1  UNL1        0.0989
     16 N         -11.4045  -17.7662   23.2675 N.ar    1  UNL1       -0.2423
     17 C         -10.2453  -17.9613   22.3358 C.ar    1  UNL1        0.0988
@<TRIPOS>BOND
     1     1     2    2
     2     2    10    1
     3    10    11    2
     4    11    12    1
     5    12    13   ar
     6    13    14   ar
     7    14    15   ar
     8    15    16   ar
     9    16    17   ar
    10     2     3    1
    11     3     4   ar
    12     4     5   ar
    13     5     6   ar
    14     6     7   ar
    15     7     8    1
    16     7     9   ar
    17    17    12   ar
    18     9     3   ar
@<TRIPOS>MOLECULE
*****
 17 18 0 0 0
SMALL
GASTEIGER

@<TRIPOS>ATOM
      1 O          -8.7463  -15.7362   24.8763 O.2     1  UNL1       -0.2866
      2 C          -8.7284  -16.5565   23.6206 C.2     1  UNL1        0.1957
      3 C         -10.0073  -16.8336   22.8875 C.ar    1  UNL1        0.0394
      4 C         -11.0443  -17.7277   23.4999 C.ar    1  UNL1        0.0032
      5 C         -12.3232  -18.0047   22.7667 C.ar    1  UNL1        0.0006
      6 C         -12.5652  -17.3876   21.4211 C.ar    1  UNL1        0.0067
      7 C         -11.5281  -16.4935   20.8086 C.ar    1  UNL1        0.0347
      8 BR        -11.7700  -15.8764   19.4631 Br      1  UNL1       -0.0490
      9 C         -10.2491  -16.2165   21.5419 C.ar    1  UNL1        0.0099
     10 C          -7.4315  -17.0998   23.0981 C.2     1  UNL1        0.0421
     11 C          -7.4052  -18.4154   22.3781 C.2     1  UNL1        0.0048
     12 C          -6.1083  -18.9587   21.8556 C.ar    1  UNL1        0.0193
     13 C          -6.1086  -19.9352   20.7170 C.ar    1  UNL1        0.0031
     14 C          -4.8118  -20.4785   20.1946 C.ar    1  UNL1        0.0207
     15 C          -3.5146  -20.0452   20.8107 C.ar    1  UNL1        0.0989
     16 N          -3.5143  -19.0688   21.9493 N.ar    1  UNL1       -0.2423
     17 C          -4.8111  -18.5255   22.4717 C.ar    1  UNL1        0.0988
@<TRIPOS>BOND
     1     1     2    2
     2     2    10    1
     3    10    11    2
     4    11    12    1
     5    12    13   ar
     6    13    14   ar
     7    14    15   ar
     8    15    16   ar
     9    16    17   ar
    10     2     3    1
    11     3     4   ar
    12     4     5   ar
    13     5     6   ar
    14     6     7   ar
    15     7     8    1
    16     7     9   ar
    17    17    12   ar
    18     9     3   ar
@<TRIPOS>MOLECULE
*****
 17 18 0 0 0
SMALL
GASTEIGER

@<TRIPOS>ATOM
      1 O          -8.0236  -15.0078   24.4676 O.2     1  UNL1       -0.2866
      2 C          -8.1035  -16.3471   23.7970 C.2     1  UNL1        0.1957
      3 C          -9.4243  -17.0474   23.6753 C.ar    1  UNL1        0.0394
      4 C          -9.8313  -18.0644   24.7001 C.ar    1  UNL1        0.0032
      5 C         -11.1522  -18.7646   24.5784 C.ar    1  UNL1        0.0006
      6 C         -12.0662  -18.4479   23.4320 C.ar    1  UNL1        0.0067
      7 C         -11.6593  -17.4309   22.4072 C.ar    1  UNL1        0.0347
      8 BR        -12.5732  -17.1142   21.2608 Br      1  UNL1       -0.0490
      9 C         -10.3383  -16.7307   22.5289 C.ar    1  UNL1        0.0099
     10 C          -6.8624  -16.9862   23.2479 C.2     1  UNL1        0.0421
     11 C          -6.9671  -18.2087   22.3852 C.2     1  UNL1        0.0048
     12 C          -5.7260  -18.8478   21.8362 C.ar    1  UNL1        0.0193
     13 C          -4.4068  -18.6304   22.5162 C.ar    1  UNL1        0.0031
     14 C          -3.1658  -19.2695   21.9671 C.ar    1  UNL1        0.0207
     15 C          -3.2440  -20.1260   20.7382 C.ar    1  UNL1        0.0989
     16 N          -4.5632  -20.3434   20.0582 N.ar    1  UNL1       -0.2423
     17 C          -5.8042  -19.7043   20.6072 C.ar    1  UNL1        0.0988
@<TRIPOS>BOND
     1     1     2    2
     2     2    10    1
     3    10    11    2
     4    11    12    1
     5    12    13   ar
     6    13    14   ar
     7    14    15   ar
     8    15    16   ar
     9    16    17   ar
    10     2     3    1
    11     3     4   ar
    12     4     5   ar
    13     5     6   ar
    14     6     7   ar
    15     7     8    1
    16     7     9   ar
    17    17    12   ar
    18     9     3   ar
@<TRIPOS>MOLECULE
*****
 17 18 0 0 0
SMALL
GASTEIGER

@<TRIPOS>ATOM
      1 O         -12.1724  -18.8737   24.8583 O.2     1  UNL1       -0.2866
      2 C         -11.0625  -18.2170   24.0922 C.2     1  UNL1        0.1957
      3 C         -11.1709  -18.0558   22.6048 C.ar    1  UNL1        0.0394
      4 C         -12.0549  -16.9898   22.0284 C.ar    1  UNL1        0.0032
      5 C         -12.1633  -16.8286   20.5411 C.ar    1  UNL1        0.0006
      6 C         -11.3877  -17.7334   19.6301 C.ar    1  UNL1        0.0067
      7 C         -10.5037  -18.7994   20.2065 C.ar    1  UNL1        0.0347
      8 BR         -9.7282  -19.7042   19.2956 Br      1  UNL1       -0.0490
      9 C         -10.3953  -18.9606   21.6939 C.ar    1  UNL1        0.0099
     10 C          -9.8441  -17.7216   24.8135 C.2     1  UNL1        0.0421
     11 C          -9.1046  -16.5219   24.3000 C.2     1  UNL1        0.0048
     12 C          -7.8862  -16.0265   25.0213 C.ar    1  UNL1        0.0193
     13 C          -6.6102  -15.7957   24.2672 C.ar    1  UNL1        0.0031
     14 C          -5.3920  -15.3003   24.9885 C.ar    1  UNL1        0.0207
     15 C          -5.4496  -15.0357   26.4639 C.ar    1  UNL1        0.0989
     16 N          -6.7256  -15.2664   27.2179 N.ar    1  UNL1       -0.2423
     17 C          -7.9439  -15.7618   26.4966 C.ar    1  UNL1        0.0988
@<TRIPOS>BOND
     1     1     2    2
     2     2    10    1
     3    10    11    2
     4    11    12    1
     5    12    13   ar
     6    13    14   ar
     7    14    15   ar
     8    15    16   ar
     9    16    17   ar
    10     2     3    1
    11     3     4   ar
    12     4     5   ar
    13     5     6   ar
    14     6     7   ar
    15     7     8    1
    16     7     9   ar
    17    17    12   ar
    18     9     3   ar
@<TRIPOS>MOLECULE
*****
 17 18 0 0 0
SMALL
GASTEIGER

@<TRIPOS>ATOM
      1 O          -7.6733  -20.5807   22.8368 O.2     1  UNL1       -0.2866
      2 C          -7.5294  -19.1955   22.2793 C.2     1  UNL1        0.1957
      3 C          -8.6705  -18.2266   22.3742 C.ar    1  UNL1        0.0394
      4 C          -8.9341  -17.5019   23.6608 C.ar    1  UNL1        0.0032
      5 C         -10.0752  -16.5330   23.7557 C.ar    1  UNL1        0.0006
      6 C         -10.9528  -16.2888   22.5639 C.ar    1  UNL1        0.0067
      7 C         -10.6892  -17.0135   21.2773 C.ar    1  UNL1        0.0347
      8 BR        -11.5667  -16.7693   20.0855 Br      1  UNL1       -0.0490
      9 C          -9.5480  -17.9824   21.1825 C.ar    1  UNL1        0.0099
     10 C          -6.2443  -18.7793   21.6270 C.2     1  UNL1        0.0421
     11 C          -5.0300  -19.6530   21.7371 C.2     1  UNL1        0.0048
     12 C          -3.7449  -19.2368   21.0848 C.ar    1  UNL1        0.0193
     13 C          -3.7443  -18.7699   19.6593 C.ar    1  UNL1        0.0031
     14 C          -2.4592  -18.3537   19.0071 C.ar    1  UNL1        0.0207
     15 C          -1.1749  -18.4044   19.7803 C.ar    1  UNL1        0.0989
     16 N          -1.1756  -18.8713   21.2058 N.ar    1  UNL1       -0.2423
     17 C          -2.4606  -19.2875   21.8580 C.ar    1  UNL1        0.0988
@<TRIPOS>BOND
     1     1     2    2
     2     2    10    1
     3    10    11    2
     4    11    12    1
     5    12    13   ar
     6    13    14   ar
     7    14    15   ar
     8    15    16   ar
     9    16    17   ar
    10     2     3    1
    11     3     4   ar
    12     4     5   ar
    13     5     6   ar
    14     6     7   ar
    15     7     8    1
    16     7     9   ar
    17    17    12   ar
    18     9     3   ar
