@<TRIPOS>MOLECULE
*****
 33 36 0 0 0
SMALL
GASTEIGER

@<TRIPOS>ATOM
      1 C          -9.3750  -19.0698   20.8405 C.ar    1  UNL1        0.1399
      2 C         -10.6253  -18.6626   20.1189 C.ar    1  UNL1        0.0554
      3 C         -11.7818  -18.0925   20.8854 C.ar    1  UNL1        0.1047
      4 N         -11.6880  -17.9295   22.3735 N.ar    1  UNL1       -0.2119
      5 C         -10.4376  -18.3367   23.0952 C.ar    1  UNL1        0.2218
      6 N          -9.2811  -18.9068   22.3288 N.ar    1  UNL1       -0.1983
      7 N          -8.2185  -19.6399   20.0741 N.pl3   1  UNL1       -0.2705
      8 C          -8.4675  -20.5193   18.8847 C.3     1  UNL1        0.1187
      9 C          -1.7850  -18.1643   22.7321 C.3     1  UNL1        0.0518
     10 C          -2.5360  -18.4159   21.4583 C.ar    1  UNL1        0.0575
     11 C          -4.0020  -18.7118   21.3428 C.ar    1  UNL1        0.0326
     12 C          -5.0846  -18.8384   22.3733 C.ar    1  UNL1        0.0040
     13 C          -6.4900  -19.1477   21.9503 C.ar    1  UNL1        0.0150
     14 C          -6.8129  -19.3305   20.4969 C.ar    1  UNL1        0.0543
     15 C          -5.7303  -19.2039   19.4665 C.ar    1  UNL1        0.0357
     16 C          -4.3249  -18.8946   19.8894 C.ar    1  UNL1        0.1032
     17 N          -3.0584  -18.7116   19.1067 N.ar    1  UNL1       -0.1695
     18 N          -1.9528  -18.4158   20.0763 N.ar    1  UNL1       -0.2529
     19 C          -0.5163  -18.1641   19.7255 C.3     1  UNL1        0.1533
     20 N         -10.3437  -18.1737   24.5834 N.pl3   1  UNL1       -0.2825
     21 H         -10.9986  -18.6174   25.1694 H       1  UNL1        0.1551
     22 C          -9.2521  -17.3347   25.1786 C.ar    1  UNL1        0.0518
     23 C          -9.1909  -17.1263   26.6628 C.ar    1  UNL1        0.0148
     24 C          -8.0993  -16.2873   27.2581 C.ar    1  UNL1        0.0026
     25 C          -7.0687  -15.6567   26.3691 C.ar    1  UNL1        0.0200
     26 C          -7.1299  -15.8650   24.8850 C.ar    1  UNL1        0.1229
     27 C          -8.2215  -16.7040   24.2897 C.ar    1  UNL1        0.0346
     28 S          -6.0993  -15.2343   23.9960 S.O2    1  UNL1        0.0572
     29 N          -5.0688  -14.6037   23.1070 N.3     1  UNL1       -0.2035
     30 O          -6.8690  -15.6795   22.7880 O.2     1  UNL1       -0.1532
     31 O          -5.3296  -14.7891   25.2040 O.2     1  UNL1       -0.1532
     32 H          -5.3287  -14.7462   22.1310 H       1  UNL1        0.1442
     33 H          -4.1600  -15.0321   23.2829 H       1  UNL1        0.1442
@<TRIPOS>BOND
     1     9    10    1
     2    10    11   ar
     3    11    12   ar
     4    12    13   ar
     5    13    14   ar
     6    14     7    1
     7     7     8    1
     8     7     1    1
     9     1     2   ar
    10     2     3   ar
    11     3     4   ar
    12     4     5   ar
    13     5    20    1
    14    20    22    1
    15    22    23   ar
    16    23    24   ar
    17    24    25   ar
    18    25    26   ar
    19    26    28    1
    20    28    29    1
    21    28    30    2
    22    28    31    2
    23    26    27   ar
    24     5     6   ar
    25    14    15   ar
    26    15    16   ar
    27    16    17   ar
    28    17    18   ar
    29    18    19    1
    30    18    10   ar
    31    16    11   ar
    32     6     1   ar
    33    27    22   ar
    34    20    21    1
    35    29    32    1
    36    29    33    1
@<TRIPOS>MOLECULE
*****
 33 36 0 0 0
SMALL
GASTEIGER

@<TRIPOS>ATOM
      1 C          -4.8050  -19.4191   21.0441 C.ar    1  UNL1        0.1399
      2 C          -3.5695  -19.4434   20.1940 C.ar    1  UNL1        0.0554
      3 C          -2.4032  -18.5661   20.5406 C.ar    1  UNL1        0.1047
      4 N          -2.4725  -17.6645   21.7374 N.ar    1  UNL1       -0.2119
      5 C          -3.7081  -17.6402   22.5876 C.ar    1  UNL1        0.2218
      6 N          -4.8744  -18.5175   22.2410 N.ar    1  UNL1       -0.1983
      7 N          -5.9713  -20.2964   20.6975 N.pl3   1  UNL1       -0.2705
      8 C          -5.7409  -21.6271   20.0446 C.3     1  UNL1        0.1187
      9 C         -12.6535  -17.9796   21.4802 C.3     1  UNL1        0.0518
     10 C         -11.4876  -18.5722   22.2147 C.ar    1  UNL1        0.0575
     11 C         -10.1613  -18.9362   21.6162 C.ar    1  UNL1        0.0326
     12 C          -9.6286  -18.8321   20.2179 C.ar    1  UNL1        0.0040
     13 C          -8.2320  -19.2855   19.9117 C.ar    1  UNL1        0.0150
     14 C          -7.3680  -19.8430   21.0038 C.ar    1  UNL1        0.0543
     15 C          -7.9007  -19.9472   22.4021 C.ar    1  UNL1        0.0357
     16 C          -9.2973  -19.4938   22.7083 C.ar    1  UNL1        0.1032
     17 N         -10.0897  -19.4743   23.9818 N.ar    1  UNL1       -0.1695
     18 N         -11.4434  -18.9047   23.6767 N.ar    1  UNL1       -0.2529
     19 C         -12.5573  -18.7030   24.6609 C.3     1  UNL1        0.1533
     20 N          -3.7773  -16.7386   23.7844 N.pl3   1  UNL1       -0.2825
     21 H          -2.9499  -16.4595   24.2389 H       1  UNL1        0.1551
     22 C          -5.1073  -16.2622   24.2885 C.ar    1  UNL1        0.0518
     23 C          -5.2633  -15.8550   25.7237 C.ar    1  UNL1        0.0148
     24 C          -6.5933  -15.3786   26.2279 C.ar    1  UNL1        0.0026
     25 C          -7.7673  -15.3095   25.2969 C.ar    1  UNL1        0.0200
     26 C          -7.6114  -15.7167   23.8617 C.ar    1  UNL1        0.1229
     27 C          -6.2814  -16.1931   23.3575 C.ar    1  UNL1        0.0346
     28 S          -8.7854  -15.6476   22.9306 S.O2    1  UNL1        0.0572
     29 N          -9.9594  -15.5785   21.9995 N.3     1  UNL1       -0.2035
     30 O          -7.8653  -15.3084   21.7956 O.2     1  UNL1       -0.1532
     31 O          -9.7056  -15.9869   24.0656 O.2     1  UNL1       -0.1532
     32 H          -9.6356  -15.3453   21.0608 H       1  UNL1        0.1442
     33 H         -10.6084  -14.8613   22.3233 H       1  UNL1        0.1442
@<TRIPOS>BOND
     1     9    10    1
     2    10    11   ar
     3    11    12   ar
     4    12    13   ar
     5    13    14   ar
     6    14     7    1
     7     7     8    1
     8     7     1    1
     9     1     2   ar
    10     2     3   ar
    11     3     4   ar
    12     4     5   ar
    13     5    20    1
    14    20    22    1
    15    22    23   ar
    16    23    24   ar
    17    24    25   ar
    18    25    26   ar
    19    26    28    1
    20    28    29    1
    21    28    30    2
    22    28    31    2
    23    26    27   ar
    24     5     6   ar
    25    14    15   ar
    26    15    16   ar
    27    16    17   ar
    28    17    18   ar
    29    18    19    1
    30    18    10   ar
    31    16    11   ar
    32     6     1   ar
    33    27    22   ar
    34    20    21    1
    35    29    32    1
    36    29    33    1
@<TRIPOS>MOLECULE
*****
 33 36 0 0 0
SMALL
GASTEIGER

@<TRIPOS>ATOM
      1 C          -6.5173  -20.2613   19.8394 C.ar    1  UNL1        0.1399
      2 C          -6.5187  -21.5715   19.1090 C.ar    1  UNL1        0.0554
      3 C          -7.7395  -22.0084   18.3549 C.ar    1  UNL1        0.1047
      4 N          -8.9588  -21.1352   18.3310 N.ar    1  UNL1       -0.2119
      5 C          -8.9574  -19.8249   19.0614 C.ar    1  UNL1        0.2218
      6 N          -7.7367  -19.3880   19.8156 N.ar    1  UNL1       -0.1983
      7 N          -5.2965  -19.8244   20.5935 N.pl3   1  UNL1       -0.2705
      8 C          -3.9520  -20.3830   20.2326 C.3     1  UNL1        0.1187
      9 C          -5.1911  -15.0790   25.8948 C.3     1  UNL1        0.0518
     10 C          -6.0994  -15.8841   25.0133 C.ar    1  UNL1        0.0575
     11 C          -5.6676  -16.8376   23.9389 C.ar    1  UNL1        0.0326
     12 C          -4.3113  -17.2510   23.4497 C.ar    1  UNL1        0.0040
     13 C          -4.1876  -18.2466   22.3346 C.ar    1  UNL1        0.0150
     14 C          -5.4202  -18.8287   21.7087 C.ar    1  UNL1        0.0543
     15 C          -6.7765  -18.4153   22.1980 C.ar    1  UNL1        0.0357
     16 C          -6.9002  -17.4198   23.3131 C.ar    1  UNL1        0.1032
     17 N          -8.0938  -16.8260   24.0007 N.ar    1  UNL1       -0.1695
     18 N          -7.5989  -15.8769   25.0515 N.ar    1  UNL1       -0.2529
     19 C          -8.4534  -15.0634   25.9778 C.3     1  UNL1        0.1533
     20 N         -10.1768  -18.9517   19.0375 N.pl3   1  UNL1       -0.2825
     21 H         -10.5566  -18.6600   18.1774 H       1  UNL1        0.1551
     22 C         -10.8175  -18.5229   20.3242 C.ar    1  UNL1        0.0518
     23 C         -11.8202  -17.4074   20.3275 C.ar    1  UNL1        0.0148
     24 C         -12.4609  -16.9786   21.6142 C.ar    1  UNL1        0.0026
     25 C         -12.0989  -17.6653   22.8977 C.ar    1  UNL1        0.0200
     26 C         -11.0962  -18.7809   22.8944 C.ar    1  UNL1        0.1229
     27 C         -10.4555  -19.2097   21.6077 C.ar    1  UNL1        0.0346
     28 S         -10.7341  -19.4677   24.1779 S.O2    1  UNL1        0.0572
     29 N         -10.3720  -20.1545   25.4613 N.3     1  UNL1       -0.2035
     30 O          -9.5703  -20.1254   23.4976 O.2     1  UNL1       -0.1532
     31 O         -11.8979  -18.8100   24.8582 O.2     1  UNL1       -0.1532
     32 H          -9.5438  -20.7318   25.3160 H       1  UNL1        0.1442
     33 H         -11.1484  -20.7434   25.7626 H       1  UNL1        0.1442
@<TRIPOS>BOND
     1     9    10    1
     2    10    11   ar
     3    11    12   ar
     4    12    13   ar
     5    13    14   ar
     6    14     7    1
     7     7     8    1
     8     7     1    1
     9     1     2   ar
    10     2     3   ar
    11     3     4   ar
    12     4     5   ar
    13     5    20    1
    14    20    22    1
    15    22    23   ar
    16    23    24   ar
    17    24    25   ar
    18    25    26   ar
    19    26    28    1
    20    28    29    1
    21    28    30    2
    22    28    31    2
    23    26    27   ar
    24     5     6   ar
    25    14    15   ar
    26    15    16   ar
    27    16    17   ar
    28    17    18   ar
    29    18    19    1
    30    18    10   ar
    31    16    11   ar
    32     6     1   ar
    33    27    22   ar
    34    20    21    1
    35    29    32    1
    36    29    33    1
@<TRIPOS>MOLECULE
*****
 33 36 0 0 0
SMALL
GASTEIGER

@<TRIPOS>ATOM
      1 C          -4.7958  -19.5746   21.3468 C.ar    1  UNL1        0.1399
      2 C          -3.3990  -20.0130   21.0204 C.ar    1  UNL1        0.0554
      3 C          -2.2279  -19.2193   21.5190 C.ar    1  UNL1        0.1047
      4 N          -2.4536  -17.9872   22.3441 N.ar    1  UNL1       -0.2119
      5 C          -3.8505  -17.5487   22.6706 C.ar    1  UNL1        0.2218
      6 N          -5.0216  -18.3424   22.1719 N.ar    1  UNL1       -0.1983
      7 N          -5.9668  -20.3682   20.8482 N.pl3   1  UNL1       -0.2705
      8 C          -5.7413  -21.6501   20.1027 C.3     1  UNL1        0.1187
      9 C         -12.6243  -17.9053   21.3431 C.3     1  UNL1        0.0518
     10 C         -11.4944  -18.4970   22.1326 C.ar    1  UNL1        0.0575
     11 C         -10.1568  -18.9035   21.5888 C.ar    1  UNL1        0.0326
     12 C          -9.5776  -18.8515   20.2061 C.ar    1  UNL1        0.0040
     13 C          -8.1809  -19.3398   19.9593 C.ar    1  UNL1        0.0150
     14 C          -7.3636  -19.8800   21.0951 C.ar    1  UNL1        0.0543
     15 C          -7.9428  -19.9319   22.4777 C.ar    1  UNL1        0.0357
     16 C          -9.3394  -19.4437   22.7246 C.ar    1  UNL1        0.1032
     17 N         -10.1718  -19.3710   23.9703 N.ar    1  UNL1       -0.1695
     18 N         -11.5037  -18.7859   23.6044 N.ar    1  UNL1       -0.2529
     19 C         -12.6444  -18.5340   24.5453 C.3     1  UNL1        0.1533
     20 N          -4.0762  -16.3165   23.4957 N.pl3   1  UNL1       -0.2825
     21 H          -3.3078  -15.7918   23.8172 H       1  UNL1        0.1551
     22 C          -5.4728  -15.8838   23.8309 C.ar    1  UNL1        0.0518
     23 C          -6.2957  -15.1513   22.8130 C.ar    1  UNL1        0.0148
     24 C          -7.6922  -14.7186   23.1482 C.ar    1  UNL1        0.0026
     25 C          -8.2659  -15.0184   24.5013 C.ar    1  UNL1        0.0200
     26 C          -7.4430  -15.7509   25.5192 C.ar    1  UNL1        0.1229
     27 C          -6.0465  -16.1836   25.1840 C.ar    1  UNL1        0.0346
     28 S          -8.0167  -16.0508   26.8724 S.O2    1  UNL1        0.0572
     29 N          -8.5904  -16.3506   28.2255 N.3     1  UNL1       -0.2035
     30 O          -8.9558  -17.0436   26.2542 O.2     1  UNL1       -0.1532
     31 O          -7.0776  -15.0579   27.4906 O.2     1  UNL1       -0.1532
     32 H          -9.3225  -17.0551   28.1359 H       1  UNL1        0.1442
     33 H          -8.9852  -15.4987   28.6238 H       1  UNL1        0.1442
@<TRIPOS>BOND
     1     9    10    1
     2    10    11   ar
     3    11    12   ar
     4    12    13   ar
     5    13    14   ar
     6    14     7    1
     7     7     8    1
     8     7     1    1
     9     1     2   ar
    10     2     3   ar
    11     3     4   ar
    12     4     5   ar
    13     5    20    1
    14    20    22    1
    15    22    23   ar
    16    23    24   ar
    17    24    25   ar
    18    25    26   ar
    19    26    28    1
    20    28    29    1
    21    28    30    2
    22    28    31    2
    23    26    27   ar
    24     5     6   ar
    25    14    15   ar
    26    15    16   ar
    27    16    17   ar
    28    17    18   ar
    29    18    19    1
    30    18    10   ar
    31    16    11   ar
    32     6     1   ar
    33    27    22   ar
    34    20    21    1
    35    29    32    1
    36    29    33    1
@<TRIPOS>MOLECULE
*****
 33 36 0 0 0
SMALL
GASTEIGER

@<TRIPOS>ATOM
      1 C           6.4154   -3.4628   20.0881 C.ar    1  UNL1        0.1399
      2 C           7.2740   -2.4737   19.3571 C.ar    1  UNL1        0.0554
      3 C           8.7665   -2.6239   19.3680 C.ar    1  UNL1        0.1047
      4 N           9.4002   -3.7631   20.1099 N.ar    1  UNL1       -0.2119
      5 C           8.5416   -4.7522   20.8410 C.ar    1  UNL1        0.2218
      6 N           7.0491   -4.6021   20.8301 N.ar    1  UNL1       -0.1983
      7 N           4.9230   -3.3126   20.0772 N.pl3   1  UNL1       -0.2705
      8 C           4.1028   -4.0461   19.0578 C.3     1  UNL1        0.1187
      9 C           1.3574    1.1330   24.3381 C.3     1  UNL1        0.0518
     10 C           2.4253    0.0799   24.3148 C.ar    1  UNL1        0.0575
     11 C           2.9062   -0.6614   23.1027 C.ar    1  UNL1        0.0326
     12 C           2.5069   -0.5902   21.6586 C.ar    1  UNL1        0.0040
     13 C           3.1791   -1.4739   20.6502 C.ar    1  UNL1        0.0150
     14 C           4.2507   -2.4288   21.0858 C.ar    1  UNL1        0.0543
     15 C           4.6501   -2.5001   22.5298 C.ar    1  UNL1        0.0357
     16 C           3.9778   -1.6163   23.5383 C.ar    1  UNL1        0.1032
     17 N           4.1591   -1.4653   25.0196 N.ar    1  UNL1       -0.1695
     18 N           3.1996   -0.4170   25.4996 N.ar    1  UNL1       -0.2529
     19 C           3.0421    0.0522   26.9156 C.3     1  UNL1        0.1533
     20 N           9.1753   -5.8914   21.5829 N.pl3   1  UNL1       -0.2825
     21 H           9.8626   -6.4431   21.1440 H       1  UNL1        0.1551
     22 C           8.7620   -6.1902   22.9935 C.ar    1  UNL1        0.0518
     23 C           9.1249   -7.5044   23.6190 C.ar    1  UNL1        0.0148
     24 C           8.7116   -7.8031   25.0297 C.ar    1  UNL1        0.0026
     25 C           7.9354   -6.7878   25.8148 C.ar    1  UNL1        0.0200
     26 C           7.5724   -5.4737   25.1893 C.ar    1  UNL1        0.1229
     27 C           7.9858   -5.1749   23.7786 C.ar    1  UNL1        0.0346
     28 S           6.7962   -4.4582   25.9744 S.O2    1  UNL1        0.0572
     29 N           6.0199   -3.4429   26.7595 N.3     1  UNL1       -0.2035
     30 O           6.5069   -5.4906   27.0235 O.2     1  UNL1       -0.1532
     31 O           7.0854   -3.4259   24.9253 O.2     1  UNL1       -0.1532
     32 H           5.6585   -3.8746   27.6101 H       1  UNL1        0.1442
     33 H           5.2424   -3.0992   26.1959 H       1  UNL1        0.1442
@<TRIPOS>BOND
     1     9    10    1
     2    10    11   ar
     3    11    12   ar
     4    12    13   ar
     5    13    14   ar
     6    14     7    1
     7     7     8    1
     8     7     1    1
     9     1     2   ar
    10     2     3   ar
    11     3     4   ar
    12     4     5   ar
    13     5    20    1
    14    20    22    1
    15    22    23   ar
    16    23    24   ar
    17    24    25   ar
    18    25    26   ar
    19    26    28    1
    20    28    29    1
    21    28    30    2
    22    28    31    2
    23    26    27   ar
    24     5     6   ar
    25    14    15   ar
    26    15    16   ar
    27    16    17   ar
    28    17    18   ar
    29    18    19    1
    30    18    10   ar
    31    16    11   ar
    32     6     1   ar
    33    27    22   ar
    34    20    21    1
    35    29    32    1
    36    29    33    1
@<TRIPOS>MOLECULE
*****
 33 36 0 0 0
SMALL
GASTEIGER

@<TRIPOS>ATOM
      1 C           6.1984   -3.5264   20.1580 C.ar    1  UNL1        0.1399
      2 C           6.9963   -2.3147   19.7773 C.ar    1  UNL1        0.0554
      3 C           8.4810   -2.2970   19.9902 C.ar    1  UNL1        0.1047
      4 N           9.1678   -3.4910   20.5839 N.ar    1  UNL1       -0.2119
      5 C           8.3699   -4.7028   20.9647 C.ar    1  UNL1        0.2218
      6 N           6.8852   -4.7205   20.7518 N.ar    1  UNL1       -0.1983
      7 N           4.7137   -3.5441   19.9450 N.pl3   1  UNL1       -0.2705
      8 C           4.0824   -4.6520   19.1551 C.3     1  UNL1        0.1187
      9 C           0.9809    1.5085   23.2872 C.3     1  UNL1        0.0518
     10 C           1.1848    0.8358   21.9621 C.ar    1  UNL1        0.0575
     11 C           2.1533   -0.2734   21.6762 C.ar    1  UNL1        0.0326
     12 C           3.1370   -0.9965   22.5477 C.ar    1  UNL1        0.0040
     13 C           3.9904   -2.0867   21.9706 C.ar    1  UNL1        0.0150
     14 C           3.8602   -2.4538   20.5221 C.ar    1  UNL1        0.0543
     15 C           2.8765   -1.7307   19.6506 C.ar    1  UNL1        0.0357
     16 C           2.0231   -0.6405   20.2276 C.ar    1  UNL1        0.1032
     17 N           0.9741    0.2418   19.6184 N.ar    1  UNL1       -0.1695
     18 N           0.4560    1.1542   20.6903 N.ar    1  UNL1       -0.2529
     19 C          -0.6047    2.2011   20.5203 C.3     1  UNL1        0.1533
     20 N           9.0566   -5.8969   21.5584 N.pl3   1  UNL1       -0.2825
     21 H           9.6679   -6.4375   21.0077 H       1  UNL1        0.1551
     22 C           8.8121   -6.2673   22.9913 C.ar    1  UNL1        0.0518
     23 C           9.3936   -7.5327   23.5486 C.ar    1  UNL1        0.0148
     24 C           9.1490   -7.9030   24.9814 C.ar    1  UNL1        0.0026
     25 C           8.3230   -7.0081   25.8569 C.ar    1  UNL1        0.0200
     26 C           7.7415   -5.7427   25.2996 C.ar    1  UNL1        0.1229
     27 C           7.9861   -5.3723   23.8668 C.ar    1  UNL1        0.0346
     28 S           6.9154   -4.8476   26.1752 S.O2    1  UNL1        0.0572
     29 N           6.0894   -3.9525   27.0507 N.3     1  UNL1       -0.2035
     30 O           7.4516   -3.6469   25.4535 O.2     1  UNL1       -0.1532
     31 O           6.3792   -6.0483   26.8968 O.2     1  UNL1       -0.1532
     32 H           6.2459   -2.9799   26.7864 H       1  UNL1        0.1442
     33 H           6.3585   -4.0876   28.0252 H       1  UNL1        0.1442
@<TRIPOS>BOND
     1     9    10    1
     2    10    11   ar
     3    11    12   ar
     4    12    13   ar
     5    13    14   ar
     6    14     7    1
     7     7     8    1
     8     7     1    1
     9     1     2   ar
    10     2     3   ar
    11     3     4   ar
    12     4     5   ar
    13     5    20    1
    14    20    22    1
    15    22    23   ar
    16    23    24   ar
    17    24    25   ar
    18    25    26   ar
    19    26    28    1
    20    28    29    1
    21    28    30    2
    22    28    31    2
    23    26    27   ar
    24     5     6   ar
    25    14    15   ar
    26    15    16   ar
    27    16    17   ar
    28    17    18   ar
    29    18    19    1
    30    18    10   ar
    31    16    11   ar
    32     6     1   ar
    33    27    22   ar
    34    20    21    1
    35    29    32    1
    36    29    33    1
@<TRIPOS>MOLECULE
*****
 33 36 0 0 0
SMALL
GASTEIGER

@<TRIPOS>ATOM
      1 C          -0.7567    3.2730   20.3492 C.ar    1  UNL1        0.1399
      2 C          -0.8236    4.1021   19.1009 C.ar    1  UNL1        0.0554
      3 C          -2.1539    4.4456   18.4991 C.ar    1  UNL1        0.1047
      4 N          -3.4174    3.9601   19.1455 N.ar    1  UNL1       -0.2119
      5 C          -3.3505    3.1310   20.3938 C.ar    1  UNL1        0.2218
      6 N          -2.0202    2.7874   20.9956 N.ar    1  UNL1       -0.1983
      7 N           0.5736    2.9295   20.9510 N.pl3   1  UNL1       -0.2705
      8 C           1.1974    3.8439   21.9633 C.3     1  UNL1        0.1187
      9 C           3.3535   -3.3806   19.1938 C.3     1  UNL1        0.0518
     10 C           3.6344   -1.9077   19.2369 C.ar    1  UNL1        0.0575
     11 C           2.6929   -0.8444   19.7197 C.ar    1  UNL1        0.0326
     12 C           1.2968   -0.9117   20.2640 C.ar    1  UNL1        0.0040
     13 C           0.5904    0.3462   20.6744 C.ar    1  UNL1        0.0150
     14 C           1.2801    1.6715   20.5406 C.ar    1  UNL1        0.0543
     15 C           2.6762    1.7388   19.9963 C.ar    1  UNL1        0.0357
     16 C           3.3826    0.4809   19.5859 C.ar    1  UNL1        0.1032
     17 N           4.7503    0.2366   19.0203 N.ar    1  UNL1       -0.1695
     18 N           4.9059   -1.2396   18.8046 N.ar    1  UNL1       -0.2529
     19 C           6.1198   -1.9270   18.2534 C.3     1  UNL1        0.1533
     20 N          -4.6140    2.6454   21.0402 N.pl3   1  UNL1       -0.2825
     21 H          -5.1353    1.9232   20.6209 H       1  UNL1        0.1551
     22 C          -5.0832    3.2604   22.3253 C.ar    1  UNL1        0.0518
     23 C          -4.3559    2.9708   23.6048 C.ar    1  UNL1        0.0148
     24 C          -4.8252    3.5857   24.8900 C.ar    1  UNL1        0.0026
     25 C          -6.0217    4.4902   24.8957 C.ar    1  UNL1        0.0200
     26 C          -6.7490    4.7798   23.6162 C.ar    1  UNL1        0.1229
     27 C          -6.2798    4.1649   22.3310 C.ar    1  UNL1        0.0346
     28 S          -7.9456    5.6844   23.6219 S.O2    1  UNL1        0.0572
     29 N          -9.1421    6.5890   23.6275 N.3     1  UNL1       -0.2035
     30 O          -7.0531    6.8665   23.3850 O.2     1  UNL1       -0.1532
     31 O          -8.8381    4.5024   23.8587 O.2     1  UNL1       -0.1532
     32 H          -8.8411    7.5519   23.4770 H       1  UNL1        0.1442
     33 H          -9.6177    6.5181   24.5271 H       1  UNL1        0.1442
@<TRIPOS>BOND
     1     9    10    1
     2    10    11   ar
     3    11    12   ar
     4    12    13   ar
     5    13    14   ar
     6    14     7    1
     7     7     8    1
     8     7     1    1
     9     1     2   ar
    10     2     3   ar
    11     3     4   ar
    12     4     5   ar
    13     5    20    1
    14    20    22    1
    15    22    23   ar
    16    23    24   ar
    17    24    25   ar
    18    25    26   ar
    19    26    28    1
    20    28    29    1
    21    28    30    2
    22    28    31    2
    23    26    27   ar
    24     5     6   ar
    25    14    15   ar
    26    15    16   ar
    27    16    17   ar
    28    17    18   ar
    29    18    19    1
    30    18    10   ar
    31    16    11   ar
    32     6     1   ar
    33    27    22   ar
    34    20    21    1
    35    29    32    1
    36    29    33    1
@<TRIPOS>MOLECULE
*****
 33 36 0 0 0
SMALL
GASTEIGER

@<TRIPOS>ATOM
      1 C          -5.4250  -16.7686   24.0693 C.ar    1  UNL1        0.1399
      2 C          -4.7046  -16.1874   25.2496 C.ar    1  UNL1        0.0554
      3 C          -5.4523  -15.3565   26.2499 C.ar    1  UNL1        0.1047
      4 N          -6.9203  -15.1068   26.0700 N.ar    1  UNL1       -0.2119
      5 C          -7.6408  -15.6881   24.8896 C.ar    1  UNL1        0.2218
      6 N          -6.8932  -16.5190   23.8893 N.ar    1  UNL1       -0.1983
      7 N          -4.6774  -17.5995   23.0690 N.pl3   1  UNL1       -0.2705
      8 C          -3.1775  -17.5872   23.0551 C.3     1  UNL1        0.1187
      9 C          -7.6976  -22.0229   18.3846 C.3     1  UNL1        0.0518
     10 C          -7.9095  -20.7547   19.1571 C.ar    1  UNL1        0.0575
     11 C          -6.9341  -20.1293   20.1097 C.ar    1  UNL1        0.0326
     12 C          -5.5603  -20.5380   20.5518 C.ar    1  UNL1        0.0040
     13 C          -4.8081  -19.6947   21.5383 C.ar    1  UNL1        0.0150
     14 C          -5.4297  -18.4428   22.0826 C.ar    1  UNL1        0.0543
     15 C          -6.8035  -18.0341   21.6404 C.ar    1  UNL1        0.0357
     16 C          -7.5557  -18.8773   20.6540 C.ar    1  UNL1        0.1032
     17 N          -8.9153  -18.7291   20.0378 N.ar    1  UNL1       -0.1695
     18 N          -9.1339  -19.8894   19.1126 N.ar    1  UNL1       -0.2529
     19 C         -10.3614  -20.1403   18.2878 C.3     1  UNL1        0.1533
     20 N          -9.1089  -15.4384   24.7097 N.pl3   1  UNL1       -0.2825
     21 H          -9.5424  -14.6907   25.1810 H       1  UNL1        0.1551
     22 C          -9.9164  -16.3280   23.8116 C.ar    1  UNL1        0.0518
     23 C         -10.2063  -17.7418   24.2200 C.ar    1  UNL1        0.0148
     24 C         -11.0138  -18.6314   23.3219 C.ar    1  UNL1        0.0026
     25 C         -11.5314  -18.1071   22.0153 C.ar    1  UNL1        0.0200
     26 C         -11.2415  -16.6932   21.6069 C.ar    1  UNL1        0.1229
     27 C         -10.4340  -15.8037   22.5050 C.ar    1  UNL1        0.0346
     28 S         -11.7591  -16.1688   20.3003 S.O2    1  UNL1        0.0572
     29 N         -12.2767  -15.6445   18.9937 N.3     1  UNL1       -0.2035
     30 O         -13.0765  -16.8402   20.5528 O.2     1  UNL1       -0.1532
     31 O         -10.4417  -15.4975   20.0478 O.2     1  UNL1       -0.1532
     32 H         -13.2387  -15.9561   18.8595 H       1  UNL1        0.1442
     33 H         -11.6961  -15.9960   18.2323 H       1  UNL1        0.1442
@<TRIPOS>BOND
     1     9    10    1
     2    10    11   ar
     3    11    12   ar
     4    12    13   ar
     5    13    14   ar
     6    14     7    1
     7     7     8    1
     8     7     1    1
     9     1     2   ar
    10     2     3   ar
    11     3     4   ar
    12     4     5   ar
    13     5    20    1
    14    20    22    1
    15    22    23   ar
    16    23    24   ar
    17    24    25   ar
    18    25    26   ar
    19    26    28    1
    20    28    29    1
    21    28    30    2
    22    28    31    2
    23    26    27   ar
    24     5     6   ar
    25    14    15   ar
    26    15    16   ar
    27    16    17   ar
    28    17    18   ar
    29    18    19    1
    30    18    10   ar
    31    16    11   ar
    32     6     1   ar
    33    27    22   ar
    34    20    21    1
    35    29    32    1
    36    29    33    1
@<TRIPOS>MOLECULE
*****
 33 36 0 0 0
SMALL
GASTEIGER

@<TRIPOS>ATOM
      1 C          -0.6200    3.2971   20.1803 C.ar    1  UNL1        0.1399
      2 C          -0.7986    4.1327   18.9476 C.ar    1  UNL1        0.0554
      3 C          -2.1772    4.4337   18.4388 C.ar    1  UNL1        0.1047
      4 N          -3.3772    3.8991   19.1628 N.ar    1  UNL1       -0.2119
      5 C          -3.1986    3.0634   20.3956 C.ar    1  UNL1        0.2218
      6 N          -1.8200    2.7624   20.9044 N.ar    1  UNL1       -0.1983
      7 N           0.7586    2.9960   20.6891 N.pl3   1  UNL1       -0.2705
      8 C           1.4752    3.9942   21.5493 C.3     1  UNL1        0.1187
      9 C           3.3269   -3.4825   19.2523 C.3     1  UNL1        0.0518
     10 C           3.6434   -2.0176   19.1903 C.ar    1  UNL1        0.0575
     11 C           2.7446   -0.9019   19.6346 C.ar    1  UNL1        0.0326
     12 C           1.3673   -0.8985   20.2286 C.ar    1  UNL1        0.0040
     13 C           0.7053    0.4008   20.5801 C.ar    1  UNL1        0.0150
     14 C           1.4207    1.6967   20.3376 C.ar    1  UNL1        0.0543
     15 C           2.7980    1.6933   19.7435 C.ar    1  UNL1        0.0357
     16 C           3.4600    0.3941   19.3920 C.ar    1  UNL1        0.1032
     17 N           4.8008    0.0792   18.7979 N.ar    1  UNL1       -0.1695
     18 N           4.9142   -1.4113   18.6732 N.ar    1  UNL1       -0.2529
     19 C           6.0916   -2.1634   18.1273 C.3     1  UNL1        0.1533
     20 N          -4.3985    2.5288   21.1196 N.pl3   1  UNL1       -0.2825
     21 H          -4.6858    1.5982   20.9761 H       1  UNL1        0.1551
     22 C          -5.1609    3.4121   22.0622 C.ar    1  UNL1        0.0518
     23 C          -6.3555    4.1763   21.5735 C.ar    1  UNL1        0.0148
     24 C          -7.1178    5.0596   22.5162 C.ar    1  UNL1        0.0026
     25 C          -6.6855    5.1788   23.9475 C.ar    1  UNL1        0.0200
     26 C          -5.4909    4.4146   24.4363 C.ar    1  UNL1        0.1229
     27 C          -4.7286    3.5313   23.4936 C.ar    1  UNL1        0.0346
     28 S          -5.0586    4.5338   25.8677 S.O2    1  UNL1        0.0572
     29 N          -4.6263    4.6529   27.2991 N.3     1  UNL1       -0.2035
     30 O          -6.2573    5.3872   26.1587 O.2     1  UNL1       -0.1532
     31 O          -3.8599    3.6803   25.5767 O.2     1  UNL1       -0.1532
     32 H          -5.2968    5.2271   27.8101 H       1  UNL1        0.1442
     33 H          -3.7047    5.0880   27.3408 H       1  UNL1        0.1442
@<TRIPOS>BOND
     1     9    10    1
     2    10    11   ar
     3    11    12   ar
     4    12    13   ar
     5    13    14   ar
     6    14     7    1
     7     7     8    1
     8     7     1    1
     9     1     2   ar
    10     2     3   ar
    11     3     4   ar
    12     4     5   ar
    13     5    20    1
    14    20    22    1
    15    22    23   ar
    16    23    24   ar
    17    24    25   ar
    18    25    26   ar
    19    26    28    1
    20    28    29    1
    21    28    30    2
    22    28    31    2
    23    26    27   ar
    24     5     6   ar
    25    14    15   ar
    26    15    16   ar
    27    16    17   ar
    28    17    18   ar
    29    18    19    1
    30    18    10   ar
    31    16    11   ar
    32     6     1   ar
    33    27    22   ar
    34    20    21    1
    35    29    32    1
    36    29    33    1
