@<TRIPOS>MOLECULE
*****
 34 37 0 0 0
SMALL
GASTEIGER

@<TRIPOS>ATOM
      1 N          -8.4067  -18.5664   20.3798 N.pl3   1  UNL1       -0.2560
      2 H          -8.0384  -17.7278   20.0188 H       1  UNL1        0.2592
      3 C          -9.0781  -18.5747   21.7212 C.3     1  UNL1        0.2144
      4 C          -9.7661  -19.8536   22.0967 C.3     1  UNL1        0.0490
      5 C         -10.5186  -20.1767   23.3534 C.3     1  UNL1        0.0057
      6 C         -10.7690  -19.3005   24.5449 C.3     1  UNL1        0.0216
      7 C         -10.3288  -17.8850   24.7740 C.3     1  UNL1        0.0940
      8 N          -9.5294  -16.9960   23.8682 N.am    1  UNL1       -0.2686
      9 C          -8.9728  -17.3029   22.5095 C.2     1  UNL1        0.2622
     10 O          -8.2100  -16.1911   21.8523 O.2     1  UNL1       -0.2712
     11 C          -9.2496  -15.6178   24.3899 C.3     1  UNL1        0.1794
     12 C          -8.3096  -15.4290   25.5436 C.2     1  UNL1        0.2459
     13 O          -8.8435  -15.0387   26.8899 O.2     1  UNL1       -0.2730
     14 N          -6.8357  -15.6305   25.3508 N.am    1  UNL1       -0.2781
     15 C          -6.1591  -16.0194   24.0699 C.3     1  UNL1        0.0935
     16 C          -4.6849  -16.1077   24.3326 C.3     1  UNL1        0.0233
     17 C          -4.4505  -15.7734   25.7760 C.3     1  UNL1        0.0233
     18 C          -5.7798  -15.4784   26.4052 C.3     1  UNL1        0.0935
     19 N          -6.9740  -20.5339   19.4709 N.pl3   1  UNL1       -0.0709
     20 C          -8.2964  -19.8359   19.5885 C.cat   1  UNL1        0.4016
     21 C           0.0631  -17.2180   20.5234 C.3     1  UNL1        0.0725
     22 C          -1.2916  -17.8562   20.6100 C.ar    1  UNL1        0.1233
     23 C          -2.1510  -18.2618   19.4495 C.ar    1  UNL1        0.0361
     24 C          -3.4153  -18.8571   19.9946 C.ar    1  UNL1        0.0402
     25 C          -4.6275  -19.4286   19.3209 C.ar    1  UNL1        0.0402
     26 C          -5.7617  -19.9624   20.1446 C.ar    1  UNL1        0.1590
     27 C          -5.6837  -19.9247   21.6421 C.ar    1  UNL1        0.0402
     28 C          -4.4715  -19.3532   22.3158 C.ar    1  UNL1        0.0405
     29 C          -3.3373  -18.8194   21.4921 C.ar    1  UNL1        0.1450
     30 O          -2.0248  -18.2008   21.8724 O.2     1  UNL1       -0.4577
     31 N          -9.5087  -20.4075   18.9148 N.pl3   1  UNL1       -0.1773
     32 H         -10.3739  -20.4180   19.3844 H       1  UNL1        0.2780
     33 C          -9.4027  -20.9630   17.5255 C.1     1  UNL1        0.2552
     34 N          -9.2967  -21.5185   16.1362 N.1     1  UNL1       -0.1538
@<TRIPOS>BOND
     1    21    22    1
     2    22    23   ar
     3    23    24   ar
     4    24    25   ar
     5    25    26   ar
     6    26    19    1
     7    19    20    2
     8    20    31    1
     9    31    33    1
    10    33    34    3
    11    20     1    1
    12     3     1    1
    13     3     4    1
    14     4     5    1
    15     5     6    1
    16     6     7    1
    17     7     8    1
    18     8    11    1
    19    11    12    1
    20    12    13    2
    21    12    14   am
    22    14    15    1
    23    15    16    1
    24    16    17    1
    25    17    18    1
    26     8     9   am
    27     9    10    2
    28    26    27   ar
    29    27    28   ar
    30    28    29   ar
    31    29    30   ar
    32    30    22   ar
    33    29    24   ar
    34     9     3    1
    35    18    14    1
    36    31    32    1
    37     1     2    1
@<TRIPOS>MOLECULE
*****
 34 37 0 0 0
SMALL
GASTEIGER

@<TRIPOS>ATOM
      1 N          -3.5944  -17.9265   23.0242 N.pl3   1  UNL1       -0.2560
      2 H          -3.5847  -18.1070   23.9920 H       1  UNL1        0.2592
      3 C          -4.2248  -18.9108   22.0840 C.3     1  UNL1        0.2144
      4 C          -3.2772  -19.6598   21.1946 C.3     1  UNL1        0.0490
      5 C          -3.5901  -20.6989   20.1590 C.3     1  UNL1        0.0057
      6 C          -4.9279  -21.2456   19.7571 C.3     1  UNL1        0.0216
      7 C          -6.2831  -20.8882   20.2915 C.3     1  UNL1        0.0940
      8 N          -6.6353  -19.8959   21.3598 N.am    1  UNL1       -0.2686
      9 C          -5.7192  -19.0158   22.1576 C.2     1  UNL1        0.2622
     10 O          -6.3857  -18.1228   23.1616 O.2     1  UNL1       -0.2712
     11 C          -8.0968  -19.7664   21.6717 C.3     1  UNL1        0.1794
     12 C          -8.9584  -18.8457   20.8593 C.2     1  UNL1        0.2459
     13 O          -8.9137  -18.9039   19.3611 O.2     1  UNL1       -0.2730
     14 N          -9.8648  -17.8668   21.5452 N.am    1  UNL1       -0.2781
     15 C         -10.0159  -17.6944   23.0275 C.3     1  UNL1        0.0935
     16 C         -11.0236  -16.6095   23.2676 C.3     1  UNL1        0.0233
     17 C         -11.4953  -16.1115   21.9336 C.3     1  UNL1        0.0233
     18 C         -10.7790  -16.8886   20.8691 C.3     1  UNL1        0.0935
     19 N          -3.6782  -15.3534   22.6751 N.pl3   1  UNL1       -0.0709
     20 C          -2.9788  -16.6674   22.4899 C.cat   1  UNL1        0.4016
     21 C          -8.9921  -15.5159   28.4508 C.3     1  UNL1        0.0725
     22 C          -8.2039  -15.4360   27.1771 C.ar    1  UNL1        0.1233
     23 C          -6.7173  -15.5897   27.0491 C.ar    1  UNL1        0.0361
     24 C          -6.3585  -15.4370   25.6007 C.ar    1  UNL1        0.0402
     25 C          -5.0434  -15.4919   24.8812 C.ar    1  UNL1        0.0402
     26 C          -4.9933  -15.2986   23.3946 C.ar    1  UNL1        0.1590
     27 C          -6.2582  -15.0506   22.6274 C.ar    1  UNL1        0.0402
     28 C          -7.5732  -14.9957   23.3469 C.ar    1  UNL1        0.0405
     29 C          -7.6233  -15.1890   24.8335 C.ar    1  UNL1        0.1450
     30 O          -8.7638  -15.1883   25.8078 O.2     1  UNL1       -0.4577
     31 N          -1.6637  -16.7222   21.7704 N.pl3   1  UNL1       -0.1773
     32 H          -0.8311  -16.5068   22.2495 H       1  UNL1        0.2780
     33 C          -1.6173  -17.1051   20.3208 C.1     1  UNL1        0.2552
     34 N          -1.5709  -17.4880   18.8712 N.1     1  UNL1       -0.1538
@<TRIPOS>BOND
     1    21    22    1
     2    22    23   ar
     3    23    24   ar
     4    24    25   ar
     5    25    26   ar
     6    26    19    1
     7    19    20    2
     8    20    31    1
     9    31    33    1
    10    33    34    3
    11    20     1    1
    12     3     1    1
    13     3     4    1
    14     4     5    1
    15     5     6    1
    16     6     7    1
    17     7     8    1
    18     8    11    1
    19    11    12    1
    20    12    13    2
    21    12    14   am
    22    14    15    1
    23    15    16    1
    24    16    17    1
    25    17    18    1
    26     8     9   am
    27     9    10    2
    28    26    27   ar
    29    27    28   ar
    30    28    29   ar
    31    29    30   ar
    32    30    22   ar
    33    29    24   ar
    34     9     3    1
    35    18    14    1
    36    31    32    1
    37     1     2    1
@<TRIPOS>MOLECULE
*****
 34 37 0 0 0
SMALL
GASTEIGER

@<TRIPOS>ATOM
      1 N          -8.2767  -16.7675   21.4749 N.pl3   1  UNL1       -0.2560
      2 H          -8.7494  -16.0670   20.9697 H       1  UNL1        0.2592
      3 C          -7.7375  -16.4711   22.8430 C.3     1  UNL1        0.2144
      4 C          -8.7542  -16.0705   23.8705 C.3     1  UNL1        0.0490
      5 C          -8.5376  -15.7144   25.3114 C.3     1  UNL1        0.0057
      6 C          -7.2505  -15.6711   26.0807 C.3     1  UNL1        0.0216
      7 C          -5.8625  -15.9730   25.5990 C.3     1  UNL1        0.0940
      8 N          -5.4185  -16.3930   24.2292 N.am    1  UNL1       -0.2686
      9 C          -6.2530  -16.6147   23.0026 C.2     1  UNL1        0.2622
     10 O          -5.5040  -17.0355   21.7730 O.2     1  UNL1       -0.2712
     11 C          -3.9453  -16.6215   24.0640 C.3     1  UNL1        0.1794
     12 C          -3.4525  -17.8033   23.2827 C.2     1  UNL1        0.2459
     13 O          -3.9303  -19.1827   23.6279 O.2     1  UNL1       -0.2730
     14 N          -2.4818  -17.6059   22.1562 N.am    1  UNL1       -0.2781
     15 C          -1.9183  -16.2936   21.6978 C.3     1  UNL1        0.0935
     16 C          -0.9925  -16.5627   20.5487 C.3     1  UNL1        0.0233
     17 C          -0.9839  -18.0414   20.2969 C.3     1  UNL1        0.0233
     18 C          -1.9043  -18.6861   21.2904 C.3     1  UNL1        0.0935
     19 N          -9.2056  -19.1371   20.9536 N.pl3   1  UNL1       -0.0709
     20 C          -8.0958  -18.1310   20.8766 C.cat   1  UNL1        0.4016
     21 C         -14.7207  -18.3519   26.4844 C.3     1  UNL1        0.0725
     22 C         -13.8592  -18.3725   25.2567 C.ar    1  UNL1        0.1233
     23 C         -12.4714  -18.9340   25.1628 C.ar    1  UNL1        0.0361
     24 C         -11.9887  -18.7439   23.7553 C.ar    1  UNL1        0.0402
     25 C         -10.6979  -19.1013   23.0801 C.ar    1  UNL1        0.0402
     26 C         -10.4965  -18.7797   21.6289 C.ar    1  UNL1        0.1590
     27 C         -11.5859  -18.1006   20.8530 C.ar    1  UNL1        0.0402
     28 C         -12.8767  -17.7432   21.5282 C.ar    1  UNL1        0.0405
     29 C         -13.0781  -18.0648   22.9794 C.ar    1  UNL1        0.1450
     30 O         -14.2341  -17.8353   23.9073 O.2     1  UNL1       -0.4577
     31 N          -6.8049  -18.4884   20.2013 N.pl3   1  UNL1       -0.1773
     32 H          -6.2795  -17.7927   19.7440 H       1  UNL1        0.2780
     33 C          -6.3147  -19.9059   20.2227 C.1     1  UNL1        0.2552
     34 N          -5.8244  -21.3234   20.2442 N.1     1  UNL1       -0.1538
@<TRIPOS>BOND
     1    21    22    1
     2    22    23   ar
     3    23    24   ar
     4    24    25   ar
     5    25    26   ar
     6    26    19    1
     7    19    20    2
     8    20    31    1
     9    31    33    1
    10    33    34    3
    11    20     1    1
    12     3     1    1
    13     3     4    1
    14     4     5    1
    15     5     6    1
    16     6     7    1
    17     7     8    1
    18     8    11    1
    19    11    12    1
    20    12    13    2
    21    12    14   am
    22    14    15    1
    23    15    16    1
    24    16    17    1
    25    17    18    1
    26     8     9   am
    27     9    10    2
    28    26    27   ar
    29    27    28   ar
    30    28    29   ar
    31    29    30   ar
    32    30    22   ar
    33    29    24   ar
    34     9     3    1
    35    18    14    1
    36    31    32    1
    37     1     2    1
@<TRIPOS>MOLECULE
*****
 34 37 0 0 0
SMALL
GASTEIGER

@<TRIPOS>ATOM
      1 N          -6.3247  -15.8331   23.3212 N.pl3   1  UNL1       -0.2560
      2 H          -6.3019  -15.0888   22.6773 H       1  UNL1        0.2592
      3 C          -7.1599  -17.0461   23.0362 C.3     1  UNL1        0.2144
      4 C          -6.4530  -18.1759   22.3477 C.3     1  UNL1        0.0490
      5 C          -7.0031  -19.5074   21.9302 C.3     1  UNL1        0.0057
      6 C          -8.3960  -20.0382   22.0982 C.3     1  UNL1        0.0216
      7 C          -9.5828  -19.3684   22.7250 C.3     1  UNL1        0.0940
      8 N          -9.6698  -18.0025   23.3388 N.am    1  UNL1       -0.2686
      9 C          -8.5915  -16.9689   23.4772 C.2     1  UNL1        0.2622
     10 O          -8.9986  -15.6890   24.1451 O.2     1  UNL1       -0.2712
     11 C         -11.0126  -17.6194   23.8865 C.3     1  UNL1        0.1794
     12 C         -12.1685  -17.4029   22.9553 C.2     1  UNL1        0.2459
     13 O         -13.5434  -17.8560   23.3485 O.2     1  UNL1       -0.2730
     14 N         -11.9496  -16.7333   21.6310 N.am    1  UNL1       -0.2781
     15 C         -10.6390  -16.2292   21.1039 C.3     1  UNL1        0.0935
     16 C         -10.8823  -15.6346   19.7484 C.3     1  UNL1        0.0233
     17 C         -12.3434  -15.7713   19.4378 C.3     1  UNL1        0.0233
     18 C         -13.0031  -16.4503   20.6013 C.3     1  UNL1        0.0935
     19 N          -4.1831  -16.4208   24.6695 N.pl3   1  UNL1       -0.0709
     20 C          -5.5244  -15.7544   24.5874 C.cat   1  UNL1        0.4016
     21 C          -0.9424  -17.8931   17.6729 C.3     1  UNL1        0.0725
     22 C          -1.5764  -17.8985   19.0323 C.ar    1  UNL1        0.1233
     23 C          -1.9359  -16.6882   19.8423 C.ar    1  UNL1        0.0361
     24 C          -2.5440  -17.1568   21.1310 C.ar    1  UNL1        0.0402
     25 C          -3.0849  -16.4115   22.3150 C.ar    1  UNL1        0.0402
     26 C          -3.6421  -17.1661   23.4854 C.ar    1  UNL1        0.1590
     27 C          -3.6585  -18.6660   23.4719 C.ar    1  UNL1        0.0402
     28 C          -3.1175  -19.4112   22.2879 C.ar    1  UNL1        0.0405
     29 C          -2.5603  -18.6567   21.1174 C.ar    1  UNL1        0.1450
     30 O          -1.9623  -19.1150   19.8204 O.2     1  UNL1       -0.4577
     31 N          -6.0653  -15.0091   25.7715 N.pl3   1  UNL1       -0.1773
     32 H          -5.7492  -14.0972   25.9656 H       1  UNL1        0.2780
     33 C          -7.0879  -15.6533   26.6599 C.1     1  UNL1        0.2552
     34 N          -8.1106  -16.2976   27.5483 N.1     1  UNL1       -0.1538
@<TRIPOS>BOND
     1    21    22    1
     2    22    23   ar
     3    23    24   ar
     4    24    25   ar
     5    25    26   ar
     6    26    19    1
     7    19    20    2
     8    20    31    1
     9    31    33    1
    10    33    34    3
    11    20     1    1
    12     3     1    1
    13     3     4    1
    14     4     5    1
    15     5     6    1
    16     6     7    1
    17     7     8    1
    18     8    11    1
    19    11    12    1
    20    12    13    2
    21    12    14   am
    22    14    15    1
    23    15    16    1
    24    16    17    1
    25    17    18    1
    26     8     9   am
    27     9    10    2
    28    26    27   ar
    29    27    28   ar
    30    28    29   ar
    31    29    30   ar
    32    30    22   ar
    33    29    24   ar
    34     9     3    1
    35    18    14    1
    36    31    32    1
    37     1     2    1
@<TRIPOS>MOLECULE
*****
 34 37 0 0 0
SMALL
GASTEIGER

@<TRIPOS>ATOM
      1 N          -5.0364  -19.2709   21.8908 N.pl3   1  UNL1       -0.2560
      2 H          -4.9695  -19.6691   22.7887 H       1  UNL1        0.2592
      3 C          -6.2100  -19.5922   21.0135 C.3     1  UNL1        0.2144
      4 C          -6.0923  -20.8494   20.2038 C.3     1  UNL1        0.0490
      5 C          -7.0815  -21.4388   19.2425 C.3     1  UNL1        0.0057
      6 C          -8.4328  -20.9164   18.8535 C.3     1  UNL1        0.0216
      7 C          -9.1285  -19.6758   19.3297 C.3     1  UNL1        0.0940
      8 N          -8.6448  -18.6511   20.3125 N.am    1  UNL1       -0.2686
      9 C          -7.3459  -18.6139   21.0619 C.2     1  UNL1        0.2622
     10 O          -7.1582  -17.4436   21.9812 O.2     1  UNL1       -0.2712
     11 C          -9.5842  -17.5131   20.5816 C.3     1  UNL1        0.1794
     12 C         -10.9399  -17.7814   21.1650 C.2     1  UNL1        0.2459
     13 O         -12.1640  -17.6536   20.3075 O.2     1  UNL1       -0.2730
     14 N         -11.0714  -18.1774   22.6058 N.am    1  UNL1       -0.2781
     15 C          -9.9438  -18.3445   23.5807 C.3     1  UNL1        0.0935
     16 C         -10.5291  -18.7462   24.9021 C.3     1  UNL1        0.0233
     17 C         -12.0186  -18.8273   24.7438 C.3     1  UNL1        0.0233
     18 C         -12.3537  -18.4758   23.3246 C.3     1  UNL1        0.0935
     19 N          -3.5218  -17.1913   22.2528 N.pl3   1  UNL1       -0.0709
     20 C          -3.9649  -18.3430   21.4000 C.cat   1  UNL1        0.4016
     21 C          -8.5094  -14.7488   27.8008 C.3     1  UNL1        0.0725
     22 C          -7.4136  -15.3347   26.9606 C.ar    1  UNL1        0.1233
     23 C          -7.2883  -15.2202   25.4702 C.ar    1  UNL1        0.0361
     24 C          -6.0480  -15.9527   25.0517 C.ar    1  UNL1        0.0402
     25 C          -5.4197  -16.1765   23.7081 C.ar    1  UNL1        0.0402
     26 C          -4.1502  -16.9675   23.5963 C.ar    1  UNL1        0.1590
     27 C          -3.5089  -17.5347   24.8280 C.ar    1  UNL1        0.0402
     28 C          -4.1372  -17.3109   26.1716 C.ar    1  UNL1        0.0405
     29 C          -5.4068  -16.5199   26.2834 C.ar    1  UNL1        0.1450
     30 O          -6.2508  -16.1379   27.4631 O.2     1  UNL1       -0.4577
     31 N          -3.3366  -18.5669   20.0565 N.pl3   1  UNL1       -0.1773
     32 H          -3.9045  -18.6873   19.2613 H       1  UNL1        0.2780
     33 C          -1.8429  -18.6072   19.9244 C.1     1  UNL1        0.2552
     34 N          -0.3493  -18.6476   19.7924 N.1     1  UNL1       -0.1538
@<TRIPOS>BOND
     1    21    22    1
     2    22    23   ar
     3    23    24   ar
     4    24    25   ar
     5    25    26   ar
     6    26    19    1
     7    19    20    2
     8    20    31    1
     9    31    33    1
    10    33    34    3
    11    20     1    1
    12     3     1    1
    13     3     4    1
    14     4     5    1
    15     5     6    1
    16     6     7    1
    17     7     8    1
    18     8    11    1
    19    11    12    1
    20    12    13    2
    21    12    14   am
    22    14    15    1
    23    15    16    1
    24    16    17    1
    25    17    18    1
    26     8     9   am
    27     9    10    2
    28    26    27   ar
    29    27    28   ar
    30    28    29   ar
    31    29    30   ar
    32    30    22   ar
    33    29    24   ar
    34     9     3    1
    35    18    14    1
    36    31    32    1
    37     1     2    1
@<TRIPOS>MOLECULE
*****
 34 37 0 0 0
SMALL
GASTEIGER

@<TRIPOS>ATOM
      1 N           7.0044   -3.6765   27.9081 N.pl3   1  UNL1       -0.2560
      2 H           7.8917   -3.3295   28.1561 H       1  UNL1        0.2592
      3 C           6.1017   -2.8659   27.0260 C.3     1  UNL1        0.2144
      4 C           4.9480   -2.1980   27.7137 C.3     1  UNL1        0.0490
      5 C           3.8797   -1.3296   27.1182 C.3     1  UNL1        0.0057
      6 C           3.7013   -0.9147   25.6877 C.3     1  UNL1        0.0216
      7 C           4.5470   -1.2657   24.4997 C.3     1  UNL1        0.0940
      8 N           5.7801   -2.1182   24.4486 N.am    1  UNL1       -0.2686
      9 C           6.4720   -2.8304   25.5729 C.2     1  UNL1        0.2622
     10 O           7.6961   -3.6102   25.1941 O.2     1  UNL1       -0.2712
     11 C           6.4038   -2.2801   23.0940 C.3     1  UNL1        0.1794
     12 C           5.9790   -3.4092   22.2026 C.2     1  UNL1        0.2459
     13 O           6.5918   -4.7681   22.3698 O.2     1  UNL1       -0.2730
     14 N           4.9412   -3.1795   21.1441 N.am    1  UNL1       -0.2781
     15 C           4.2435   -1.8824   20.8603 C.3     1  UNL1        0.0935
     16 C           3.2901   -2.1078   19.7244 C.3     1  UNL1        0.0233
     17 C           3.3986   -3.5443   19.3062 C.3     1  UNL1        0.0233
     18 C           4.4191   -4.2066   20.1837 C.3     1  UNL1        0.0935
     19 N           6.7031   -5.3584   29.8653 N.pl3   1  UNL1       -0.0709
     20 C           6.5551   -5.0158   28.4125 C.cat   1  UNL1        0.4016
     21 C           7.3546    0.6139   34.9180 C.3     1  UNL1        0.0725
     22 C           7.5142   -0.5547   33.9912 C.ar    1  UNL1        0.1233
     23 C           6.4179   -1.2168   33.2104 C.ar    1  UNL1        0.0361
     24 C           7.0242   -2.3377   32.4191 C.ar    1  UNL1        0.0402
     25 C           6.4268   -3.3344   31.4706 C.ar    1  UNL1        0.0402
     26 C           7.3005   -4.3616   30.8138 C.ar    1  UNL1        0.1590
     27 C           8.7715   -4.3922   31.1056 C.ar    1  UNL1        0.0402
     28 C           9.3689   -3.3955   32.0541 C.ar    1  UNL1        0.0405
     29 C           8.4952   -2.3682   32.7108 C.ar    1  UNL1        0.1450
     30 O           8.7980   -1.2663   33.6824 O.2     1  UNL1       -0.4577
     31 N           5.9578   -6.0126   27.4639 N.pl3   1  UNL1       -0.1773
     32 H           4.9850   -6.1643   27.4574 H       1  UNL1        0.2780
     33 C           6.8425   -6.7783   26.5253 C.1     1  UNL1        0.2552
     34 N           7.7273   -7.5440   25.5868 N.1     1  UNL1       -0.1538
@<TRIPOS>BOND
     1    21    22    1
     2    22    23   ar
     3    23    24   ar
     4    24    25   ar
     5    25    26   ar
     6    26    19    1
     7    19    20    2
     8    20    31    1
     9    31    33    1
    10    33    34    3
    11    20     1    1
    12     3     1    1
    13     3     4    1
    14     4     5    1
    15     5     6    1
    16     6     7    1
    17     7     8    1
    18     8    11    1
    19    11    12    1
    20    12    13    2
    21    12    14   am
    22    14    15    1
    23    15    16    1
    24    16    17    1
    25    17    18    1
    26     8     9   am
    27     9    10    2
    28    26    27   ar
    29    27    28   ar
    30    28    29   ar
    31    29    30   ar
    32    30    22   ar
    33    29    24   ar
    34     9     3    1
    35    18    14    1
    36    31    32    1
    37     1     2    1
@<TRIPOS>MOLECULE
*****
 34 37 0 0 0
SMALL
GASTEIGER

@<TRIPOS>ATOM
      1 N           5.6005   -1.3637   19.4585 N.pl3   1  UNL1       -0.2560
      2 H           6.2509   -0.6732   19.1950 H       1  UNL1        0.2592
      3 C           5.4120   -1.7024   20.9076 C.3     1  UNL1        0.2144
      4 C           4.1043   -1.2811   21.5097 C.3     1  UNL1        0.0490
      5 C           3.6177   -1.4709   22.9157 C.3     1  UNL1        0.0057
      6 C           4.3186   -2.1290   24.0672 C.3     1  UNL1        0.0216
      7 C           5.6792   -2.7597   24.0968 C.3     1  UNL1        0.0940
      8 N           6.6750   -2.8881   22.9824 N.am    1  UNL1       -0.2686
      9 C           6.5561   -2.4176   21.5630 C.2     1  UNL1        0.2622
     10 O           7.7374   -2.6995   20.6827 O.2     1  UNL1       -0.2712
     11 C           7.9595   -3.5784   23.3336 C.3     1  UNL1        0.1794
     12 C           8.0602   -5.0717   23.2340 C.2     1  UNL1        0.2459
     13 O           8.3060   -5.7197   21.9037 O.2     1  UNL1       -0.2730
     14 N           7.9152   -5.9171   24.4647 N.am    1  UNL1       -0.2781
     15 C           7.6681   -5.4138   25.8559 C.3     1  UNL1        0.0935
     16 C           7.5920   -6.5997   26.7712 C.3     1  UNL1        0.0233
     17 C           7.7920   -7.8360   25.9455 C.3     1  UNL1        0.0233
     18 C           7.9918   -7.4141   24.5200 C.3     1  UNL1        0.0935
     19 N           3.7272   -1.3446   17.6585 N.pl3   1  UNL1       -0.0709
     20 C           4.7981   -2.0771   18.4111 C.cat   1  UNL1        0.4016
     21 C          -0.0700    5.2756   19.4965 C.3     1  UNL1        0.0725
     22 C           0.8874    4.1806   19.1299 C.ar    1  UNL1        0.1233
     23 C           0.5432    2.7317   18.9509 C.ar    1  UNL1        0.0361
     24 C           1.8002    1.9979   18.5884 C.ar    1  UNL1        0.0402
     25 C           2.0688    0.5520   18.2935 C.ar    1  UNL1        0.0402
     26 C           3.4585    0.1015   17.9535 C.ar    1  UNL1        0.1590
     27 C           4.5797    1.0969   17.9084 C.ar    1  UNL1        0.0402
     28 C           4.3111    2.5429   18.2033 C.ar    1  UNL1        0.0405
     29 C           2.9214    2.9934   18.5433 C.ar    1  UNL1        0.1450
     30 O           2.3572    4.3423   18.8780 O.2     1  UNL1       -0.4577
     31 N           5.0668   -3.5232   18.1161 N.pl3   1  UNL1       -0.1773
     32 H           5.6614   -3.7715   17.3719 H       1  UNL1        0.2780
     33 C           4.4293   -4.5907   18.9552 C.1     1  UNL1        0.2552
     34 N           3.7919   -5.6582   19.7942 N.1     1  UNL1       -0.1538
@<TRIPOS>BOND
     1    21    22    1
     2    22    23   ar
     3    23    24   ar
     4    24    25   ar
     5    25    26   ar
     6    26    19    1
     7    19    20    2
     8    20    31    1
     9    31    33    1
    10    33    34    3
    11    20     1    1
    12     3     1    1
    13     3     4    1
    14     4     5    1
    15     5     6    1
    16     6     7    1
    17     7     8    1
    18     8    11    1
    19    11    12    1
    20    12    13    2
    21    12    14   am
    22    14    15    1
    23    15    16    1
    24    16    17    1
    25    17    18    1
    26     8     9   am
    27     9    10    2
    28    26    27   ar
    29    27    28   ar
    30    28    29   ar
    31    29    30   ar
    32    30    22   ar
    33    29    24   ar
    34     9     3    1
    35    18    14    1
    36    31    32    1
    37     1     2    1
@<TRIPOS>MOLECULE
*****
 34 37 0 0 0
SMALL
GASTEIGER

@<TRIPOS>ATOM
      1 N           3.8367    0.8667   31.4512 N.pl3   1  UNL1       -0.2560
      2 H           4.5513    1.1890   30.8556 H       1  UNL1        0.2592
      3 C           3.0928    1.8350   32.3225 C.3     1  UNL1        0.2144
      4 C           1.9575    2.5624   31.6652 C.3     1  UNL1        0.0490
      5 C           1.0316    3.5822   32.2588 C.3     1  UNL1        0.0057
      6 C           1.0122    4.1267   33.6564 C.3     1  UNL1        0.0216
      7 C           1.9140    3.7856   34.8055 C.3     1  UNL1        0.0940
      8 N           3.0579    2.8160   34.8408 N.am    1  UNL1       -0.2686
      9 C           3.5826    1.9478   33.7358 C.2     1  UNL1        0.2622
     10 O           4.7514    1.0775   34.0909 O.2     1  UNL1       -0.2712
     11 C           3.7716    2.6989   36.1549 C.3     1  UNL1        0.1794
     12 C           3.4603    1.5588   37.0787 C.2     1  UNL1        0.2459
     13 O           4.2770    0.3020   37.0205 O.2     1  UNL1       -0.2730
     14 N           2.3323    1.6756   38.0606 N.am    1  UNL1       -0.2781
     15 C           1.4333    2.8637   38.2334 C.3     1  UNL1        0.0935
     16 C           0.4507    2.5472   39.3216 C.3     1  UNL1        0.0233
     17 C           0.7425    1.1632   39.8214 C.3     1  UNL1        0.0233
     18 C           1.9054    0.6246   39.0419 C.3     1  UNL1        0.0935
     19 N           2.6944   -1.2029   30.3733 N.pl3   1  UNL1       -0.0709
     20 C           3.4919   -0.5927   31.4875 C.cat   1  UNL1        0.4016
     21 C          -1.8928    3.1049   25.6803 C.3     1  UNL1        0.0725
     22 C          -0.8115    2.3385   26.3828 C.ar    1  UNL1        0.1233
     23 C          -0.9586    1.5879   27.6731 C.ar    1  UNL1        0.0361
     24 C           0.3688    0.9737   28.0060 C.ar    1  UNL1        0.0402
     25 C           0.8215    0.1245   29.1566 C.ar    1  UNL1        0.0402
     26 C           2.2417   -0.3536   29.2226 C.ar    1  UNL1        0.1590
     27 C           3.2092    0.0174   28.1381 C.ar    1  UNL1        0.0402
     28 C           2.7565    0.8666   26.9875 C.ar    1  UNL1        0.0405
     29 C           1.3363    1.3447   26.9214 C.ar    1  UNL1        0.1450
     30 O           0.6068    2.1882   25.9182 O.2     1  UNL1       -0.4577
     31 N           3.9447   -1.4419   32.6382 N.pl3   1  UNL1       -0.1773
     32 H           3.4987   -1.3646   33.5125 H       1  UNL1        0.2780
     33 C           5.0770   -2.4089   32.4567 C.1     1  UNL1        0.2552
     34 N           6.2093   -3.3758   32.2752 N.1     1  UNL1       -0.1538
@<TRIPOS>BOND
     1    21    22    1
     2    22    23   ar
     3    23    24   ar
     4    24    25   ar
     5    25    26   ar
     6    26    19    1
     7    19    20    2
     8    20    31    1
     9    31    33    1
    10    33    34    3
    11    20     1    1
    12     3     1    1
    13     3     4    1
    14     4     5    1
    15     5     6    1
    16     6     7    1
    17     7     8    1
    18     8    11    1
    19    11    12    1
    20    12    13    2
    21    12    14   am
    22    14    15    1
    23    15    16    1
    24    16    17    1
    25    17    18    1
    26     8     9   am
    27     9    10    2
    28    26    27   ar
    29    27    28   ar
    30    28    29   ar
    31    29    30   ar
    32    30    22   ar
    33    29    24   ar
    34     9     3    1
    35    18    14    1
    36    31    32    1
    37     1     2    1
@<TRIPOS>MOLECULE
*****
 34 37 0 0 0
SMALL
GASTEIGER

@<TRIPOS>ATOM
      1 N           4.3307   -1.6856   20.0276 N.pl3   1  UNL1       -0.2560
      2 H           3.5111   -1.4555   20.5221 H       1  UNL1        0.2592
      3 C           5.6668   -1.5844   20.7019 C.3     1  UNL1        0.2144
      4 C           6.6128   -0.5742   20.1235 C.3     1  UNL1        0.0490
      5 C           8.0059   -0.2368   20.5657 C.3     1  UNL1        0.0057
      6 C           8.7970   -0.8264   21.6955 C.3     1  UNL1        0.0216
      7 C           8.3905   -1.8988   22.6622 C.3     1  UNL1        0.0940
      8 N           7.0924   -2.6467   22.7378 N.am    1  UNL1       -0.2686
      9 C           5.8802   -2.5068   21.8653 C.2     1  UNL1        0.2622
     10 O           4.7293   -3.4084   22.2007 O.2     1  UNL1       -0.2712
     11 C           6.9933   -3.6698   23.8302 C.3     1  UNL1        0.1794
     12 C           7.5372   -5.0512   23.6157 C.2     1  UNL1        0.2459
     13 O           7.9923   -5.4745   22.2505 O.2     1  UNL1       -0.2730
     14 N           7.6260   -6.0094   24.7664 N.am    1  UNL1       -0.2781
     15 C           7.2116   -5.7296   26.1806 C.3     1  UNL1        0.0935
     16 C           7.4742   -6.9628   26.9932 C.3     1  UNL1        0.0233
     17 C           8.0510   -8.0047   26.0811 C.3     1  UNL1        0.0233
     18 C           8.1447   -7.4154   24.7049 C.3     1  UNL1        0.0935
     19 N           3.7841   -1.1827   17.5380 N.pl3   1  UNL1       -0.0709
     20 C           4.2434   -2.1373   18.5999 C.cat   1  UNL1        0.4016
     21 C          -0.5009    5.0720   19.5729 C.3     1  UNL1        0.0725
     22 C           0.5391    4.0611   19.1901 C.ar    1  UNL1        0.1233
     23 C           0.2950    2.6079   18.9097 C.ar    1  UNL1        0.0361
     24 C           1.6108    1.9746   18.5668 C.ar    1  UNL1        0.0402
     25 C           1.9828    0.5682   18.2010 C.ar    1  UNL1        0.0402
     26 C           3.4121    0.2237   17.9037 C.ar    1  UNL1        0.1590
     27 C           4.4694    1.2855   17.9722 C.ar    1  UNL1        0.0402
     28 C           4.0974    2.6919   18.3379 C.ar    1  UNL1        0.0405
     29 C           2.6681    3.0364   18.6352 C.ar    1  UNL1        0.1450
     30 O           2.0057    4.3259   19.0204 O.2     1  UNL1       -0.4577
     31 N           4.6155   -3.5437   18.2341 N.pl3   1  UNL1       -0.1773
     32 H           5.1708   -3.7152   17.4395 H       1  UNL1        0.2780
     33 C           4.1415   -4.6888   19.0792 C.1     1  UNL1        0.2552
     34 N           3.6675   -5.8338   19.9243 N.1     1  UNL1       -0.1538
@<TRIPOS>BOND
     1    21    22    1
     2    22    23   ar
     3    23    24   ar
     4    24    25   ar
     5    25    26   ar
     6    26    19    1
     7    19    20    2
     8    20    31    1
     9    31    33    1
    10    33    34    3
    11    20     1    1
    12     3     1    1
    13     3     4    1
    14     4     5    1
    15     5     6    1
    16     6     7    1
    17     7     8    1
    18     8    11    1
    19    11    12    1
    20    12    13    2
    21    12    14   am
    22    14    15    1
    23    15    16    1
    24    16    17    1
    25    17    18    1
    26     8     9   am
    27     9    10    2
    28    26    27   ar
    29    27    28   ar
    30    28    29   ar
    31    29    30   ar
    32    30    22   ar
    33    29    24   ar
    34     9     3    1
    35    18    14    1
    36    31    32    1
    37     1     2    1
