@<TRIPOS>MOLECULE
*****
 31 34 0 0 0
SMALL
GASTEIGER

@<TRIPOS>ATOM
      1 C          -8.4819  -16.0704   23.3334 C.ar    1  UNL1        0.0957
      2 C          -8.6982  -15.4936   24.7010 C.ar    1  UNL1        0.1191
      3 N          -7.5538  -15.4029   25.6664 N.ar    1  UNL1       -0.2223
      4 C          -6.1930  -15.8891   25.2642 C.ar    1  UNL1        0.1784
      5 N          -4.8842  -15.9280   25.9960 N.ar    1  UNL1       -0.2236
      6 C          -3.8590  -16.5289   25.0808 C.ar    1  UNL1        0.1066
      7 C          -4.5341  -16.8614   23.7832 C.ar    1  UNL1        0.0910
      8 C          -5.9766  -16.4660   23.8966 C.ar    1  UNL1        0.0988
      9 N          -7.1210  -16.5566   22.9312 N.ar    1  UNL1       -0.3481
     10 H          -6.9790  -16.9352   22.0335 H       1  UNL1        0.1661
     11 C         -11.4411  -15.5568   18.9906 C.3     1  UNL1        0.1537
     12 N         -10.9865  -15.9250   20.3718 N.ar    1  UNL1       -0.2488
     13 N          -9.6503  -15.6066   20.9744 N.ar    1  UNL1       -0.1677
     14 C          -9.6264  -16.1611   22.3680 C.ar    1  UNL1        0.1193
     15 C         -10.9478  -16.8221   22.6267 C.ar    1  UNL1        0.0379
     16 C         -11.4942  -17.5380   23.8262 C.ar    1  UNL1        0.0012
     17 C         -12.8812  -18.1080   23.7920 C.ar    1  UNL1        0.0071
     18 C         -13.7218  -17.9621   22.5583 C.ar    1  UNL1       -0.0003
     19 C         -13.1754  -17.2462   21.3588 C.ar    1  UNL1        0.0185
     20 C         -11.7884  -16.6762   21.3930 C.ar    1  UNL1        0.0794
     21 C         -13.4276  -18.8239   24.9916 C.3     1  UNL1        0.1636
     22 O         -14.8074  -18.5093   25.4887 O.3     1  UNL1       -0.3772
     23 H         -14.8322  -17.5975   25.8186 H       1  UNL1        0.2109
     24 C          -3.8813  -17.4806   22.5830 C.2     1  UNL1        0.2488
     25 O          -4.7197  -18.1538   21.5370 O.2     1  UNL1       -0.2700
     26 N          -2.3903  -17.4266   22.4287 N.am    1  UNL1       -0.3039
     27 H          -1.8401  -16.9848   23.1152 H       1  UNL1        0.1496
     28 C          -1.7376  -18.0458   21.2285 C.3     1  UNL1        0.0572
     29 C          -2.0608  -19.4117   21.7574 C.3     1  UNL1        0.0196
     30 C          -1.4143  -16.6799   20.6995 C.3     1  UNL1        0.0196
     31 C          -1.0849  -18.6651   20.0283 C.3     1  UNL1        0.0196
@<TRIPOS>BOND
     1    11    12    1
     2    12    13   ar
     3    13    14   ar
     4    14     1    1
     5     1     2   ar
     6     2     3   ar
     7     3     4   ar
     8     4     5   ar
     9     5     6   ar
    10     6     7   ar
    11     7    24    1
    12    24    25    2
    13    24    26   am
    14    26    28    1
    15    28    29    1
    16    28    30    1
    17    28    31    1
    18     7     8   ar
    19     8     9   ar
    20    14    15   ar
    21    15    16   ar
    22    16    17   ar
    23    17    21    1
    24    21    22    1
    25    17    18   ar
    26    18    19   ar
    27    19    20   ar
    28    20    12   ar
    29     9     1   ar
    30    20    15   ar
    31     8     4    1
    32    26    27    1
    33     9    10    1
    34    22    23    1
@<TRIPOS>MOLECULE
*****
 31 34 0 0 0
SMALL
GASTEIGER

@<TRIPOS>ATOM
      1 C         -14.7903   -2.8336   18.8037 C.ar    1  UNL1        0.0957
      2 C         -15.6177   -1.6831   19.2951 C.ar    1  UNL1        0.1191
      3 N         -17.0306   -1.9128   19.7433 N.ar    1  UNL1       -0.2223
      4 C         -17.6162   -3.2931   19.7001 C.ar    1  UNL1        0.1784
      5 N         -18.9692   -3.8216   20.0743 N.ar    1  UNL1       -0.2236
      6 C         -18.9780   -5.2988   19.8142 C.ar    1  UNL1        0.1066
      7 C         -17.6304   -5.6833   19.2792 C.ar    1  UNL1        0.0910
      8 C         -16.7888   -4.4437   19.2087 C.ar    1  UNL1        0.0988
      9 N         -15.3758   -4.2140   18.7605 N.ar    1  UNL1       -0.3481
     10 H         -14.8328   -4.9692   18.4380 H       1  UNL1        0.1661
     11 C         -10.4058   -0.4961   17.0169 C.3     1  UNL1        0.1537
     12 N         -11.3621   -1.5295   17.5342 N.ar    1  UNL1       -0.2488
     13 N         -12.8041   -1.3023   17.8791 N.ar    1  UNL1       -0.1677
     14 C         -13.3774   -2.6039   18.3555 C.ar    1  UNL1        0.1193
     15 C         -12.2897   -3.6356   18.3051 C.ar    1  UNL1        0.0379
     16 C         -12.2725   -5.0939   18.6558 C.ar    1  UNL1        0.0012
     17 C         -11.0098   -5.8882   18.4989 C.ar    1  UNL1        0.0071
     18 C          -9.7642   -5.2241   17.9913 C.ar    1  UNL1       -0.0003
     19 C          -9.7814   -3.7658   17.6406 C.ar    1  UNL1        0.0185
     20 C         -11.0441   -2.9716   17.7975 C.ar    1  UNL1        0.0794
     21 C         -10.9926   -7.3466   18.8496 C.3     1  UNL1        0.1636
     22 O          -9.6970   -8.0201   19.1931 O.3     1  UNL1       -0.3772
     23 H          -9.1228   -8.0343   18.4114 H       1  UNL1        0.2109
     24 C         -17.2001   -7.0649   18.8841 C.2     1  UNL1        0.2488
     25 O         -15.9645   -7.2574   18.0557 O.2     1  UNL1       -0.2700
     26 N         -18.0053   -8.2539   19.3175 N.am    1  UNL1       -0.3039
     27 H         -18.8162   -8.1276   19.8612 H       1  UNL1        0.1496
     28 C         -17.5749   -9.6354   18.9224 C.3     1  UNL1        0.0572
     29 C         -16.5843   -9.6489   20.0487 C.3     1  UNL1        0.0196
     30 C         -18.5655   -9.6220   17.7960 C.3     1  UNL1        0.0196
     31 C         -17.1445  -11.0170   18.5273 C.3     1  UNL1        0.0196
@<TRIPOS>BOND
     1    11    12    1
     2    12    13   ar
     3    13    14   ar
     4    14     1    1
     5     1     2   ar
     6     2     3   ar
     7     3     4   ar
     8     4     5   ar
     9     5     6   ar
    10     6     7   ar
    11     7    24    1
    12    24    25    2
    13    24    26   am
    14    26    28    1
    15    28    29    1
    16    28    30    1
    17    28    31    1
    18     7     8   ar
    19     8     9   ar
    20    14    15   ar
    21    15    16   ar
    22    16    17   ar
    23    17    21    1
    24    21    22    1
    25    17    18   ar
    26    18    19   ar
    27    19    20   ar
    28    20    12   ar
    29     9     1   ar
    30    20    15   ar
    31     8     4    1
    32    26    27    1
    33     9    10    1
    34    22    23    1
@<TRIPOS>MOLECULE
*****
 31 34 0 0 0
SMALL
GASTEIGER

@<TRIPOS>ATOM
      1 C         -12.5798   -2.6370   18.5797 C.ar    1  UNL1        0.0957
      2 C         -11.0995   -2.4768   18.7611 C.ar    1  UNL1        0.1191
      3 N         -10.2171   -3.6878   18.8314 N.ar    1  UNL1       -0.2223
      4 C         -10.8150   -5.0590   18.7204 C.ar    1  UNL1        0.1784
      5 N         -10.2014   -6.4273   18.7541 N.ar    1  UNL1       -0.2236
      6 C         -11.3024   -7.4332   18.5936 C.ar    1  UNL1        0.1066
      7 C         -12.5966   -6.6865   18.4607 C.ar    1  UNL1        0.0910
      8 C         -12.2953   -5.2192   18.5390 C.ar    1  UNL1        0.0988
      9 N         -13.1777   -4.0082   18.4687 N.ar    1  UNL1       -0.3481
     10 H         -14.1493   -4.1134   18.3497 H       1  UNL1        0.1661
     11 C         -14.2836    2.2950   17.7715 C.3     1  UNL1        0.1537
     12 N         -14.2454    0.8409   18.1379 N.ar    1  UNL1       -0.2488
     13 N         -13.0509   -0.0613   18.0420 N.ar    1  UNL1       -0.1677
     14 C         -13.4622   -1.4260   18.5094 C.ar    1  UNL1        0.1193
     15 C         -14.9108   -1.3672   18.8941 C.ar    1  UNL1        0.0379
     16 C         -15.8517   -2.4084   19.4237 C.ar    1  UNL1        0.0012
     17 C         -17.2766   -2.0486   19.7238 C.ar    1  UNL1        0.0071
     18 C         -17.7607   -0.6475   19.4942 C.ar    1  UNL1       -0.0003
     19 C         -16.8198    0.3937   18.9645 C.ar    1  UNL1        0.0185
     20 C         -15.3949    0.0338   18.6645 C.ar    1  UNL1        0.0794
     21 C         -18.2176   -3.0898   20.2535 C.3     1  UNL1        0.1636
     22 O         -19.1347   -2.7612   21.3941 O.3     1  UNL1       -0.3772
     23 H         -18.6103   -2.5948   22.1930 H       1  UNL1        0.2109
     24 C         -13.9538   -7.2996   18.2809 C.2     1  UNL1        0.2488
     25 O         -14.9274   -6.6955   17.3129 O.2     1  UNL1       -0.2700
     26 N         -14.3373   -8.5168   19.0691 N.am    1  UNL1       -0.3039
     27 H         -13.6982   -8.9133   19.7045 H       1  UNL1        0.1496
     28 C         -15.6944   -9.1298   18.8894 C.3     1  UNL1        0.0572
     29 C         -15.1516  -10.0135   17.8057 C.3     1  UNL1        0.0196
     30 C         -16.2372   -8.2461   19.9731 C.3     1  UNL1        0.0196
     31 C         -17.0516   -9.7429   18.7096 C.3     1  UNL1        0.0196
@<TRIPOS>BOND
     1    11    12    1
     2    12    13   ar
     3    13    14   ar
     4    14     1    1
     5     1     2   ar
     6     2     3   ar
     7     3     4   ar
     8     4     5   ar
     9     5     6   ar
    10     6     7   ar
    11     7    24    1
    12    24    25    2
    13    24    26   am
    14    26    28    1
    15    28    29    1
    16    28    30    1
    17    28    31    1
    18     7     8   ar
    19     8     9   ar
    20    14    15   ar
    21    15    16   ar
    22    16    17   ar
    23    17    21    1
    24    21    22    1
    25    17    18   ar
    26    18    19   ar
    27    19    20   ar
    28    20    12   ar
    29     9     1   ar
    30    20    15   ar
    31     8     4    1
    32    26    27    1
    33     9    10    1
    34    22    23    1
@<TRIPOS>MOLECULE
*****
 31 34 0 0 0
SMALL
GASTEIGER

@<TRIPOS>ATOM
      1 C          -8.9645  -16.5155   23.8948 C.ar    1  UNL1        0.0957
      2 C          -9.4174  -15.8761   25.1738 C.ar    1  UNL1        0.1191
      3 N          -8.4073  -15.3209   26.1336 N.ar    1  UNL1       -0.2223
      4 C          -6.9440  -15.4051   25.8144 C.ar    1  UNL1        0.1784
      5 N          -5.7259  -14.9488   26.5614 N.ar    1  UNL1       -0.2236
      6 C          -4.5200  -15.3063   25.7441 C.ar    1  UNL1        0.1066
      7 C          -4.9929  -15.9834   24.4919 C.ar    1  UNL1        0.0910
      8 C          -6.4910  -16.0445   24.5354 C.ar    1  UNL1        0.0988
      9 N          -7.5012  -16.5997   23.5756 N.ar    1  UNL1       -0.3481
     10 H          -7.2038  -17.0194   22.7361 H       1  UNL1        0.1661
     11 C         -13.5324  -17.5763   21.4680 C.3     1  UNL1        0.1537
     12 N         -12.0743  -17.5584   21.8195 N.ar    1  UNL1       -0.2488
     13 N         -11.4505  -16.8035   22.9558 N.ar    1  UNL1       -0.1677
     14 C          -9.9747  -17.0708   22.9350 C.ar    1  UNL1        0.1193
     15 C          -9.6863  -17.9908   21.7859 C.ar    1  UNL1        0.0379
     16 C          -8.4098  -18.5931   21.2783 C.ar    1  UNL1        0.0012
     17 C          -8.4309  -19.4967   20.0812 C.ar    1  UNL1        0.0071
     18 C          -9.7286  -19.7980   19.3918 C.ar    1  UNL1       -0.0003
     19 C         -11.0051  -19.1958   19.8994 C.ar    1  UNL1        0.0185
     20 C         -10.9840  -18.2922   21.0965 C.ar    1  UNL1        0.0794
     21 C          -7.1544  -20.0990   19.5735 C.3     1  UNL1        0.1636
     22 O          -7.1300  -21.5260   19.1119 O.3     1  UNL1       -0.3772
     23 H          -7.2977  -22.1127   19.8660 H       1  UNL1        0.2109
     24 C          -4.1207  -16.5076   23.3898 C.2     1  UNL1        0.2488
     25 O          -3.4917  -15.5569   22.4147 O.2     1  UNL1       -0.2700
     26 N          -3.8776  -17.9822   23.2627 N.am    1  UNL1       -0.3039
     27 H          -4.2904  -18.6062   23.9026 H       1  UNL1        0.1496
     28 C          -3.0054  -18.5063   22.1606 C.3     1  UNL1        0.0572
     29 C          -1.7883  -18.0344   22.8994 C.3     1  UNL1        0.0196
     30 C          -4.2226  -18.9781   21.4217 C.3     1  UNL1        0.0196
     31 C          -2.1332  -19.0303   21.0584 C.3     1  UNL1        0.0196
@<TRIPOS>BOND
     1    11    12    1
     2    12    13   ar
     3    13    14   ar
     4    14     1    1
     5     1     2   ar
     6     2     3   ar
     7     3     4   ar
     8     4     5   ar
     9     5     6   ar
    10     6     7   ar
    11     7    24    1
    12    24    25    2
    13    24    26   am
    14    26    28    1
    15    28    29    1
    16    28    30    1
    17    28    31    1
    18     7     8   ar
    19     8     9   ar
    20    14    15   ar
    21    15    16   ar
    22    16    17   ar
    23    17    21    1
    24    21    22    1
    25    17    18   ar
    26    18    19   ar
    27    19    20   ar
    28    20    12   ar
    29     9     1   ar
    30    20    15   ar
    31     8     4    1
    32    26    27    1
    33     9    10    1
    34    22    23    1
@<TRIPOS>MOLECULE
*****
 31 34 0 0 0
SMALL
GASTEIGER

@<TRIPOS>ATOM
      1 C          -8.5679  -16.4760   23.8477 C.ar    1  UNL1        0.0957
      2 C          -8.3284  -15.1629   24.5319 C.ar    1  UNL1        0.1191
      3 N          -6.9308  -14.6394   24.6824 N.ar    1  UNL1       -0.2223
      4 C          -5.7726  -15.4291   24.1487 C.ar    1  UNL1        0.1784
      5 N          -4.2952  -15.1695   24.1497 N.ar    1  UNL1       -0.2236
      6 C          -3.6215  -16.3222   23.4661 C.ar    1  UNL1        0.1066
      7 C          -4.6826  -17.2943   23.0426 C.ar    1  UNL1        0.0910
      8 C          -6.0120  -16.7423   23.4645 C.ar    1  UNL1        0.0988
      9 N          -7.4096  -17.2658   23.3140 N.ar    1  UNL1       -0.3481
     10 H          -7.5667  -18.1277   22.8649 H       1  UNL1        0.1661
     11 C         -13.1652  -18.8764   24.8391 C.3     1  UNL1        0.1537
     12 N         -12.0786  -18.1028   24.1529 N.ar    1  UNL1       -0.2488
     13 N         -10.7262  -17.7890   24.7209 N.ar    1  UNL1       -0.1677
     14 C          -9.9655  -16.9995   23.6972 C.ar    1  UNL1        0.1193
     15 C         -10.8477  -16.8253   22.4966 C.ar    1  UNL1        0.0379
     16 C         -10.6305  -16.1339   21.1834 C.ar    1  UNL1        0.0012
     17 C         -11.7193  -16.1244   20.1517 C.ar    1  UNL1        0.0071
     18 C         -13.0253  -16.8063   20.4334 C.ar    1  UNL1       -0.0003
     19 C         -13.2425  -17.4977   21.7466 C.ar    1  UNL1        0.0185
     20 C         -12.1537  -17.5072   22.7783 C.ar    1  UNL1        0.0794
     21 C         -11.5021  -15.4329   18.8384 C.3     1  UNL1        0.1636
     22 O         -10.3563  -14.4791   18.6734 O.3     1  UNL1       -0.3772
     23 H         -10.4945  -13.7061   19.2429 H       1  UNL1        0.2109
     24 C          -4.4543  -18.5908   22.3235 C.2     1  UNL1        0.2488
     25 O          -3.7593  -19.7227   23.0204 O.2     1  UNL1       -0.2700
     26 N          -4.9209  -18.7553   20.9074 N.am    1  UNL1       -0.3039
     27 H          -5.3770  -18.0123   20.4500 H       1  UNL1        0.1496
     28 C          -4.6926  -20.0517   20.1884 C.3     1  UNL1        0.0572
     29 C          -3.3920  -19.5274   19.6560 C.3     1  UNL1        0.0196
     30 C          -5.9932  -20.5761   20.7208 C.3     1  UNL1        0.0196
     31 C          -4.4642  -21.3482   19.4693 C.3     1  UNL1        0.0196
@<TRIPOS>BOND
     1    11    12    1
     2    12    13   ar
     3    13    14   ar
     4    14     1    1
     5     1     2   ar
     6     2     3   ar
     7     3     4   ar
     8     4     5   ar
     9     5     6   ar
    10     6     7   ar
    11     7    24    1
    12    24    25    2
    13    24    26   am
    14    26    28    1
    15    28    29    1
    16    28    30    1
    17    28    31    1
    18     7     8   ar
    19     8     9   ar
    20    14    15   ar
    21    15    16   ar
    22    16    17   ar
    23    17    21    1
    24    21    22    1
    25    17    18   ar
    26    18    19   ar
    27    19    20   ar
    28    20    12   ar
    29     9     1   ar
    30    20    15   ar
    31     8     4    1
    32    26    27    1
    33     9    10    1
    34    22    23    1
@<TRIPOS>MOLECULE
*****
 31 34 0 0 0
SMALL
GASTEIGER

@<TRIPOS>ATOM
      1 C          -9.5674  -16.7534   23.1379 C.ar    1  UNL1        0.0957
      2 C         -10.9884  -16.3316   22.9089 C.ar    1  UNL1        0.1191
      3 N         -11.7424  -16.8497   21.7202 N.ar    1  UNL1       -0.2223
      4 C         -11.0754  -17.7898   20.7604 C.ar    1  UNL1        0.1784
      5 N         -11.5622  -18.4601   19.5100 N.ar    1  UNL1       -0.2236
      6 C         -10.4420  -19.2963   18.9660 C.ar    1  UNL1        0.1066
      7 C          -9.2628  -19.1428   19.8804 C.ar    1  UNL1        0.0910
      8 C          -9.6542  -18.2117   20.9893 C.ar    1  UNL1        0.0988
      9 N          -8.9002  -17.6936   22.1780 N.ar    1  UNL1       -0.3481
     10 H          -7.9675  -17.9705   22.3283 H       1  UNL1        0.1661
     11 C          -8.4532  -14.7218   27.8826 C.3     1  UNL1        0.1537
     12 N          -8.3013  -15.3015   26.5074 N.ar    1  UNL1       -0.2488
     13 N          -9.4190  -15.7099   25.5943 N.ar    1  UNL1       -0.1677
     14 C          -8.8134  -16.2353   24.3266 C.ar    1  UNL1        0.1193
     15 C          -7.3213  -16.1517   24.4562 C.ar    1  UNL1        0.0379
     16 C          -6.2100  -16.5264   23.5211 C.ar    1  UNL1        0.0012
     17 C          -4.7822  -16.3241   23.9338 C.ar    1  UNL1        0.0071
     18 C          -4.4657  -15.7470   25.2817 C.ar    1  UNL1       -0.0003
     19 C          -5.5770  -15.3722   26.2168 C.ar    1  UNL1        0.0185
     20 C          -7.0048  -15.5745   25.8041 C.ar    1  UNL1        0.0794
     21 C          -3.6708  -16.6989   22.9987 C.3     1  UNL1        0.1636
     22 O          -3.1101  -15.6784   22.0531 O.3     1  UNL1       -0.3772
     23 H          -3.7890  -15.4290   21.4067 H       1  UNL1        0.2109
     24 C          -7.9267  -19.8042   19.7147 C.2     1  UNL1        0.2488
     25 O          -7.7792  -20.9753   18.7891 O.2     1  UNL1       -0.2700
     26 N          -6.7381  -19.2946   20.4747 N.am    1  UNL1       -0.3039
     27 H          -6.8349  -18.5260   21.0822 H       1  UNL1        0.1496
     28 C          -5.4021  -19.9561   20.3090 C.3     1  UNL1        0.0572
     29 C          -4.9296  -18.7953   19.4849 C.3     1  UNL1        0.0196
     30 C          -5.8747  -21.1169   21.1332 C.3     1  UNL1        0.0196
     31 C          -4.0660  -20.6175   20.1433 C.3     1  UNL1        0.0196
@<TRIPOS>BOND
     1    11    12    1
     2    12    13   ar
     3    13    14   ar
     4    14     1    1
     5     1     2   ar
     6     2     3   ar
     7     3     4   ar
     8     4     5   ar
     9     5     6   ar
    10     6     7   ar
    11     7    24    1
    12    24    25    2
    13    24    26   am
    14    26    28    1
    15    28    29    1
    16    28    30    1
    17    28    31    1
    18     7     8   ar
    19     8     9   ar
    20    14    15   ar
    21    15    16   ar
    22    16    17   ar
    23    17    21    1
    24    21    22    1
    25    17    18   ar
    26    18    19   ar
    27    19    20   ar
    28    20    12   ar
    29     9     1   ar
    30    20    15   ar
    31     8     4    1
    32    26    27    1
    33     9    10    1
    34    22    23    1
@<TRIPOS>MOLECULE
*****
 31 34 0 0 0
SMALL
GASTEIGER

@<TRIPOS>ATOM
      1 C         -16.1620   -3.5741   19.2436 C.ar    1  UNL1        0.0957
      2 C         -17.1440   -2.4922   19.5827 C.ar    1  UNL1        0.1191
      3 N         -16.7397   -1.0517   19.4755 N.ar    1  UNL1       -0.2223
      4 C         -15.3533   -0.6930   19.0291 C.ar    1  UNL1        0.1784
      5 N         -14.6736    0.6291   18.8298 N.ar    1  UNL1       -0.2236
      6 C         -13.2714    0.3645   18.3676 C.ar    1  UNL1        0.1066
      7 C         -13.0845   -1.1213   18.2811 C.ar    1  UNL1        0.0910
      8 C         -14.3712   -1.7749   18.6899 C.ar    1  UNL1        0.0988
      9 N         -14.7755   -3.2154   18.7972 N.ar    1  UNL1       -0.3481
     10 H         -14.1309   -3.9255   18.5746 H       1  UNL1        0.1661
     11 C         -18.9729   -7.9447   20.1801 C.3     1  UNL1        0.1537
     12 N         -17.8583   -7.0235   19.7813 N.ar    1  UNL1       -0.2488
     13 N         -17.8879   -5.5251   19.8434 N.ar    1  UNL1       -0.1677
     14 C         -16.5663   -5.0146   19.3508 C.ar    1  UNL1        0.1193
     15 C         -15.7198   -6.1975   18.9844 C.ar    1  UNL1        0.0379
     16 C         -14.3251   -6.3044   18.4428 C.ar    1  UNL1        0.0012
     17 C         -13.7290   -7.6530   18.1673 C.ar    1  UNL1        0.0071
     18 C         -14.5275   -8.8946   18.4333 C.ar    1  UNL1       -0.0003
     19 C         -15.9222   -8.7876   18.9749 C.ar    1  UNL1        0.0185
     20 C         -16.5184   -7.4391   19.2504 C.ar    1  UNL1        0.0794
     21 C         -12.3342   -7.7600   17.6257 C.3     1  UNL1        0.1636
     22 O         -11.1590   -7.6180   18.5469 O.3     1  UNL1       -0.3772
     23 H         -11.1288   -6.7132   18.8954 H       1  UNL1        0.2109
     24 C         -11.8309   -1.8293   17.8597 C.2     1  UNL1        0.2488
     25 O         -10.6284   -1.0380   17.4380 O.2     1  UNL1       -0.2700
     26 N         -11.7800   -3.3284   17.8601 N.am    1  UNL1       -0.3039
     27 H         -12.5692   -3.8477   18.1368 H       1  UNL1        0.1496
     28 C         -10.5265   -4.0362   17.4387 C.3     1  UNL1        0.0572
     29 C         -10.9937   -4.0154   16.0136 C.3     1  UNL1        0.0196
     30 C         -10.0591   -4.0571   18.8640 C.3     1  UNL1        0.0196
     31 C          -9.2729   -4.7441   17.0173 C.3     1  UNL1        0.0196
@<TRIPOS>BOND
     1    11    12    1
     2    12    13   ar
     3    13    14   ar
     4    14     1    1
     5     1     2   ar
     6     2     3   ar
     7     3     4   ar
     8     4     5   ar
     9     5     6   ar
    10     6     7   ar
    11     7    24    1
    12    24    25    2
    13    24    26   am
    14    26    28    1
    15    28    29    1
    16    28    30    1
    17    28    31    1
    18     7     8   ar
    19     8     9   ar
    20    14    15   ar
    21    15    16   ar
    22    16    17   ar
    23    17    21    1
    24    21    22    1
    25    17    18   ar
    26    18    19   ar
    27    19    20   ar
    28    20    12   ar
    29     9     1   ar
    30    20    15   ar
    31     8     4    1
    32    26    27    1
    33     9    10    1
    34    22    23    1
@<TRIPOS>MOLECULE
*****
 31 34 0 0 0
SMALL
GASTEIGER

@<TRIPOS>ATOM
      1 C           5.8528   -3.5522   23.8230 C.ar    1  UNL1        0.0957
      2 C           6.6604   -4.1459   22.7071 C.ar    1  UNL1        0.1191
      3 N           7.7182   -5.1661   23.0073 N.ar    1  UNL1       -0.2223
      4 C           7.9685   -5.5927   24.4234 C.ar    1  UNL1        0.1784
      5 N           8.9363   -6.5705   25.0209 N.ar    1  UNL1       -0.2236
      6 C           8.7269   -6.5813   26.5062 C.ar    1  UNL1        0.1066
      7 C           7.6297   -5.6100   26.8266 C.ar    1  UNL1        0.0910
      8 C           7.1610   -4.9990   25.5393 C.ar    1  UNL1        0.0988
      9 N           6.1031   -3.9788   25.2392 N.ar    1  UNL1       -0.3481
     10 H           5.5731   -3.5891   25.9716 H       1  UNL1        0.1661
     11 C           2.2379    0.2529   24.4008 C.3     1  UNL1        0.1537
     12 N           3.1334   -0.7830   23.7884 N.ar    1  UNL1       -0.2488
     13 N           4.1186   -1.6426   24.5236 N.ar    1  UNL1       -0.1677
     14 C           4.7950   -2.5319   23.5228 C.ar    1  UNL1        0.1193
     15 C           4.2278   -2.2220   22.1692 C.ar    1  UNL1        0.0379
     16 C           4.5139   -2.7844   20.8084 C.ar    1  UNL1        0.0012
     17 C           3.7729   -2.2658   19.6117 C.ar    1  UNL1        0.0071
     18 C           2.7460   -1.1848   19.7759 C.ar    1  UNL1       -0.0003
     19 C           2.4600   -0.6225   21.1367 C.ar    1  UNL1        0.0185
     20 C           3.2009   -1.1410   22.3334 C.ar    1  UNL1        0.0794
     21 C           4.0589   -2.8282   18.2508 C.3     1  UNL1        0.1636
     22 O           4.2639   -1.9056   17.0860 O.3     1  UNL1       -0.3772
     23 H           3.4370   -1.4351   16.8967 H       1  UNL1        0.2109
     24 C           7.0950   -5.3035   28.1942 C.2     1  UNL1        0.2488
     25 O           5.6414   -5.5173   28.4964 O.2     1  UNL1       -0.2700
     26 N           8.0139   -4.7832   29.2595 N.am    1  UNL1       -0.3039
     27 H           8.9680   -4.6429   29.0611 H       1  UNL1        0.1496
     28 C           7.4792   -4.4768   30.6270 C.3     1  UNL1        0.0572
     29 C           7.2106   -3.0627   30.2050 C.3     1  UNL1        0.0196
     30 C           7.7479   -5.8909   31.0490 C.3     1  UNL1        0.0196
     31 C           6.9445   -4.1702   31.9945 C.3     1  UNL1        0.0196
@<TRIPOS>BOND
     1    11    12    1
     2    12    13   ar
     3    13    14   ar
     4    14     1    1
     5     1     2   ar
     6     2     3   ar
     7     3     4   ar
     8     4     5   ar
     9     5     6   ar
    10     6     7   ar
    11     7    24    1
    12    24    25    2
    13    24    26   am
    14    26    28    1
    15    28    29    1
    16    28    30    1
    17    28    31    1
    18     7     8   ar
    19     8     9   ar
    20    14    15   ar
    21    15    16   ar
    22    16    17   ar
    23    17    21    1
    24    21    22    1
    25    17    18   ar
    26    18    19   ar
    27    19    20   ar
    28    20    12   ar
    29     9     1   ar
    30    20    15   ar
    31     8     4    1
    32    26    27    1
    33     9    10    1
    34    22    23    1
@<TRIPOS>MOLECULE
*****
 31 34 0 0 0
SMALL
GASTEIGER

@<TRIPOS>ATOM
      1 C           0.8510    1.6242   20.8765 C.ar    1  UNL1        0.0957
      2 C           1.4016    1.9372   19.5169 C.ar    1  UNL1        0.1191
      3 N           0.5920    2.7469   18.5479 N.ar    1  UNL1       -0.2223
      4 C          -0.7684    3.2435   18.9385 C.ar    1  UNL1        0.1784
      5 N          -1.7898    4.0575   18.2008 N.ar    1  UNL1       -0.2236
      6 C          -2.9718    4.2476   19.1045 C.ar    1  UNL1        0.1066
      7 C          -2.6809    3.5511   20.4008 C.ar    1  UNL1        0.0910
      8 C          -1.3192    2.9305   20.2982 C.ar    1  UNL1        0.0988
      9 N          -0.5095    2.1209   21.2672 N.ar    1  UNL1       -0.3481
     10 H          -0.8710    1.9155   22.1596 H       1  UNL1        0.1661
     11 C           3.1044   -0.0935   25.3321 C.3     1  UNL1        0.1537
     12 N           2.6964    0.0251   23.8935 N.ar    1  UNL1       -0.2488
     13 N           1.7965    1.0771   23.3161 N.ar    1  UNL1       -0.1677
     14 C           1.6606    0.8146   21.8455 C.ar    1  UNL1        0.1193
     15 C           2.4765   -0.3997   21.5140 C.ar    1  UNL1        0.0379
     16 C           2.7192   -1.1241   20.2232 C.ar    1  UNL1        0.0012
     17 C           3.6020   -2.3364   20.1981 C.ar    1  UNL1        0.0071
     18 C           4.2422   -2.8244   21.4639 C.ar    1  UNL1       -0.0003
     19 C           3.9995   -2.1000   22.7547 C.ar    1  UNL1        0.0185
     20 C           3.1166   -0.8876   22.7798 C.ar    1  UNL1        0.0794
     21 C           3.8448   -3.0609   18.9072 C.3     1  UNL1        0.1636
     22 O           3.2456   -4.4179   18.6847 O.3     1  UNL1       -0.3772
     23 H           3.6415   -5.0516   19.3033 H       1  UNL1        0.2109
     24 C          -3.5919    3.4865   21.5907 C.2     1  UNL1        0.2488
     25 O          -4.7006    2.4769   21.6326 O.2     1  UNL1       -0.2700
     26 N          -3.3943    4.4314   22.7388 N.am    1  UNL1       -0.3039
     27 H          -2.6667    5.0940   22.7113 H       1  UNL1        0.1496
     28 C          -4.3053    4.3667   23.9286 C.3     1  UNL1        0.0572
     29 C          -3.3419    3.4453   24.6162 C.3     1  UNL1        0.0196
     30 C          -5.2688    5.2882   23.2411 C.3     1  UNL1        0.0196
     31 C          -5.2163    4.3021   25.1186 C.3     1  UNL1        0.0196
@<TRIPOS>BOND
     1    11    12    1
     2    12    13   ar
     3    13    14   ar
     4    14     1    1
     5     1     2   ar
     6     2     3   ar
     7     3     4   ar
     8     4     5   ar
     9     5     6   ar
    10     6     7   ar
    11     7    24    1
    12    24    25    2
    13    24    26   am
    14    26    28    1
    15    28    29    1
    16    28    30    1
    17    28    31    1
    18     7     8   ar
    19     8     9   ar
    20    14    15   ar
    21    15    16   ar
    22    16    17   ar
    23    17    21    1
    24    21    22    1
    25    17    18   ar
    26    18    19   ar
    27    19    20   ar
    28    20    12   ar
    29     9     1   ar
    30    20    15   ar
    31     8     4    1
    32    26    27    1
    33     9    10    1
    34    22    23    1
