@<TRIPOS>MOLECULE
*****
 37 40 0 0 0
SMALL
GASTEIGER

@<TRIPOS>ATOM
      1 N          -4.9071  -20.2676   20.4449 N.am    1  UNL1       -0.2683
      2 C          -4.0863  -19.2240   19.7470 C.2     1  UNL1        0.3045
      3 O          -4.7591  -18.0513   19.0972 O.2     1  UNL1       -0.2525
      4 N          -2.5926  -19.3530   19.6989 N.am    1  UNL1       -0.2887
      5 H          -4.4655  -21.0373   20.8713 H       1  UNL1        0.1564
      6 H          -2.1510  -20.1226   20.1254 H       1  UNL1        0.1510
      7 C          -8.6999  -20.1462   19.2829 C.ar    1  UNL1       -0.0209
      8 C          -7.2063  -20.2752   19.2349 C.ar    1  UNL1        0.0104
      9 C          -6.4008  -20.1386   20.4929 C.ar    1  UNL1        0.0514
     10 C          -7.0890  -19.8729   21.7990 C.ar    1  UNL1        0.0178
     11 C          -8.5827  -19.7438   21.8470 C.ar    1  UNL1        0.0383
     12 C          -9.3881  -19.8805   20.5890 C.ar    1  UNL1       -0.0011
     13 C          -9.2709  -19.4781   23.1530 C.ar    1  UNL1        0.1839
     14 N          -9.2845  -20.3899   24.3440 N.ar    1  UNL1       -0.1081
     15 N         -10.0884  -19.7294   25.4245 N.ar    1  UNL1       -0.0227
     16 N         -10.5717  -18.4092   24.9012 N.ar    1  UNL1       -0.0429
     17 N         -10.0665  -18.2540   23.4974 N.ar    1  UNL1       -0.2113
     18 C         -10.3135  -17.0806   22.5962 C.3     1  UNL1        0.1573
     19 C          -9.2094  -21.3941   17.0619 C.3     1  UNL1        0.0050
     20 C          -9.5054  -20.2828   18.0249 C.3     1  UNL1        0.0264
     21 C          -1.7718  -18.3094   19.0010 C.3     1  UNL1        0.0924
     22 C          -0.6274  -17.6537   19.7156 C.3     1  UNL1        0.0386
     23 C          -0.8944  -16.6953   20.8382 C.3     1  UNL1        0.0738
     24 N          -1.9911  -16.9787   21.8214 N.3     1  UNL1       -0.2726
     25 C          -2.1017  -18.3357   22.4510 C.3     1  UNL1        0.0721
     26 C          -3.1985  -18.6191   23.4343 C.3     1  UNL1        0.0174
     27 C          -4.1846  -17.5456   23.7880 C.3     1  UNL1        0.0031
     28 C          -4.0740  -16.1886   23.1584 C.3     1  UNL1        0.0204
     29 C          -2.9772  -15.9052   22.1751 C.3     1  UNL1        0.0724
     30 C          -5.0601  -15.1151   23.5120 C.3     1  UNL1        0.0277
     31 C          -6.0057  -15.3137   24.6593 C.ar    1  UNL1       -0.0220
     32 C          -5.4906  -15.2930   26.0679 C.ar    1  UNL1       -0.0020
     33 C          -6.4362  -15.4917   27.2153 C.ar    1  UNL1        0.0293
     34 C          -7.8969  -15.7110   26.9540 C.ar    1  UNL1        0.1401
     35 F          -8.8425  -15.9096   28.1014 F       1  UNL1       -0.2042
     36 C          -8.4120  -15.7317   25.5454 C.ar    1  UNL1        0.0293
     37 C          -7.4664  -15.5331   24.3981 C.ar    1  UNL1       -0.0020
@<TRIPOS>BOND
     1    19    20    1
     2    20     7    1
     3     7     8   ar
     4     8     9   ar
     5     9     1    1
     6     1     2   am
     7     2     3    2
     8     2     4   am
     9     4    21    1
    10    21    22    1
    11    22    23    1
    12    23    24    1
    13    24    25    1
    14    25    26    1
    15    26    27    1
    16    27    28    1
    17    28    30    1
    18    30    31    1
    19    31    32   ar
    20    32    33   ar
    21    33    34   ar
    22    34    35    1
    23    34    36   ar
    24    36    37   ar
    25    28    29    1
    26     9    10   ar
    27    10    11   ar
    28    11    13    1
    29    13    14   ar
    30    14    15   ar
    31    15    16   ar
    32    16    17   ar
    33    17    18    1
    34    11    12   ar
    35    12     7   ar
    36    29    24    1
    37    17    13   ar
    38    37    31   ar
    39     1     5    1
    40     4     6    1
@<TRIPOS>MOLECULE
*****
 37 40 0 0 0
SMALL
GASTEIGER

@<TRIPOS>ATOM
      1 N          -6.9726  -19.9394   20.5429 N.am    1  UNL1       -0.2683
      2 C          -8.3026  -19.2613   20.3975 C.2     1  UNL1        0.3045
      3 O          -8.4716  -17.8385   20.8417 O.2     1  UNL1       -0.2525
      4 N          -9.4637  -20.0059   19.8079 N.am    1  UNL1       -0.2887
      5 H          -6.8617  -20.8732   20.2513 H       1  UNL1        0.1564
      6 H          -9.3527  -20.9397   19.5164 H       1  UNL1        0.1510
      7 C          -4.7951  -17.7639   23.0480 C.ar    1  UNL1       -0.0209
      8 C          -5.9560  -18.5086   22.4584 C.ar    1  UNL1        0.0104
      9 C          -5.8115  -19.1948   21.1324 C.ar    1  UNL1        0.0514
     10 C          -4.5061  -19.1363   20.3961 C.ar    1  UNL1        0.0178
     11 C          -3.3451  -18.3917   20.9856 C.ar    1  UNL1        0.0383
     12 C          -3.4896  -17.7055   22.3116 C.ar    1  UNL1       -0.0011
     13 C          -2.0396  -18.3333   20.2492 C.ar    1  UNL1        0.1839
     14 N          -0.7409  -18.9271   20.7085 N.ar    1  UNL1       -0.1081
     15 N           0.2978  -18.6316   19.6675 N.ar    1  UNL1       -0.0227
     16 N          -0.3590  -17.8551   18.5648 N.ar    1  UNL1       -0.0429
     17 N          -1.8035  -17.6707   18.9244 N.ar    1  UNL1       -0.2113
     18 C          -2.8314  -16.9503   18.1032 C.3     1  UNL1        0.1573
     19 C          -4.7281  -15.5965   24.4789 C.3     1  UNL1        0.0050
     20 C          -4.9396  -17.0777   24.3740 C.3     1  UNL1        0.0264
     21 C         -10.7937  -19.3278   19.6625 C.3     1  UNL1        0.0924
     22 C         -10.8604  -17.8427   19.4621 C.3     1  UNL1        0.0386
     23 C         -11.7214  -17.0028   20.3584 C.3     1  UNL1        0.0738
     24 N         -12.0403  -17.4721   21.7469 N.3     1  UNL1       -0.2726
     25 C         -13.4690  -17.6021   22.1851 C.3     1  UNL1        0.0721
     26 C         -13.7879  -18.0714   23.5736 C.3     1  UNL1        0.0174
     27 C         -12.6780  -18.4107   24.5240 C.3     1  UNL1        0.0031
     28 C         -11.2494  -18.2807   24.0859 C.3     1  UNL1        0.0204
     29 C         -10.9305  -17.8114   22.6973 C.3     1  UNL1        0.0724
     30 C         -10.1396  -18.6200   25.0362 C.3     1  UNL1        0.0277
     31 C          -9.3118  -17.5265   25.6436 C.ar    1  UNL1       -0.0220
     32 C          -8.8139  -16.3994   24.7881 C.ar    1  UNL1       -0.0020
     33 C          -7.9860  -15.3059   25.3955 C.ar    1  UNL1        0.0293
     34 C          -7.6561  -15.3394   26.8584 C.ar    1  UNL1        0.1401
     35 F          -6.8283  -14.2459   27.4658 F       1  UNL1       -0.2042
     36 C          -8.1540  -16.4665   27.7139 C.ar    1  UNL1        0.0293
     37 C          -8.9818  -17.5600   27.1065 C.ar    1  UNL1       -0.0020
@<TRIPOS>BOND
     1    19    20    1
     2    20     7    1
     3     7     8   ar
     4     8     9   ar
     5     9     1    1
     6     1     2   am
     7     2     3    2
     8     2     4   am
     9     4    21    1
    10    21    22    1
    11    22    23    1
    12    23    24    1
    13    24    25    1
    14    25    26    1
    15    26    27    1
    16    27    28    1
    17    28    30    1
    18    30    31    1
    19    31    32   ar
    20    32    33   ar
    21    33    34   ar
    22    34    35    1
    23    34    36   ar
    24    36    37   ar
    25    28    29    1
    26     9    10   ar
    27    10    11   ar
    28    11    13    1
    29    13    14   ar
    30    14    15   ar
    31    15    16   ar
    32    16    17   ar
    33    17    18    1
    34    11    12   ar
    35    12     7   ar
    36    29    24    1
    37    17    13   ar
    38    37    31   ar
    39     1     5    1
    40     4     6    1
@<TRIPOS>MOLECULE
*****
 37 40 0 0 0
SMALL
GASTEIGER

@<TRIPOS>ATOM
      1 N         -11.5985   -1.6762   19.2387 N.am    1  UNL1       -0.2683
      2 C         -11.1863   -2.9477   18.5582 C.2     1  UNL1        0.3045
      3 O         -12.0278   -3.5137   17.4528 O.2     1  UNL1       -0.2525
      4 N          -9.9326   -3.6533   18.9828 N.am    1  UNL1       -0.2887
      5 H         -11.0463   -1.3047   19.9642 H       1  UNL1        0.1564
      6 H          -9.3803   -3.2818   19.7083 H       1  UNL1        0.1510
      7 C         -14.0246    0.9325   17.4896 C.ar    1  UNL1       -0.0209
      8 C         -12.7709    0.2269   17.9143 C.ar    1  UNL1        0.0104
      9 C         -12.8523   -0.9706   18.8140 C.ar    1  UNL1        0.0514
     10 C         -14.1874   -1.4625   19.2889 C.ar    1  UNL1        0.0178
     11 C         -15.4410   -0.7569   18.8641 C.ar    1  UNL1        0.0383
     12 C         -15.3596    0.4406   17.9645 C.ar    1  UNL1       -0.0011
     13 C         -16.7762   -1.2488   19.3391 C.ar    1  UNL1        0.1839
     14 N         -17.5844   -0.6628   20.4586 N.ar    1  UNL1       -0.1081
     15 N         -18.8452   -1.4648   20.5893 N.ar    1  UNL1       -0.0227
     16 N         -18.8162   -2.5466   19.5505 N.ar    1  UNL1       -0.0429
     17 N         -17.5374   -2.4131   18.7779 N.ar    1  UNL1       -0.2113
     18 C         -17.0973   -3.2899   17.6432 C.3     1  UNL1        0.1573
     19 C         -14.1798    3.5030   17.1456 C.3     1  UNL1        0.0050
     20 C         -13.9432    2.1300   16.5899 C.3     1  UNL1        0.0264
     21 C          -9.5204   -4.9249   18.3023 C.3     1  UNL1        0.0924
     22 C          -9.4893   -6.2117   19.0724 C.3     1  UNL1        0.0386
     23 C         -10.2656   -7.3980   18.5823 C.3     1  UNL1        0.0738
     24 N         -11.6488   -7.2139   18.0321 N.3     1  UNL1       -0.2726
     25 C         -11.9230   -7.4917   16.5837 C.3     1  UNL1        0.0721
     26 C         -13.3062   -7.3076   16.0335 C.3     1  UNL1        0.0174
     27 C         -14.4153   -6.8457   16.9316 C.3     1  UNL1        0.0031
     28 C         -14.1411   -6.5679   18.3800 C.3     1  UNL1        0.0204
     29 C         -12.7578   -6.7520   18.9302 C.3     1  UNL1        0.0724
     30 C         -15.2502   -6.1060   19.2781 C.3     1  UNL1        0.0277
     31 C         -16.4551   -6.9740   19.4891 C.ar    1  UNL1       -0.0220
     32 C         -17.8259   -6.3651   19.4978 C.ar    1  UNL1       -0.0020
     33 C         -19.0309   -7.2332   19.7088 C.ar    1  UNL1        0.0293
     34 C         -18.8650   -8.7102   19.9112 C.ar    1  UNL1        0.1401
     35 F         -20.0700   -9.5783   20.1223 F       1  UNL1       -0.2042
     36 C         -17.4942   -9.3191   19.9025 C.ar    1  UNL1        0.0293
     37 C         -16.2893   -8.4511   19.6915 C.ar    1  UNL1       -0.0020
@<TRIPOS>BOND
     1    19    20    1
     2    20     7    1
     3     7     8   ar
     4     8     9   ar
     5     9     1    1
     6     1     2   am
     7     2     3    2
     8     2     4   am
     9     4    21    1
    10    21    22    1
    11    22    23    1
    12    23    24    1
    13    24    25    1
    14    25    26    1
    15    26    27    1
    16    27    28    1
    17    28    30    1
    18    30    31    1
    19    31    32   ar
    20    32    33   ar
    21    33    34   ar
    22    34    35    1
    23    34    36   ar
    24    36    37   ar
    25    28    29    1
    26     9    10   ar
    27    10    11   ar
    28    11    13    1
    29    13    14   ar
    30    14    15   ar
    31    15    16   ar
    32    16    17   ar
    33    17    18    1
    34    11    12   ar
    35    12     7   ar
    36    29    24    1
    37    17    13   ar
    38    37    31   ar
    39     1     5    1
    40     4     6    1
@<TRIPOS>MOLECULE
*****
 37 40 0 0 0
SMALL
GASTEIGER

@<TRIPOS>ATOM
      1 N          -4.0403  -17.6812   24.5143 N.am    1  UNL1       -0.2683
      2 C          -4.9827  -16.5436   24.7748 C.2     1  UNL1        0.3045
      3 O          -5.8863  -16.0530   23.6825 O.2     1  UNL1       -0.2525
      4 N          -5.0214  -15.8965   26.1274 N.am    1  UNL1       -0.2887
      5 H          -3.4473  -18.0031   25.2311 H       1  UNL1        0.1564
      6 H          -4.4284  -16.2185   26.8443 H       1  UNL1        0.1510
      7 C          -5.0550  -19.9172   21.3965 C.ar    1  UNL1       -0.0209
      8 C          -5.0937  -19.2702   22.7491 C.ar    1  UNL1        0.0104
      9 C          -4.0016  -18.3282   23.1615 C.ar    1  UNL1        0.0514
     10 C          -2.8708  -18.0333   22.2211 C.ar    1  UNL1        0.0178
     11 C          -2.8321  -18.6804   20.8685 C.ar    1  UNL1        0.0383
     12 C          -3.9242  -19.6223   20.4561 C.ar    1  UNL1       -0.0011
     13 C          -1.7013  -18.3855   19.9280 C.ar    1  UNL1        0.1839
     14 N          -0.2628  -18.7570   20.1350 N.ar    1  UNL1       -0.1081
     15 N           0.5171  -18.2685   18.9505 N.ar    1  UNL1       -0.0227
     16 N          -0.4394  -17.5950   18.0115 N.ar    1  UNL1       -0.0429
     17 N          -1.8104  -17.6674   18.6157 N.ar    1  UNL1       -0.2113
     18 C          -3.0694  -17.1180   18.0132 C.3     1  UNL1        0.1573
     19 C          -6.0023  -21.6737   19.7330 C.3     1  UNL1        0.0050
     20 C          -6.1472  -20.8592   20.9841 C.3     1  UNL1        0.0264
     21 C          -5.9638  -14.7589   26.3880 C.3     1  UNL1        0.0924
     22 C          -6.8791  -14.8003   27.5756 C.3     1  UNL1        0.0386
     23 C          -8.3519  -15.0075   27.3806 C.3     1  UNL1        0.0738
     24 N          -8.8418  -16.0256   26.3939 N.3     1  UNL1       -0.2726
     25 C          -9.0999  -17.4354   26.8365 C.3     1  UNL1        0.0721
     26 C          -9.5898  -18.4534   25.8498 C.3     1  UNL1        0.0174
     27 C          -9.8216  -18.0617   24.4205 C.3     1  UNL1        0.0031
     28 C          -9.5635  -16.6519   23.9779 C.3     1  UNL1        0.0204
     29 C          -9.0736  -15.6338   24.9647 C.3     1  UNL1        0.0724
     30 C          -9.7953  -16.2601   22.5487 C.3     1  UNL1        0.0277
     31 C          -9.8261  -17.3108   21.4786 C.ar    1  UNL1       -0.0220
     32 C          -8.6194  -18.1674   21.2336 C.ar    1  UNL1       -0.0020
     33 C          -8.6503  -19.2182   20.1635 C.ar    1  UNL1        0.0293
     34 C          -9.8879  -19.4122   19.3384 C.ar    1  UNL1        0.1401
     35 F          -9.9187  -20.4629   18.2683 F       1  UNL1       -0.2042
     36 C         -11.0946  -18.5556   19.5835 C.ar    1  UNL1        0.0293
     37 C         -11.0637  -17.5049   20.6535 C.ar    1  UNL1       -0.0020
@<TRIPOS>BOND
     1    19    20    1
     2    20     7    1
     3     7     8   ar
     4     8     9   ar
     5     9     1    1
     6     1     2   am
     7     2     3    2
     8     2     4   am
     9     4    21    1
    10    21    22    1
    11    22    23    1
    12    23    24    1
    13    24    25    1
    14    25    26    1
    15    26    27    1
    16    27    28    1
    17    28    30    1
    18    30    31    1
    19    31    32   ar
    20    32    33   ar
    21    33    34   ar
    22    34    35    1
    23    34    36   ar
    24    36    37   ar
    25    28    29    1
    26     9    10   ar
    27    10    11   ar
    28    11    13    1
    29    13    14   ar
    30    14    15   ar
    31    15    16   ar
    32    16    17   ar
    33    17    18    1
    34    11    12   ar
    35    12     7   ar
    36    29    24    1
    37    17    13   ar
    38    37    31   ar
    39     1     5    1
    40     4     6    1
@<TRIPOS>MOLECULE
*****
 37 40 0 0 0
SMALL
GASTEIGER

@<TRIPOS>ATOM
      1 N           4.5122   -2.2383   24.2714 N.am    1  UNL1       -0.2683
      2 C           5.6340   -1.3690   24.7572 C.2     1  UNL1        0.3045
      3 O           6.1872   -0.2931   23.8703 O.2     1  UNL1       -0.2525
      4 N           6.2027   -1.5757   26.1297 N.am    1  UNL1       -0.2887
      5 H           4.1491   -2.9444   24.8534 H       1  UNL1        0.1564
      6 H           5.8397   -2.2819   26.7117 H       1  UNL1        0.1510
      7 C           3.7663   -2.7426   20.4063 C.ar    1  UNL1       -0.0209
      8 C           4.3349   -2.9493   21.7788 C.ar    1  UNL1        0.0104
      9 C           3.9435   -2.0315   22.8988 C.ar    1  UNL1        0.0514
     10 C           2.9835   -0.9070   22.6463 C.ar    1  UNL1        0.0178
     11 C           2.4149   -0.7003   21.2738 C.ar    1  UNL1        0.0383
     12 C           2.8063   -1.6181   20.1538 C.ar    1  UNL1       -0.0011
     13 C           1.4548    0.4242   21.0212 C.ar    1  UNL1        0.1839
     14 N          -0.0302    0.2949   20.8536 N.ar    1  UNL1       -0.1081
     15 N          -0.5916    1.6662   20.6207 N.ar    1  UNL1       -0.0227
     16 N           0.5464    2.6431   20.6443 N.ar    1  UNL1       -0.0429
     17 N           1.8112    1.8755   20.8918 N.ar    1  UNL1       -0.2113
     18 C           3.1901    2.4572   20.9923 C.3     1  UNL1        0.1573
     19 C           3.5635   -5.0351   19.2006 C.3     1  UNL1        0.0050
     20 C           4.1577   -3.6605   19.2863 C.3     1  UNL1        0.0264
     21 C           7.3246   -0.7065   26.6154 C.3     1  UNL1        0.0924
     22 C           8.7466   -1.1523   26.4448 C.3     1  UNL1        0.0386
     23 C           9.0488   -2.5812   26.1025 C.3     1  UNL1        0.0738
     24 N           8.5880   -3.1526   24.7945 N.3     1  UNL1       -0.2726
     25 C           7.7471   -4.3945   24.7732 C.3     1  UNL1        0.0721
     26 C           7.2863   -4.9660   23.4652 C.3     1  UNL1        0.0174
     27 C           7.6664   -4.2955   22.1783 C.3     1  UNL1        0.0031
     28 C           8.5073   -3.0536   22.1995 C.3     1  UNL1        0.0204
     29 C           8.9681   -2.4821   23.5077 C.3     1  UNL1        0.0724
     30 C           8.8874   -2.3831   20.9127 C.3     1  UNL1        0.0277
     31 C           7.8405   -1.6949   20.0879 C.ar    1  UNL1       -0.0220
     32 C           7.0557   -0.5567   20.6697 C.ar    1  UNL1       -0.0020
     33 C           6.0088    0.1315   19.8448 C.ar    1  UNL1        0.0293
     34 C           5.7468   -0.3186   18.4381 C.ar    1  UNL1        0.1401
     35 F           4.6999    0.3696   17.6131 F       1  UNL1       -0.2042
     36 C           6.5316   -1.4567   17.8562 C.ar    1  UNL1        0.0293
     37 C           7.5785   -2.1449   18.6811 C.ar    1  UNL1       -0.0020
@<TRIPOS>BOND
     1    19    20    1
     2    20     7    1
     3     7     8   ar
     4     8     9   ar
     5     9     1    1
     6     1     2   am
     7     2     3    2
     8     2     4   am
     9     4    21    1
    10    21    22    1
    11    22    23    1
    12    23    24    1
    13    24    25    1
    14    25    26    1
    15    26    27    1
    16    27    28    1
    17    28    30    1
    18    30    31    1
    19    31    32   ar
    20    32    33   ar
    21    33    34   ar
    22    34    35    1
    23    34    36   ar
    24    36    37   ar
    25    28    29    1
    26     9    10   ar
    27    10    11   ar
    28    11    13    1
    29    13    14   ar
    30    14    15   ar
    31    15    16   ar
    32    16    17   ar
    33    17    18    1
    34    11    12   ar
    35    12     7   ar
    36    29    24    1
    37    17    13   ar
    38    37    31   ar
    39     1     5    1
    40     4     6    1
@<TRIPOS>MOLECULE
*****
 37 40 0 0 0
SMALL
GASTEIGER

@<TRIPOS>ATOM
      1 N         -11.4478   -1.7077   19.2104 N.am    1  UNL1       -0.2683
      2 C         -11.0805   -2.9987   18.5409 C.2     1  UNL1        0.3045
      3 O         -11.9504   -3.5528   17.4516 O.2     1  UNL1       -0.2525
      4 N          -9.8433   -3.7357   18.9605 N.am    1  UNL1       -0.2887
      5 H         -10.8769   -1.3440   19.9253 H       1  UNL1        0.1564
      6 H          -9.2724   -3.3721   19.6754 H       1  UNL1        0.1510
      7 C         -13.8171    0.9426   17.4461 C.ar    1  UNL1       -0.0209
      8 C         -12.5800    0.2056   17.8658 C.ar    1  UNL1        0.0104
      9 C         -12.6851   -0.9707   18.7907 C.ar    1  UNL1        0.0514
     10 C         -14.0274   -1.4099   19.2958 C.ar    1  UNL1        0.0178
     11 C         -15.2646   -0.6729   18.8761 C.ar    1  UNL1        0.0383
     12 C         -15.1594    0.5033   17.9512 C.ar    1  UNL1       -0.0011
     13 C         -16.6070   -1.1122   19.3812 C.ar    1  UNL1        0.1839
     14 N         -17.3289   -2.3674   18.9894 N.ar    1  UNL1       -0.1081
     15 N         -18.6312   -2.4044   19.7328 N.ar    1  UNL1       -0.0227
     16 N         -18.7141   -1.1720   20.5840 N.ar    1  UNL1       -0.0429
     17 N         -17.4631   -0.3735   20.3667 N.ar    1  UNL1       -0.2113
     18 C         -17.1272    0.9342   21.0202 C.3     1  UNL1        0.1573
     19 C         -14.1396    3.4793   16.9864 C.3     1  UNL1        0.0050
     20 C         -13.7120    2.1189   16.5213 C.3     1  UNL1        0.0264
     21 C          -9.4760   -5.0268   18.2910 C.3     1  UNL1        0.0924
     22 C          -9.8341   -6.3337   18.9344 C.3     1  UNL1        0.0386
     23 C         -10.8910   -7.2055   18.3238 C.3     1  UNL1        0.0738
     24 N         -12.3384   -6.8359   18.4589 N.3     1  UNL1       -0.2726
     25 C         -12.7962   -6.0113   19.6252 C.3     1  UNL1        0.0721
     26 C         -14.2436   -5.6417   19.7603 C.3     1  UNL1        0.0174
     27 C         -15.2333   -6.0967   18.7290 C.3     1  UNL1        0.0031
     28 C         -14.7755   -6.9213   17.5627 C.3     1  UNL1        0.0204
     29 C         -13.3280   -7.2909   17.4276 C.3     1  UNL1        0.0724
     30 C         -15.7652   -7.3763   16.5314 C.3     1  UNL1        0.0277
     31 C         -16.8577   -8.3316   16.9105 C.ar    1  UNL1       -0.0220
     32 C         -16.5903   -9.4189   17.9086 C.ar    1  UNL1       -0.0020
     33 C         -17.6830  -10.3742   18.2877 C.ar    1  UNL1        0.0293
     34 C         -19.0429  -10.2422   17.6687 C.ar    1  UNL1        0.1401
     35 F         -20.1355  -11.1975   18.0478 F       1  UNL1       -0.2042
     36 C         -19.3102   -9.1548   16.6706 C.ar    1  UNL1        0.0293
     37 C         -18.2177   -8.1996   16.2915 C.ar    1  UNL1       -0.0020
@<TRIPOS>BOND
     1    19    20    1
     2    20     7    1
     3     7     8   ar
     4     8     9   ar
     5     9     1    1
     6     1     2   am
     7     2     3    2
     8     2     4   am
     9     4    21    1
    10    21    22    1
    11    22    23    1
    12    23    24    1
    13    24    25    1
    14    25    26    1
    15    26    27    1
    16    27    28    1
    17    28    30    1
    18    30    31    1
    19    31    32   ar
    20    32    33   ar
    21    33    34   ar
    22    34    35    1
    23    34    36   ar
    24    36    37   ar
    25    28    29    1
    26     9    10   ar
    27    10    11   ar
    28    11    13    1
    29    13    14   ar
    30    14    15   ar
    31    15    16   ar
    32    16    17   ar
    33    17    18    1
    34    11    12   ar
    35    12     7   ar
    36    29    24    1
    37    17    13   ar
    38    37    31   ar
    39     1     5    1
    40     4     6    1
@<TRIPOS>MOLECULE
*****
 37 40 0 0 0
SMALL
GASTEIGER

@<TRIPOS>ATOM
      1 N           5.0226   -3.4182   32.8359 N.am    1  UNL1       -0.2683
      2 C           6.3322   -3.6771   32.1518 C.2     1  UNL1        0.3045
      3 O           7.1678   -2.5275   31.6718 O.2     1  UNL1       -0.2525
      4 N           6.8062   -5.0855   31.9478 N.am    1  UNL1       -0.2887
      5 H           4.4742   -4.1727   33.1509 H       1  UNL1        0.1564
      6 H           6.2578   -5.8400   32.2629 H       1  UNL1        0.1510
      7 C           4.3477    0.1015   34.5406 C.ar    1  UNL1       -0.0209
      8 C           4.8217   -1.3069   34.3366 C.ar    1  UNL1        0.0104
      9 C           4.5486   -2.0097   33.0399 C.ar    1  UNL1        0.0514
     10 C           3.8014   -1.3042   31.9472 C.ar    1  UNL1        0.0178
     11 C           3.3275    0.1043   32.1512 C.ar    1  UNL1        0.0383
     12 C           3.6006    0.8071   33.4479 C.ar    1  UNL1       -0.0011
     13 C           2.5803    0.8099   31.0586 C.ar    1  UNL1        0.1839
     14 N           1.0964    1.0208   30.9991 N.ar    1  UNL1       -0.1081
     15 N           0.7848    1.7697   29.7373 N.ar    1  UNL1       -0.0227
     16 N           2.0762    2.0217   29.0170 N.ar    1  UNL1       -0.0429
     17 N           3.1858    1.4285   29.8336 N.ar    1  UNL1       -0.2113
     18 C           4.6449    1.4501   29.4861 C.3     1  UNL1        0.1573
     19 C           5.4940    0.1578   36.8714 C.3     1  UNL1        0.0050
     20 C           4.6208    0.8044   35.8373 C.3     1  UNL1        0.0264
     21 C           8.1158   -5.3444   31.2638 C.3     1  UNL1        0.0924
     22 C           8.1430   -6.0352   29.9325 C.3     1  UNL1        0.0386
     23 C           7.0495   -5.7867   28.9362 C.3     1  UNL1        0.0738
     24 N           7.3167   -5.9604   27.4705 N.3     1  UNL1       -0.2726
     25 C           7.5972   -7.3256   26.9159 C.3     1  UNL1        0.0721
     26 C           7.8644   -7.4993   25.4502 C.3     1  UNL1        0.0174
     27 C           7.8510   -6.3078   24.5390 C.3     1  UNL1        0.0031
     28 C           7.5706   -4.9426   25.0936 C.3     1  UNL1        0.0204
     29 C           7.3034   -4.7689   26.5594 C.3     1  UNL1        0.0724
     30 C           7.5572   -3.7511   24.1825 C.3     1  UNL1        0.0277
     31 C           6.6703   -3.7419   22.9728 C.ar    1  UNL1       -0.0220
     32 C           5.1972   -3.5037   23.1247 C.ar    1  UNL1       -0.0020
     33 C           4.3103   -3.4945   21.9150 C.ar    1  UNL1        0.0293
     34 C           4.8965   -3.7235   20.5535 C.ar    1  UNL1        0.1401
     35 F           4.0096   -3.7143   19.3437 F       1  UNL1       -0.2042
     36 C           6.3697   -3.9617   20.4016 C.ar    1  UNL1        0.0293
     37 C           7.2566   -3.9709   21.6112 C.ar    1  UNL1       -0.0020
@<TRIPOS>BOND
     1    19    20    1
     2    20     7    1
     3     7     8   ar
     4     8     9   ar
     5     9     1    1
     6     1     2   am
     7     2     3    2
     8     2     4   am
     9     4    21    1
    10    21    22    1
    11    22    23    1
    12    23    24    1
    13    24    25    1
    14    25    26    1
    15    26    27    1
    16    27    28    1
    17    28    30    1
    18    30    31    1
    19    31    32   ar
    20    32    33   ar
    21    33    34   ar
    22    34    35    1
    23    34    36   ar
    24    36    37   ar
    25    28    29    1
    26     9    10   ar
    27    10    11   ar
    28    11    13    1
    29    13    14   ar
    30    14    15   ar
    31    15    16   ar
    32    16    17   ar
    33    17    18    1
    34    11    12   ar
    35    12     7   ar
    36    29    24    1
    37    17    13   ar
    38    37    31   ar
    39     1     5    1
    40     4     6    1
@<TRIPOS>MOLECULE
*****
 37 40 0 0 0
SMALL
GASTEIGER

@<TRIPOS>ATOM
      1 N           4.6231   -2.3676   23.8553 N.am    1  UNL1       -0.2683
      2 C           5.6336   -3.4663   24.0030 C.2     1  UNL1        0.3045
      3 O           6.0322   -4.2840   22.8102 O.2     1  UNL1       -0.2525
      4 N           6.2456   -3.7473   25.3433 N.am    1  UNL1       -0.2887
      5 H           4.3616   -1.8309   24.6381 H       1  UNL1        0.1564
      6 H           5.9840   -3.2106   26.1261 H       1  UNL1        0.1510
      7 C           3.7723   -2.6455   19.9889 C.ar    1  UNL1       -0.0209
      8 C           4.3842   -2.9264   21.3293 C.ar    1  UNL1        0.0104
      9 C           4.0112   -2.0867   22.5149 C.ar    1  UNL1        0.0514
     10 C           3.0262   -0.9660   22.3602 C.ar    1  UNL1        0.0178
     11 C           2.4143   -0.6851   21.0198 C.ar    1  UNL1        0.0383
     12 C           2.7874   -1.5248   19.8342 C.ar    1  UNL1       -0.0011
     13 C           1.4293    0.4356   20.8650 C.ar    1  UNL1        0.1839
     14 N          -0.0577    0.2903   20.7317 N.ar    1  UNL1       -0.1081
     15 N          -0.6477    1.6631   20.6007 N.ar    1  UNL1       -0.0227
     16 N           0.4747    2.6569   20.6530 N.ar    1  UNL1       -0.0429
     17 N           1.7583    1.8982   20.8164 N.ar    1  UNL1       -0.2113
     18 C           3.1301    2.4971   20.9140 C.3     1  UNL1        0.1573
     19 C           4.3538   -4.9617   18.9658 C.3     1  UNL1        0.0050
     20 C           4.1454   -3.4852   18.8033 C.3     1  UNL1        0.0264
     21 C           7.2561   -4.8460   25.4910 C.3     1  UNL1        0.0924
     22 C           7.0114   -5.9648   26.4597 C.3     1  UNL1        0.0386
     23 C           6.1718   -5.7298   27.6803 C.3     1  UNL1        0.0738
     24 N           6.8042   -5.2088   28.9367 N.3     1  UNL1       -0.2726
     25 C           7.6500   -6.1144   29.7819 C.3     1  UNL1        0.0721
     26 C           8.2825   -5.5934   31.0383 C.3     1  UNL1        0.0174
     27 C           8.0691   -4.1667   31.4495 C.3     1  UNL1        0.0031
     28 C           7.2233   -3.2610   30.6043 C.3     1  UNL1        0.0204
     29 C           6.5908   -3.7821   29.3479 C.3     1  UNL1        0.0724
     30 C           7.0099   -1.8344   31.0154 C.3     1  UNL1        0.0277
     31 C           6.3465   -1.5222   32.3240 C.ar    1  UNL1       -0.0220
     32 C           5.0121   -2.1243   32.6509 C.ar    1  UNL1       -0.0020
     33 C           4.3487   -1.8121   33.9595 C.ar    1  UNL1        0.0293
     34 C           5.0197   -0.8979   34.9413 C.ar    1  UNL1        0.1401
     35 F           4.3564   -0.5857   36.2500 F       1  UNL1       -0.2042
     36 C           6.3542   -0.2959   34.6144 C.ar    1  UNL1        0.0293
     37 C           7.0175   -0.6080   33.3059 C.ar    1  UNL1       -0.0020
@<TRIPOS>BOND
     1    19    20    1
     2    20     7    1
     3     7     8   ar
     4     8     9   ar
     5     9     1    1
     6     1     2   am
     7     2     3    2
     8     2     4   am
     9     4    21    1
    10    21    22    1
    11    22    23    1
    12    23    24    1
    13    24    25    1
    14    25    26    1
    15    26    27    1
    16    27    28    1
    17    28    30    1
    18    30    31    1
    19    31    32   ar
    20    32    33   ar
    21    33    34   ar
    22    34    35    1
    23    34    36   ar
    24    36    37   ar
    25    28    29    1
    26     9    10   ar
    27    10    11   ar
    28    11    13    1
    29    13    14   ar
    30    14    15   ar
    31    15    16   ar
    32    16    17   ar
    33    17    18    1
    34    11    12   ar
    35    12     7   ar
    36    29    24    1
    37    17    13   ar
    38    37    31   ar
    39     1     5    1
    40     4     6    1
@<TRIPOS>MOLECULE
*****
 37 40 0 0 0
SMALL
GASTEIGER

@<TRIPOS>ATOM
      1 N           0.4715    0.2904   27.4978 N.am    1  UNL1       -0.2683
      2 C           1.8416    0.5394   28.0554 C.2     1  UNL1        0.3045
      3 O           2.5689    1.8076   27.7196 O.2     1  UNL1       -0.2525
      4 N           2.4843   -0.4799   28.9487 N.am    1  UNL1       -0.2887
      5 H          -0.0059   -0.5419   27.7181 H       1  UNL1        0.1564
      6 H           2.0069   -1.3122   29.1691 H       1  UNL1        0.1510
      7 C          -0.4118    2.4222   24.2690 C.ar    1  UNL1       -0.0209
      8 C           0.2308    1.4030   25.1623 C.ar    1  UNL1        0.0104
      9 C          -0.1712    1.3097   26.6044 C.ar    1  UNL1        0.0514
     10 C          -1.2159    2.2357   27.1532 C.ar    1  UNL1        0.0178
     11 C          -1.8586    3.2549   26.2598 C.ar    1  UNL1        0.0383
     12 C          -1.4565    3.3482   24.8177 C.ar    1  UNL1       -0.0011
     13 C          -2.9033    4.1809   26.8085 C.ar    1  UNL1        0.1839
     14 N          -4.3852    3.9487   26.7892 N.ar    1  UNL1       -0.1081
     15 N          -5.0474    5.1259   27.4416 N.ar    1  UNL1       -0.0227
     16 N          -3.9748    6.0857   27.8641 N.ar    1  UNL1       -0.0429
     17 N          -2.6497    5.5017   27.4728 N.ar    1  UNL1       -0.2113
     18 C          -1.3069    6.1283   27.7051 C.3     1  UNL1        0.1573
     19 C           1.4290    2.7318   22.4619 C.3     1  UNL1        0.0050
     20 C          -0.0097    2.5155   22.8269 C.3     1  UNL1        0.0264
     21 C           3.8544   -0.2309   29.5063 C.3     1  UNL1        0.0924
     22 C           4.9273   -1.2676   29.3503 C.3     1  UNL1        0.0386
     23 C           5.5012   -1.5548   27.9945 C.3     1  UNL1        0.0738
     24 N           5.1938   -0.6453   26.8420 N.3     1  UNL1       -0.2726
     25 C           5.9427    0.6447   26.6841 C.3     1  UNL1        0.0721
     26 C           5.6353    1.5541   25.5315 C.3     1  UNL1        0.0174
     27 C           4.5789    1.1736   24.5368 C.3     1  UNL1        0.0031
     28 C           3.8300   -0.1165   24.6947 C.3     1  UNL1        0.0204
     29 C           4.1375   -1.0259   25.8473 C.3     1  UNL1        0.0724
     30 C           2.7737   -0.4971   23.7001 C.3     1  UNL1        0.0277
     31 C           3.1498   -1.2467   22.4565 C.ar    1  UNL1       -0.0220
     32 C           2.5031   -0.9011   21.1480 C.ar    1  UNL1       -0.0020
     33 C           2.8792   -1.6508   19.9043 C.ar    1  UNL1        0.0293
     34 C           3.9021   -2.7459   19.9693 C.ar    1  UNL1        0.1401
     35 F           4.2783   -3.4956   18.7256 F       1  UNL1       -0.2042
     36 C           4.5489   -3.0915   21.2778 C.ar    1  UNL1        0.0293
     37 C           4.1728   -2.3419   22.5214 C.ar    1  UNL1       -0.0020
@<TRIPOS>BOND
     1    19    20    1
     2    20     7    1
     3     7     8   ar
     4     8     9   ar
     5     9     1    1
     6     1     2   am
     7     2     3    2
     8     2     4   am
     9     4    21    1
    10    21    22    1
    11    22    23    1
    12    23    24    1
    13    24    25    1
    14    25    26    1
    15    26    27    1
    16    27    28    1
    17    28    30    1
    18    30    31    1
    19    31    32   ar
    20    32    33   ar
    21    33    34   ar
    22    34    35    1
    23    34    36   ar
    24    36    37   ar
    25    28    29    1
    26     9    10   ar
    27    10    11   ar
    28    11    13    1
    29    13    14   ar
    30    14    15   ar
    31    15    16   ar
    32    16    17   ar
    33    17    18    1
    34    11    12   ar
    35    12     7   ar
    36    29    24    1
    37    17    13   ar
    38    37    31   ar
    39     1     5    1
    40     4     6    1
