@<TRIPOS>MOLECULE
*****
 32 35 0 0 0
SMALL
GASTEIGER

@<TRIPOS>ATOM
      1 N          -7.9559  -19.3879   21.7094 N.3     1  UNL1       -0.2643
      2 C          -8.5623  -18.9877   23.0217 C.3     1  UNL1        0.0981
      3 C          -9.4388  -19.9498   23.7674 C.3     1  UNL1        0.0224
      4 C         -10.0451  -19.5496   25.0797 C.3     1  UNL1        0.0065
      5 C          -9.7750  -18.1873   25.6463 C.3     1  UNL1        0.0277
      6 C          -8.8985  -17.2252   24.9006 C.ar    1  UNL1       -0.0073
      7 C          -8.6284  -15.8627   25.4672 C.ar    1  UNL1       -0.0015
      8 C          -7.7519  -14.9007   24.7214 C.ar    1  UNL1        0.0203
      9 C          -7.1456  -15.3009   23.4091 C.ar    1  UNL1        0.0985
     10 N          -7.4157  -16.6632   22.8425 N.ar    1  UNL1       -0.2471
     11 C          -8.2922  -17.6254   23.5883 C.ar    1  UNL1        0.0695
     12 C          -8.6582  -19.0557   20.4263 C.3     1  UNL1        0.0971
     13 C         -11.1087  -19.8925   20.2140 C.3     1  UNL1        0.0298
     14 C         -10.1317  -18.7748   20.4287 C.2     1  UNL1       -0.0033
     15 C         -10.6282  -17.3760   20.6459 C.2     1  UNL1        0.1267
     16 F          -9.6512  -16.2583   20.8606 F       1  UNL1       -0.2080
     17 C         -12.1016  -17.0951   20.6483 C.3     1  UNL1        0.1220
     18 N         -12.6563  -15.9921   19.7964 N.3     1  UNL1       -0.3156
     19 H         -12.3108  -15.0943   20.1353 H       1  UNL1        0.1192
     20 H         -13.6750  -16.0047   19.8448 H       1  UNL1        0.1192
     21 C          -6.6473  -20.1204   21.6801 C.3     1  UNL1        0.0888
     22 C          -5.3596  -19.3533   21.6198 C.3     1  UNL1        0.0748
     23 C          -4.5359  -19.3681   20.3664 C.3     1  UNL1        0.0432
     24 C          -3.2482  -18.6010   20.3060 C.ar    1  UNL1       -0.0234
     25 C          -2.4244  -18.6158   19.0526 C.ar    1  UNL1       -0.0045
     26 C          -1.1368  -17.8488   18.9923 C.ar    1  UNL1       -0.0003
     27 C          -0.6730  -17.0670   20.1854 C.ar    1  UNL1       -0.0003
     28 C          -1.4967  -17.0522   21.4389 C.ar    1  UNL1       -0.0032
     29 C          -2.7843  -17.8192   21.4992 C.ar    1  UNL1       -0.0103
     30 C          -3.6082  -17.8045   22.7527 C.3     1  UNL1        0.0953
     31 N          -4.8958  -18.5715   22.8130 N.3     1  UNL1       -0.2934
     32 H          -5.6305  -17.8971   23.0269 H       1  UNL1        0.1236
@<TRIPOS>BOND
     1    13    14    1
     2    14    12    1
     3    12     1    1
     4     1    21    1
     5    22    21    1
     6    22    23    1
     7    23    24    1
     8    24    25   ar
     9    25    26   ar
    10    26    27   ar
    11    27    28   ar
    12    28    29   ar
    13    29    30    1
    14    30    31    1
    15     2     1    1
    16     2     3    1
    17     3     4    1
    18     4     5    1
    19     5     6    1
    20     6     7   ar
    21     7     8   ar
    22     8     9   ar
    23     9    10   ar
    24    10    11   ar
    25    14    15    2
    26    15    16    1
    27    15    17    1
    28    17    18    1
    29    31    22    1
    30    11     2    1
    31    29    24   ar
    32    11     6   ar
    33    31    32    1
    34    18    19    1
    35    18    20    1
@<TRIPOS>MOLECULE
*****
 32 35 0 0 0
SMALL
GASTEIGER

@<TRIPOS>ATOM
      1 N          -7.9171  -17.9514   22.7208 N.3     1  UNL1       -0.2643
      2 C          -9.3645  -18.1473   23.0623 C.3     1  UNL1        0.0981
      3 C          -9.7483  -18.9591   24.2638 C.3     1  UNL1        0.0224
      4 C         -11.1958  -19.1550   24.6053 C.3     1  UNL1        0.0065
      5 C         -12.2593  -18.5390   23.7454 C.3     1  UNL1        0.0277
      6 C         -11.8754  -17.7272   22.5440 C.ar    1  UNL1       -0.0073
      7 C         -12.9390  -17.1113   21.6840 C.ar    1  UNL1       -0.0015
      8 C         -12.5551  -16.2994   20.4825 C.ar    1  UNL1        0.0203
      9 C         -11.1077  -16.1036   20.1410 C.ar    1  UNL1        0.0985
     10 N         -10.0442  -16.7195   21.0009 N.ar    1  UNL1       -0.2471
     11 C         -10.4280  -17.5314   22.2024 C.ar    1  UNL1        0.0695
     12 C          -7.3074  -16.5830   22.7956 C.3     1  UNL1        0.0971
     13 C          -5.2799  -15.9696   24.2999 C.3     1  UNL1        0.0298
     14 C          -6.7624  -16.0749   24.0974 C.2     1  UNL1       -0.0033
     15 C          -7.7000  -15.6719   25.1968 C.2     1  UNL1        0.1267
     16 F          -9.1825  -15.7772   24.9943 F       1  UNL1       -0.2080
     17 C          -7.1551  -15.1638   26.4987 C.3     1  UNL1        0.1220
     18 N          -8.0918  -14.7890   27.6086 N.3     1  UNL1       -0.3156
     19 H          -8.6452  -13.9795   27.3277 H       1  UNL1        0.1192
     20 H          -7.5540  -14.5597   28.4445 H       1  UNL1        0.1192
     21 C          -7.0794  -19.1239   22.3044 C.3     1  UNL1        0.0888
     22 C          -5.8466  -18.9090   21.4772 C.3     1  UNL1        0.0748
     23 C          -4.5045  -18.8184   22.1408 C.3     1  UNL1        0.0432
     24 C          -3.2717  -18.6035   21.3137 C.ar    1  UNL1       -0.0234
     25 C          -1.9296  -18.5130   21.9773 C.ar    1  UNL1       -0.0045
     26 C          -0.6969  -18.2980   21.1501 C.ar    1  UNL1       -0.0003
     27 C          -0.8064  -18.1736   19.6593 C.ar    1  UNL1       -0.0003
     28 C          -2.1485  -18.2641   18.9957 C.ar    1  UNL1       -0.0032
     29 C          -3.3812  -18.4790   19.8228 C.ar    1  UNL1       -0.0103
     30 C          -4.7234  -18.5696   19.1592 C.3     1  UNL1        0.0953
     31 N          -5.9561  -18.7845   19.9864 N.3     1  UNL1       -0.2934
     32 H          -6.3900  -19.6442   19.6502 H       1  UNL1        0.1236
@<TRIPOS>BOND
     1    13    14    1
     2    14    12    1
     3    12     1    1
     4     1    21    1
     5    22    21    1
     6    22    23    1
     7    23    24    1
     8    24    25   ar
     9    25    26   ar
    10    26    27   ar
    11    27    28   ar
    12    28    29   ar
    13    29    30    1
    14    30    31    1
    15     2     1    1
    16     2     3    1
    17     3     4    1
    18     4     5    1
    19     5     6    1
    20     6     7   ar
    21     7     8   ar
    22     8     9   ar
    23     9    10   ar
    24    10    11   ar
    25    14    15    2
    26    15    16    1
    27    15    17    1
    28    17    18    1
    29    31    22    1
    30    11     2    1
    31    29    24   ar
    32    11     6   ar
    33    31    32    1
    34    18    19    1
    35    18    20    1
@<TRIPOS>MOLECULE
*****
 32 35 0 0 0
SMALL
GASTEIGER

@<TRIPOS>ATOM
      1 N          -5.8163  -19.0077   21.2066 N.3     1  UNL1       -0.2643
      2 C          -5.3245  -18.2205   22.3849 C.3     1  UNL1        0.0981
      3 C          -4.0270  -18.5864   23.0425 C.3     1  UNL1        0.0224
      4 C          -3.5352  -17.7992   24.2209 C.3     1  UNL1        0.0065
      5 C          -4.3410  -16.6463   24.7417 C.3     1  UNL1        0.0277
      6 C          -5.6386  -16.2804   24.0841 C.ar    1  UNL1       -0.0073
      7 C          -6.4444  -15.1274   24.6050 C.ar    1  UNL1       -0.0015
      8 C          -7.7420  -14.7616   23.9474 C.ar    1  UNL1        0.0203
      9 C          -8.2338  -15.5487   22.7690 C.ar    1  UNL1        0.0985
     10 N          -7.4280  -16.7017   22.2482 N.ar    1  UNL1       -0.2471
     11 C          -6.1303  -17.0676   22.9058 C.ar    1  UNL1        0.0695
     12 C          -5.1482  -18.8567   19.8721 C.3     1  UNL1        0.0971
     13 C          -3.0155  -20.2805   20.2899 C.3     1  UNL1        0.0298
     14 C          -3.6643  -19.0400   19.7513 C.2     1  UNL1       -0.0033
     15 C          -2.8292  -17.9827   19.0918 C.2     1  UNL1        0.1267
     16 F          -3.4780  -16.7421   18.5532 F       1  UNL1       -0.2080
     17 C          -1.3454  -18.1660   18.9710 C.3     1  UNL1        0.1220
     18 N          -0.4137  -17.2343   19.6878 N.3     1  UNL1       -0.3156
     19 H          -0.5024  -16.2968   19.2959 H       1  UNL1        0.1192
     20 H           0.5462  -17.5604   19.5755 H       1  UNL1        0.1192
     21 C          -6.9762  -19.9458   21.3626 C.3     1  UNL1        0.0888
     22 C          -8.3643  -19.4015   21.5275 C.3     1  UNL1        0.0748
     23 C          -9.0772  -19.5499   22.8388 C.3     1  UNL1        0.0432
     24 C         -10.4652  -19.0056   23.0037 C.ar    1  UNL1       -0.0234
     25 C         -11.1782  -19.1540   24.3150 C.ar    1  UNL1       -0.0045
     26 C         -12.5662  -18.6097   24.4798 C.ar    1  UNL1       -0.0003
     27 C         -13.2412  -17.9169   23.3334 C.ar    1  UNL1       -0.0003
     28 C         -12.5282  -17.7684   22.0220 C.ar    1  UNL1       -0.0032
     29 C         -11.1402  -18.3128   21.8572 C.ar    1  UNL1       -0.0103
     30 C         -10.4272  -18.1644   20.5458 C.3     1  UNL1        0.0953
     31 N          -9.0392  -18.7087   20.3810 N.3     1  UNL1       -0.2934
     32 H          -8.4438  -17.9227   20.1201 H       1  UNL1        0.1236
@<TRIPOS>BOND
     1    13    14    1
     2    14    12    1
     3    12     1    1
     4     1    21    1
     5    22    21    1
     6    22    23    1
     7    23    24    1
     8    24    25   ar
     9    25    26   ar
    10    26    27   ar
    11    27    28   ar
    12    28    29   ar
    13    29    30    1
    14    30    31    1
    15     2     1    1
    16     2     3    1
    17     3     4    1
    18     4     5    1
    19     5     6    1
    20     6     7   ar
    21     7     8   ar
    22     8     9   ar
    23     9    10   ar
    24    10    11   ar
    25    14    15    2
    26    15    16    1
    27    15    17    1
    28    17    18    1
    29    31    22    1
    30    11     2    1
    31    29    24   ar
    32    11     6   ar
    33    31    32    1
    34    18    19    1
    35    18    20    1
@<TRIPOS>MOLECULE
*****
 32 35 0 0 0
SMALL
GASTEIGER

@<TRIPOS>ATOM
      1 N         -16.5835   -4.0731   19.6445 N.3     1  UNL1       -0.2643
      2 C         -17.5073   -2.9212   19.9083 C.3     1  UNL1        0.0981
      3 C         -18.9009   -3.1751   20.4016 C.3     1  UNL1        0.0224
      4 C         -19.8247   -2.0231   20.6655 C.3     1  UNL1        0.0065
      5 C         -19.3549   -0.6172   20.4359 C.3     1  UNL1        0.0277
      6 C         -17.9613   -0.3633   19.9426 C.ar    1  UNL1       -0.0073
      7 C         -17.4914    1.0427   19.7130 C.ar    1  UNL1       -0.0015
      8 C         -16.0978    1.2966   19.2197 C.ar    1  UNL1        0.0203
      9 C         -15.1741    0.1446   18.9559 C.ar    1  UNL1        0.0985
     10 N         -15.6439   -1.2613   19.1854 N.ar    1  UNL1       -0.2471
     11 C         -17.0375   -1.5153   19.6788 C.ar    1  UNL1        0.0695
     12 C         -16.8480   -4.9983   18.4938 C.3     1  UNL1        0.0971
     13 C         -17.5697   -7.1952   19.6780 C.3     1  UNL1        0.0298
     14 C         -16.7114   -6.4808   18.6766 C.2     1  UNL1       -0.0033
     15 C         -15.7163   -7.2489   17.8580 C.2     1  UNL1        0.1267
     16 F         -14.8580   -6.5344   16.8567 F       1  UNL1       -0.2080
     17 C         -15.5797   -8.7314   18.0409 C.3     1  UNL1        0.1220
     18 N         -14.5110   -9.2810   18.9385 N.3     1  UNL1       -0.3156
     19 H         -13.5943   -9.0726   18.5428 H       1  UNL1        0.1192
     20 H         -14.6236  -10.2913   19.0220 H       1  UNL1        0.1192
     21 C         -15.3953   -4.3000   20.5313 C.3     1  UNL1        0.0888
     22 C         -14.0146   -4.3179   19.9453 C.3     1  UNL1        0.0748
     23 C         -13.3217   -5.6251   19.6981 C.3     1  UNL1        0.0432
     24 C         -11.9409   -5.6430   19.1121 C.ar    1  UNL1       -0.0234
     25 C         -11.2480   -6.9502   18.8649 C.ar    1  UNL1       -0.0045
     26 C          -9.8674   -6.9681   18.2790 C.ar    1  UNL1       -0.0003
     27 C          -9.1796   -5.6788   17.9402 C.ar    1  UNL1       -0.0003
     28 C          -9.8725   -4.3716   18.1874 C.ar    1  UNL1       -0.0032
     29 C         -11.2532   -4.3538   18.7734 C.ar    1  UNL1       -0.0103
     30 C         -11.9461   -3.0465   19.0206 C.3     1  UNL1        0.0953
     31 N         -13.3268   -3.0286   19.6066 N.3     1  UNL1       -0.2934
     32 H         -13.9243   -2.5431   18.9376 H       1  UNL1        0.1236
@<TRIPOS>BOND
     1    13    14    1
     2    14    12    1
     3    12     1    1
     4     1    21    1
     5    22    21    1
     6    22    23    1
     7    23    24    1
     8    24    25   ar
     9    25    26   ar
    10    26    27   ar
    11    27    28   ar
    12    28    29   ar
    13    29    30    1
    14    30    31    1
    15     2     1    1
    16     2     3    1
    17     3     4    1
    18     4     5    1
    19     5     6    1
    20     6     7   ar
    21     7     8   ar
    22     8     9   ar
    23     9    10   ar
    24    10    11   ar
    25    14    15    2
    26    15    16    1
    27    15    17    1
    28    17    18    1
    29    31    22    1
    30    11     2    1
    31    29    24   ar
    32    11     6   ar
    33    31    32    1
    34    18    19    1
    35    18    20    1
