@<TRIPOS>MOLECULE
*****
 22 24 0 0 0
SMALL
GASTEIGER

@<TRIPOS>ATOM
      1 C          -6.5702  -20.3111   21.0145 C.3     1  UNL1        0.0911
      2 C          -2.4303  -18.6268   20.4910 C.ar    1  UNL1        0.0756
      3 C          -2.8083  -19.3019   21.7759 C.ar    1  UNL1        0.0061
      4 C          -4.1882  -19.8634   21.9505 C.ar    1  UNL1       -0.0032
      5 C          -5.1902  -19.7497   20.8400 C.ar    1  UNL1       -0.0109
      6 C          -4.8122  -19.0745   19.5550 C.ar    1  UNL1       -0.0032
      7 C          -3.4322  -18.5130   19.3805 C.ar    1  UNL1        0.0061
      8 C          -1.0503  -18.0652   20.3164 C.2     1  UNL1        0.3413
      9 O           0.0473  -18.9291   19.7698 O.2     1  UNL1       -0.2449
     10 C          -1.7079  -15.9010   21.5944 C.3     1  UNL1        0.2560
     11 O          -0.7681  -16.6398   20.6884 O.3     1  UNL1       -0.4413
     12 S          -7.7664  -19.4987   20.6158 S.3     1  UNL1       -0.0734
     13 C          -8.8910  -19.2933   21.5869 C.2     1  UNL1        0.1813
     14 N         -10.1317  -18.5692   21.1553 N.2     1  UNL1       -0.2315
     15 C         -11.2564  -18.3638   22.1264 C.2     1  UNL1        0.0471
     16 C         -11.1403  -18.8824   23.5291 C.3     1  UNL1        0.1145
     17 C          -9.8996  -19.6065   23.9607 C.2     1  UNL1        0.2521
     18 O          -9.7834  -20.1252   25.3634 O.2     1  UNL1       -0.2725
     19 N          -8.7749  -19.8119   22.9895 N.am    1  UNL1       -0.1543
     20 C         -12.4032  -18.5323   24.2588 C.3     1  UNL1        0.0152
     21 C         -13.2998  -17.7973   23.3070 C.3     1  UNL1        0.0068
     22 C         -12.5911  -17.6931   21.9891 C.3     1  UNL1        0.0419
@<TRIPOS>BOND
     1    10    11    1
     2    11     8    1
     3     8     9    2
     4     8     2    1
     5     2     3   ar
     6     3     4   ar
     7     4     5   ar
     8     5     1    1
     9     1    12    1
    10    12    13    1
    11    13    14    1
    12    14    15    2
    13    15    16    1
    14    16    17    1
    15    17    18    2
    16    17    19    1
    17    16    20    1
    18    20    21    1
    19    21    22    1
    20     5     6   ar
    21     6     7   ar
    22     7     2   ar
    23    19    13    2
    24    22    15    1
@<TRIPOS>MOLECULE
*****
 22 24 0 0 0
SMALL
GASTEIGER

@<TRIPOS>ATOM
      1 C          -6.7978  -20.0492   21.1758 C.3     1  UNL1        0.0911
      2 C          -2.5805  -18.5827   20.6153 C.ar    1  UNL1        0.0756
      3 C          -3.0340  -19.0656   21.9610 C.ar    1  UNL1        0.0061
      4 C          -4.4397  -19.5545   22.1480 C.ar    1  UNL1       -0.0032
      5 C          -5.3920  -19.5604   20.9890 C.ar    1  UNL1       -0.0109
      6 C          -4.9385  -19.0775   19.6432 C.ar    1  UNL1       -0.0032
      7 C          -3.5328  -18.5886   19.4564 C.ar    1  UNL1        0.0061
      8 C          -1.1747  -18.0939   20.4285 C.2     1  UNL1        0.3413
      9 O          -0.1333  -19.0073   19.8533 O.2     1  UNL1       -0.2449
     10 C          -1.7595  -15.8704   21.6385 C.3     1  UNL1        0.2560
     11 O          -0.8106  -16.6915   20.8168 O.3     1  UNL1       -0.4413
     12 S          -7.8728  -19.6244   20.2199 S.3     1  UNL1       -0.0734
     13 C          -9.1621  -19.0633   20.7425 C.2     1  UNL1        0.1813
     14 N          -9.6007  -19.3712   22.1435 N.2     1  UNL1       -0.2315
     15 C         -10.8900  -18.8102   22.6661 C.2     1  UNL1        0.0471
     16 C         -11.7406  -17.9414   21.7877 C.3     1  UNL1        0.1145
     17 C         -11.3020  -17.6336   20.3867 C.2     1  UNL1        0.2521
     18 O         -12.1526  -16.7648   19.5082 O.2     1  UNL1       -0.2725
     19 N         -10.0127  -18.1946   19.8641 N.am    1  UNL1       -0.1543
     20 C         -12.9523  -17.5339   22.5725 C.3     1  UNL1        0.0152
     21 C         -12.8504  -18.1509   23.9359 C.3     1  UNL1        0.0068
     22 C         -11.5759  -18.9397   23.9938 C.3     1  UNL1        0.0419
@<TRIPOS>BOND
     1    10    11    1
     2    11     8    1
     3     8     9    2
     4     8     2    1
     5     2     3   ar
     6     3     4   ar
     7     4     5   ar
     8     5     1    1
     9     1    12    1
    10    12    13    1
    11    13    14    1
    12    14    15    2
    13    15    16    1
    14    16    17    1
    15    17    18    2
    16    17    19    1
    17    16    20    1
    18    20    21    1
    19    21    22    1
    20     5     6   ar
    21     6     7   ar
    22     7     2   ar
    23    19    13    2
    24    22    15    1
@<TRIPOS>MOLECULE
*****
 22 24 0 0 0
SMALL
GASTEIGER

@<TRIPOS>ATOM
      1 C          -8.4908  -19.0773   21.4487 C.3     1  UNL1        0.0911
      2 C          -4.0639  -19.4847   20.7510 C.ar    1  UNL1        0.0756
      3 C          -4.6339  -19.7329   22.1160 C.ar    1  UNL1        0.0061
      4 C          -6.1095  -19.5971   22.3487 C.ar    1  UNL1       -0.0032
      5 C          -7.0151  -19.2131   21.2162 C.ar    1  UNL1       -0.0109
      6 C          -6.4451  -18.9649   19.8511 C.ar    1  UNL1       -0.0032
      7 C          -4.9694  -19.1007   19.6185 C.ar    1  UNL1        0.0061
      8 C          -2.5882  -19.6205   20.5183 C.2     1  UNL1        0.3413
      9 O          -1.7424  -20.3847   21.4932 O.2     1  UNL1       -0.2449
     10 C          -1.4822  -17.5708   19.3672 C.3     1  UNL1        0.2560
     11 O          -1.9585  -18.9920   19.3107 O.3     1  UNL1       -0.4413
     12 S          -9.0477  -17.8013   22.0069 S.3     1  UNL1       -0.0734
     13 C          -8.2966  -17.0573   23.0711 C.2     1  UNL1        0.1813
     14 N          -8.7985  -17.0604   24.4846 N.2     1  UNL1       -0.2315
     15 C          -8.0474  -16.3165   25.5488 C.2     1  UNL1        0.0471
     16 C          -6.7944  -15.5695   25.1994 C.3     1  UNL1        0.1145
     17 C          -6.2925  -15.5664   23.7859 C.2     1  UNL1        0.2521
     18 O          -5.0395  -14.8195   23.4365 O.2     1  UNL1       -0.2725
     19 N          -7.0437  -16.3104   22.7217 N.am    1  UNL1       -0.1543
     20 C          -6.2704  -14.9319   26.4519 C.3     1  UNL1        0.0152
     21 C          -7.1996  -15.2848   27.5754 C.3     1  UNL1        0.0068
     22 C          -8.2978  -16.1405   27.0172 C.3     1  UNL1        0.0419
@<TRIPOS>BOND
     1    10    11    1
     2    11     8    1
     3     8     9    2
     4     8     2    1
     5     2     3   ar
     6     3     4   ar
     7     4     5   ar
     8     5     1    1
     9     1    12    1
    10    12    13    1
    11    13    14    1
    12    14    15    2
    13    15    16    1
    14    16    17    1
    15    17    18    2
    16    17    19    1
    17    16    20    1
    18    20    21    1
    19    21    22    1
    20     5     6   ar
    21     6     7   ar
    22     7     2   ar
    23    19    13    2
    24    22    15    1
@<TRIPOS>MOLECULE
*****
 22 24 0 0 0
SMALL
GASTEIGER

@<TRIPOS>ATOM
      1 C          -6.4415  -16.2731   24.1197 C.3     1  UNL1        0.0911
      2 C          -3.1494  -18.3240   21.8379 C.ar    1  UNL1        0.0756
      3 C          -4.5234  -18.9246   21.8745 C.ar    1  UNL1        0.0061
      4 C          -5.6208  -18.2411   22.6351 C.ar    1  UNL1       -0.0032
      5 C          -5.3441  -16.9567   23.3591 C.ar    1  UNL1       -0.0109
      6 C          -3.9701  -16.3561   23.3225 C.ar    1  UNL1       -0.0032
      7 C          -2.8728  -17.0397   22.5619 C.ar    1  UNL1        0.0061
      8 C          -2.0520  -19.0076   21.0774 C.2     1  UNL1        0.3413
      9 O          -1.7600  -20.4581   21.3232 O.2     1  UNL1       -0.2449
     10 C          -1.8534  -17.8696   18.7503 C.3     1  UNL1        0.2560
     11 O          -1.2466  -18.2404   20.0710 O.3     1  UNL1       -0.4413
     12 S          -7.3754  -15.3377   23.4106 S.3     1  UNL1       -0.0734
     13 C          -8.6799  -15.8459   22.8719 C.2     1  UNL1        0.1813
     14 N          -9.5874  -16.6581   23.7475 N.2     1  UNL1       -0.2315
     15 C         -10.8918  -17.1663   23.2088 C.2     1  UNL1        0.0471
     16 C         -11.2888  -16.8622   21.7946 C.3     1  UNL1        0.1145
     17 C         -10.3813  -16.0499   20.9191 C.2     1  UNL1        0.2521
     18 O         -10.7782  -15.7457   19.5048 O.2     1  UNL1       -0.2725
     19 N          -9.0768  -15.5418   21.4578 N.am    1  UNL1       -0.1543
     20 C         -12.6261  -17.4932   21.5426 C.3     1  UNL1        0.0152
     21 C         -13.0556  -18.1874   22.8010 C.3     1  UNL1        0.0068
     22 C         -11.9838  -17.9853   23.8308 C.3     1  UNL1        0.0419
@<TRIPOS>BOND
     1    10    11    1
     2    11     8    1
     3     8     9    2
     4     8     2    1
     5     2     3   ar
     6     3     4   ar
     7     4     5   ar
     8     5     1    1
     9     1    12    1
    10    12    13    1
    11    13    14    1
    12    14    15    2
    13    15    16    1
    14    16    17    1
    15    17    18    2
    16    17    19    1
    17    16    20    1
    18    20    21    1
    19    21    22    1
    20     5     6   ar
    21     6     7   ar
    22     7     2   ar
    23    19    13    2
    24    22    15    1
@<TRIPOS>MOLECULE
*****
 22 24 0 0 0
SMALL
GASTEIGER

@<TRIPOS>ATOM
      1 C          -7.2299  -20.1358   20.1553 C.3     1  UNL1        0.0911
      2 C         -10.8811  -17.5941   20.8319 C.ar    1  UNL1        0.0756
      3 C          -9.6807  -17.4329   21.7167 C.ar    1  UNL1        0.0061
      4 C          -8.4636  -18.2801   21.4913 C.ar    1  UNL1       -0.0032
      5 C          -8.4470  -19.2886   20.3808 C.ar    1  UNL1       -0.0109
      6 C          -9.6475  -19.4497   19.4960 C.ar    1  UNL1       -0.0032
      7 C         -10.8645  -18.6024   19.7216 C.ar    1  UNL1        0.0061
      8 C         -12.0983  -16.7468   21.0574 C.2     1  UNL1        0.3413
      9 O         -12.7444  -16.0399   19.9030 O.2     1  UNL1       -0.2449
     10 C         -13.0187  -17.8296   23.2323 C.3     1  UNL1        0.2560
     11 O         -12.6692  -16.6065   22.4374 O.3     1  UNL1       -0.4413
     12 S          -6.2191  -20.3032   21.2508 S.3     1  UNL1       -0.0734
     13 C          -4.9114  -19.5714   21.1829 C.2     1  UNL1        0.1813
     14 N          -4.2418  -19.3537   19.8584 N.2     1  UNL1       -0.2315
     15 C          -2.9342  -18.6220   19.7904 C.2     1  UNL1        0.0471
     16 C          -2.2961  -18.1079   21.0468 C.3     1  UNL1        0.1145
     17 C          -2.9657  -18.3256   22.3713 C.2     1  UNL1        0.2521
     18 O          -2.3277  -17.8115   23.6278 O.2     1  UNL1       -0.2725
     19 N          -4.2734  -19.0573   22.4392 N.am    1  UNL1       -0.1543
     20 C          -1.0133  -17.4277   20.6705 C.3     1  UNL1        0.0152
     21 C          -0.8585  -17.5214   19.1815 C.3     1  UNL1        0.0068
     22 C          -2.0456  -18.2595   18.6375 C.3     1  UNL1        0.0419
@<TRIPOS>BOND
     1    10    11    1
     2    11     8    1
     3     8     9    2
     4     8     2    1
     5     2     3   ar
     6     3     4   ar
     7     4     5   ar
     8     5     1    1
     9     1    12    1
    10    12    13    1
    11    13    14    1
    12    14    15    2
    13    15    16    1
    14    16    17    1
    15    17    18    2
    16    17    19    1
    17    16    20    1
    18    20    21    1
    19    21    22    1
    20     5     6   ar
    21     6     7   ar
    22     7     2   ar
    23    19    13    2
    24    22    15    1
@<TRIPOS>MOLECULE
*****
 22 24 0 0 0
SMALL
GASTEIGER

@<TRIPOS>ATOM
      1 C          -6.1771  -15.1824   24.0106 C.3     1  UNL1        0.0911
      2 C         -10.2390  -16.9520   23.2234 C.ar    1  UNL1        0.0756
      3 C          -9.6811  -16.9448   24.6157 C.ar    1  UNL1        0.0061
      4 C          -8.3272  -16.3549   24.8783 C.ar    1  UNL1       -0.0032
      5 C          -7.5311  -15.7723   23.7482 C.ar    1  UNL1       -0.0109
      6 C          -8.0890  -15.7795   22.3559 C.ar    1  UNL1       -0.0032
      7 C          -9.4429  -16.3694   22.0935 C.ar    1  UNL1        0.0061
      8 C         -11.5930  -17.5419   22.9610 C.2     1  UNL1        0.3413
      9 O         -12.7837  -16.6441   22.7995 O.2     1  UNL1       -0.2449
     10 C         -10.5789  -19.8911   22.5109 C.3     1  UNL1        0.2560
     11 O         -11.7561  -19.0295   22.8600 O.3     1  UNL1       -0.4413
     12 S          -5.0051  -16.0815   24.2717 S.3     1  UNL1       -0.0734
     13 C          -4.4092  -16.8813   23.1512 C.2     1  UNL1        0.1813
     14 N          -5.1065  -18.1135   22.6560 N.2     1  UNL1       -0.2315
     15 C          -4.5107  -18.9133   21.5356 C.2     1  UNL1        0.0471
     16 C          -3.2176  -18.4809   20.9104 C.3     1  UNL1        0.1145
     17 C          -2.5203  -17.2486   21.4057 C.2     1  UNL1        0.2521
     18 O          -1.2271  -16.8161   20.7806 O.2     1  UNL1       -0.2725
     19 N          -3.1162  -16.4488   22.5262 N.am    1  UNL1       -0.1543
     20 C          -2.8737  -19.4630   19.8301 C.3     1  UNL1        0.0152
     21 C          -3.9543  -20.5024   19.7876 C.3     1  UNL1        0.0068
     22 C          -4.9660  -20.1628   20.8416 C.3     1  UNL1        0.0419
@<TRIPOS>BOND
     1    10    11    1
     2    11     8    1
     3     8     9    2
     4     8     2    1
     5     2     3   ar
     6     3     4   ar
     7     4     5   ar
     8     5     1    1
     9     1    12    1
    10    12    13    1
    11    13    14    1
    12    14    15    2
    13    15    16    1
    14    16    17    1
    15    17    18    2
    16    17    19    1
    17    16    20    1
    18    20    21    1
    19    21    22    1
    20     5     6   ar
    21     6     7   ar
    22     7     2   ar
    23    19    13    2
    24    22    15    1
@<TRIPOS>MOLECULE
*****
 22 24 0 0 0
SMALL
GASTEIGER

@<TRIPOS>ATOM
      1 C          -4.7447  -16.8049   24.1276 C.3     1  UNL1        0.0911
      2 C          -1.9676  -17.8594   20.7474 C.ar    1  UNL1        0.0756
      3 C          -2.8715  -18.9053   21.3294 C.ar    1  UNL1        0.0061
      4 C          -3.7972  -18.5539   22.4562 C.ar    1  UNL1       -0.0032
      5 C          -3.8190  -17.1564   23.0009 C.ar    1  UNL1       -0.0109
      6 C          -2.9150  -16.1104   22.4188 C.ar    1  UNL1       -0.0032
      7 C          -1.9894  -16.4619   21.2920 C.ar    1  UNL1        0.0061
      8 C          -1.0419  -18.2108   19.6206 C.2     1  UNL1        0.3413
      9 O           0.2472  -18.9234   19.9035 O.2     1  UNL1       -0.2449
     10 C          -2.7232  -17.1943   17.9206 C.3     1  UNL1        0.2560
     11 O          -1.4055  -17.8496   18.2109 O.3     1  UNL1       -0.4413
     12 S          -5.9326  -15.9245   23.8754 S.3     1  UNL1       -0.0734
     13 C          -7.1694  -16.4955   23.2474 C.2     1  UNL1        0.1813
     14 N          -7.5867  -17.9025   23.5572 N.2     1  UNL1       -0.2315
     15 C          -8.8234  -18.4735   22.9292 C.2     1  UNL1        0.0471
     16 C          -9.6429  -17.6375   21.9914 C.3     1  UNL1        0.1145
     17 C          -9.2257  -16.2304   21.6816 C.2     1  UNL1        0.2521
     18 O         -10.0451  -15.3942   20.7438 O.2     1  UNL1       -0.2725
     19 N          -7.9888  -15.6594   22.3097 N.am    1  UNL1       -0.1543
     20 C         -10.8044  -18.4652   21.5269 C.3     1  UNL1        0.0152
     21 C         -10.7027  -19.8129   22.1776 C.3     1  UNL1        0.0068
     22 C          -9.4784  -19.8181   23.0443 C.3     1  UNL1        0.0419
@<TRIPOS>BOND
     1    10    11    1
     2    11     8    1
     3     8     9    2
     4     8     2    1
     5     2     3   ar
     6     3     4   ar
     7     4     5   ar
     8     5     1    1
     9     1    12    1
    10    12    13    1
    11    13    14    1
    12    14    15    2
    13    15    16    1
    14    16    17    1
    15    17    18    2
    16    17    19    1
    17    16    20    1
    18    20    21    1
    19    21    22    1
    20     5     6   ar
    21     6     7   ar
    22     7     2   ar
    23    19    13    2
    24    22    15    1
@<TRIPOS>MOLECULE
*****
 22 24 0 0 0
SMALL
GASTEIGER

@<TRIPOS>ATOM
      1 C          -5.7648  -15.7475   24.2934 C.3     1  UNL1        0.0911
      2 C          -2.8724  -18.1769   21.8476 C.ar    1  UNL1        0.0756
      3 C          -4.1276  -18.8094   22.3713 C.ar    1  UNL1        0.0061
      4 C          -5.0918  -17.9997   23.1866 C.ar    1  UNL1       -0.0032
      5 C          -4.8006  -16.5573   23.4782 C.ar    1  UNL1       -0.0109
      6 C          -3.5454  -15.9248   22.9545 C.ar    1  UNL1       -0.0032
      7 C          -2.5812  -16.7346   22.1392 C.ar    1  UNL1        0.0061
      8 C          -1.9082  -18.9867   21.0323 C.2     1  UNL1        0.3413
      9 O          -1.7237  -20.4469   21.3209 O.2     1  UNL1       -0.2449
     10 C          -1.8245  -17.9064   18.6710 C.3     1  UNL1        0.2560
     11 O          -1.1285  -18.3360   19.9284 O.3     1  UNL1       -0.4413
     12 S          -6.9728  -15.1415   23.6428 S.3     1  UNL1       -0.0734
     13 C          -8.2011  -15.9731   23.4197 C.2     1  UNL1        0.1813
     14 N          -8.9713  -15.8448   22.1390 N.2     1  UNL1       -0.2315
     15 C         -10.1996  -16.6763   21.9159 C.2     1  UNL1        0.0471
     16 C         -10.6577  -17.6363   22.9736 C.3     1  UNL1        0.1145
     17 C          -9.8875  -17.7647   24.2543 C.2     1  UNL1        0.2521
     18 O         -10.3455  -18.7247   25.3121 O.2     1  UNL1       -0.2725
     19 N          -8.6591  -16.9330   24.4773 N.am    1  UNL1       -0.1543
     20 C         -11.8966  -18.3191   22.4748 C.3     1  UNL1        0.0152
     21 C         -12.2042  -17.7811   21.1088 C.3     1  UNL1        0.0068
     22 C         -11.1554  -16.7659   20.7634 C.3     1  UNL1        0.0419
@<TRIPOS>BOND
     1    10    11    1
     2    11     8    1
     3     8     9    2
     4     8     2    1
     5     2     3   ar
     6     3     4   ar
     7     4     5   ar
     8     5     1    1
     9     1    12    1
    10    12    13    1
    11    13    14    1
    12    14    15    2
    13    15    16    1
    14    16    17    1
    15    17    18    2
    16    17    19    1
    17    16    20    1
    18    20    21    1
    19    21    22    1
    20     5     6   ar
    21     6     7   ar
    22     7     2   ar
    23    19    13    2
    24    22    15    1
@<TRIPOS>MOLECULE
*****
 22 24 0 0 0
SMALL
GASTEIGER

@<TRIPOS>ATOM
      1 C          -4.9400  -16.5467   24.3224 C.3     1  UNL1        0.0911
      2 C          -2.1963  -17.9139   21.0281 C.ar    1  UNL1        0.0756
      3 C          -2.2167  -16.4708   21.4365 C.ar    1  UNL1        0.0061
      4 C          -3.1313  -16.0149   22.5346 C.ar    1  UNL1       -0.0032
      5 C          -4.0254  -17.0024   23.2243 C.ar    1  UNL1       -0.0109
      6 C          -4.0049  -18.4456   22.8158 C.ar    1  UNL1       -0.0032
      7 C          -3.0904  -18.9013   21.7177 C.ar    1  UNL1        0.0061
      8 C          -1.2817  -18.3698   19.9299 C.2     1  UNL1        0.3413
      9 O          -1.8233  -18.6013   18.5505 O.2     1  UNL1       -0.2449
     10 C           1.1396  -17.4488   20.1271 C.3     1  UNL1        0.2560
     11 O           0.1745  -18.5940   20.2114 O.3     1  UNL1       -0.4413
     12 S          -6.2495  -15.8969   23.9865 S.3     1  UNL1       -0.0734
     13 C          -7.3687  -16.7164   23.4155 C.2     1  UNL1        0.1813
     14 N          -8.6225  -16.9308   24.2106 N.2     1  UNL1       -0.2315
     15 C          -9.7416  -17.7503   23.6397 C.2     1  UNL1        0.0471
     16 C          -9.6070  -18.3554   22.2738 C.3     1  UNL1        0.1145
     17 C          -8.3533  -18.1410   21.4787 C.2     1  UNL1        0.2521
     18 O          -8.2186  -18.7460   20.1127 O.2     1  UNL1       -0.2725
     19 N          -7.2341  -17.3215   22.0497 N.am    1  UNL1       -0.1543
     20 C         -10.8684  -19.1101   21.9747 C.3     1  UNL1        0.0152
     21 C         -11.7825  -18.9714   23.1558 C.3     1  UNL1        0.0068
     22 C         -11.0862  -18.1310   24.1849 C.3     1  UNL1        0.0419
@<TRIPOS>BOND
     1    10    11    1
     2    11     8    1
     3     8     9    2
     4     8     2    1
     5     2     3   ar
     6     3     4   ar
     7     4     5   ar
     8     5     1    1
     9     1    12    1
    10    12    13    1
    11    13    14    1
    12    14    15    2
    13    15    16    1
    14    16    17    1
    15    17    18    2
    16    17    19    1
    17    16    20    1
    18    20    21    1
    19    21    22    1
    20     5     6   ar
    21     6     7   ar
    22     7     2   ar
    23    19    13    2
    24    22    15    1
