@<TRIPOS>MOLECULE
*****
 23 25 0 0 0
SMALL
GASTEIGER

@<TRIPOS>ATOM
      1 C          -8.5451  -16.9553   22.3402 C.2     1  UNL1       -0.0238
      2 C          -7.9523  -18.2771   21.9514 C.2     1  UNL1       -0.0420
      3 C          -9.0738  -19.1864   21.5448 C.3     1  UNL1        0.0480
      4 C         -10.3598  -18.4265   21.6822 C.ar    1  UNL1       -0.0184
      5 C         -11.7860  -18.8120   21.4233 C.ar    1  UNL1       -0.0040
      6 C         -12.8855  -17.8185   21.6559 C.ar    1  UNL1       -0.0003
      7 C         -12.5587  -16.4396   22.1476 C.ar    1  UNL1       -0.0000
      8 C         -11.1324  -16.0541   22.4066 C.ar    1  UNL1       -0.0006
      9 C         -10.0330  -17.0475   22.1739 C.ar    1  UNL1       -0.0078
     10 C          -7.7837  -15.7522   22.8125 C.3     1  UNL1        0.0763
     11 C          -5.9640  -15.4284   24.6384 C.ar    1  UNL1        0.2393
     12 N          -5.5816  -15.3024   26.0834 N.ar    1  UNL1       -0.2075
     13 C          -6.6364  -15.3744   27.1474 C.ar    1  UNL1        0.1227
     14 C          -8.0737  -15.5724   26.7664 C.ar    1  UNL1        0.1193
     15 N          -8.4561  -15.6983   25.3215 N.ar    1  UNL1       -0.2415
     16 C          -7.4013  -15.6263   24.2574 C.ar    1  UNL1        0.1163
     17 C          -3.9562  -16.4991   23.3845 C.3     1  UNL1        0.2543
     18 O          -4.9091  -15.3563   23.5745 O.3     1  UNL1       -0.4553
     19 C          -6.4940  -18.6281   21.9666 C.3     1  UNL1        0.0394
     20 C          -5.8251  -19.1087   20.7130 C.3     1  UNL1        0.0765
     21 N          -4.3293  -19.0846   20.6044 N.3     1  UNL1       -0.2700
     22 C          -3.6751  -18.5128   19.3816 C.3     1  UNL1        0.0897
     23 C          -3.4875  -19.6322   21.7187 C.3     1  UNL1        0.0897
@<TRIPOS>BOND
     1    17    18    1
     2    18    11    1
     3    11    12   ar
     4    12    13   ar
     5    13    14   ar
     6    14    15   ar
     7    15    16   ar
     8    16    10    1
     9    10     1    1
    10     1     2    2
    11     2    19    1
    12    19    20    1
    13    20    21    1
    14    21    22    1
    15    21    23    1
    16     2     3    1
    17     3     4    1
    18     4     5   ar
    19     5     6   ar
    20     6     7   ar
    21     7     8   ar
    22     8     9   ar
    23    16    11   ar
    24     9     1    1
    25     9     4   ar
@<TRIPOS>MOLECULE
*****
 23 25 0 0 0
SMALL
GASTEIGER

@<TRIPOS>ATOM
      1 C          -8.5277  -17.2483   23.6394 C.2     1  UNL1       -0.0238
      2 C          -9.6312  -18.0326   24.2854 C.2     1  UNL1       -0.0420
      3 C          -9.6122  -17.7349   25.7554 C.3     1  UNL1        0.0480
      4 C          -8.4970  -16.7667   26.0180 C.ar    1  UNL1       -0.0184
      5 C          -8.0053  -16.1201   27.2790 C.ar    1  UNL1       -0.0040
      6 C          -6.8433  -15.1727   27.2322 C.ar    1  UNL1       -0.0003
      7 C          -6.1731  -14.8719   25.9244 C.ar    1  UNL1       -0.0000
      8 C          -6.6648  -15.5186   24.6634 C.ar    1  UNL1       -0.0006
      9 C          -7.8268  -16.4659   24.7102 C.ar    1  UNL1       -0.0078
     10 C          -8.1853  -17.2466   22.1790 C.3     1  UNL1        0.0763
     11 C          -7.3804  -18.9971   20.4361 C.ar    1  UNL1        0.2393
     12 N          -6.3158  -19.9160   19.9143 N.ar    1  UNL1       -0.2075
     13 C          -4.9916  -20.0033   20.6135 C.ar    1  UNL1        0.1227
     14 C          -4.7320  -19.1716   21.8346 C.ar    1  UNL1        0.1193
     15 N          -5.7966  -18.2528   22.3564 N.ar    1  UNL1       -0.2415
     16 C          -7.1208  -18.1655   21.6572 C.ar    1  UNL1        0.1163
     17 C          -9.2152  -20.0798   18.9491 C.3     1  UNL1        0.2543
     18 O          -8.7046  -18.9099   19.7369 O.3     1  UNL1       -0.4553
     19 C         -10.5860  -18.9529   23.5844 C.3     1  UNL1        0.0394
     20 C         -11.9174  -18.4408   23.1206 C.3     1  UNL1        0.0765
     21 N         -11.9848  -17.3180   22.1282 N.3     1  UNL1       -0.2700
     22 C         -11.8248  -17.6007   20.6638 C.3     1  UNL1        0.0897
     23 C         -12.2121  -15.9125   22.6003 C.3     1  UNL1        0.0897
@<TRIPOS>BOND
     1    17    18    1
     2    18    11    1
     3    11    12   ar
     4    12    13   ar
     5    13    14   ar
     6    14    15   ar
     7    15    16   ar
     8    16    10    1
     9    10     1    1
    10     1     2    2
    11     2    19    1
    12    19    20    1
    13    20    21    1
    14    21    22    1
    15    21    23    1
    16     2     3    1
    17     3     4    1
    18     4     5   ar
    19     5     6   ar
    20     6     7   ar
    21     7     8   ar
    22     8     9   ar
    23    16    11   ar
    24     9     1    1
    25     9     4   ar
@<TRIPOS>MOLECULE
*****
 23 25 0 0 0
SMALL
GASTEIGER

@<TRIPOS>ATOM
      1 C          -6.9963  -18.5008   21.7664 C.2     1  UNL1       -0.0238
      2 C          -6.7068  -17.5067   22.8517 C.2     1  UNL1       -0.0420
      3 C          -5.2313  -17.5305   23.1206 C.3     1  UNL1        0.0480
      4 C          -4.6088  -18.5394   22.2015 C.ar    1  UNL1       -0.0184
      5 C          -3.1897  -18.9894   22.0186 C.ar    1  UNL1       -0.0040
      6 C          -2.8614  -20.0391   20.9986 C.ar    1  UNL1       -0.0003
      7 C          -3.9522  -20.6387   20.1616 C.ar    1  UNL1       -0.0000
      8 C          -5.3713  -20.1887   20.3446 C.ar    1  UNL1       -0.0006
      9 C          -5.6996  -19.1390   21.3645 C.ar    1  UNL1       -0.0078
     10 C          -8.3454  -18.8036   21.1849 C.3     1  UNL1        0.0763
     11 C         -10.6081  -17.6320   21.6925 C.ar    1  UNL1        0.2393
     12 N         -11.8381  -17.4940   22.5398 N.ar    1  UNL1       -0.2075
     13 C         -12.0356  -18.3896   23.7268 C.ar    1  UNL1        0.1227
     14 C         -11.0029  -19.4232   24.0666 C.ar    1  UNL1        0.1193
     15 N          -9.7729  -19.5611   23.2192 N.ar    1  UNL1       -0.2415
     16 C          -9.5754  -18.6655   22.0322 C.ar    1  UNL1        0.1163
     17 C         -11.5979  -16.1294   19.8183 C.3     1  UNL1        0.2543
     18 O         -10.4108  -16.7364   20.5055 O.3     1  UNL1       -0.4553
     19 C          -7.7158  -16.6408   23.5462 C.3     1  UNL1        0.0394
     20 C          -7.2761  -15.3856   24.2397 C.3     1  UNL1        0.0765
     21 N          -6.9262  -15.4175   25.6980 N.3     1  UNL1       -0.2700
     22 C          -8.0103  -15.5466   26.7267 C.3     1  UNL1        0.0897
     23 C          -5.4924  -15.3205   26.1275 C.3     1  UNL1        0.0897
@<TRIPOS>BOND
     1    17    18    1
     2    18    11    1
     3    11    12   ar
     4    12    13   ar
     5    13    14   ar
     6    14    15   ar
     7    15    16   ar
     8    16    10    1
     9    10     1    1
    10     1     2    2
    11     2    19    1
    12    19    20    1
    13    20    21    1
    14    21    22    1
    15    21    23    1
    16     2     3    1
    17     3     4    1
    18     4     5   ar
    19     5     6   ar
    20     6     7   ar
    21     7     8   ar
    22     8     9   ar
    23    16    11   ar
    24     9     1    1
    25     9     4   ar
@<TRIPOS>MOLECULE
*****
 23 25 0 0 0
SMALL
GASTEIGER

@<TRIPOS>ATOM
      1 C          -7.3614  -18.7492   21.9441 C.2     1  UNL1       -0.0238
      2 C          -7.0296  -17.6594   22.9198 C.2     1  UNL1       -0.0420
      3 C          -5.5359  -17.5452   22.9968 C.3     1  UNL1        0.0480
      4 C          -4.9446  -18.5645   22.0686 C.ar    1  UNL1       -0.0184
      5 C          -3.5246  -18.9111   21.7319 C.ar    1  UNL1       -0.0040
      6 C          -3.2329  -20.0019   20.7445 C.ar    1  UNL1       -0.0003
      7 C          -4.3612  -20.7461   20.0938 C.ar    1  UNL1       -0.0000
      8 C          -5.7811  -20.3994   20.4306 C.ar    1  UNL1       -0.0006
      9 C          -6.0728  -19.3086   21.4180 C.ar    1  UNL1       -0.0078
     10 C          -8.7398  -19.2005   21.5615 C.3     1  UNL1        0.0763
     11 C         -11.0087  -18.4904   22.6093 C.ar    1  UNL1        0.2393
     12 N         -12.1602  -17.5324   22.6875 N.ar    1  UNL1       -0.2075
     13 C         -12.1945  -16.3265   21.7961 C.ar    1  UNL1        0.1227
     14 C         -11.0772  -16.0786   20.8264 C.ar    1  UNL1        0.1193
     15 N          -9.9256  -17.0366   20.7483 N.ar    1  UNL1       -0.2415
     16 C          -9.8913  -18.2426   21.6397 C.ar    1  UNL1        0.1163
     17 C         -10.2579  -19.6357   24.8172 C.3     1  UNL1        0.2543
     18 O         -10.9745  -19.6963   23.5008 O.3     1  UNL1       -0.4553
     19 C          -8.0178  -16.8294   23.6844 C.3     1  UNL1        0.0394
     20 C          -7.5902  -15.5285   24.2964 C.3     1  UNL1        0.0765
     21 N          -7.1417  -15.4842   25.7271 N.3     1  UNL1       -0.2700
     22 C          -8.1532  -15.5531   26.8326 C.3     1  UNL1        0.0897
     23 C          -5.6818  -15.3710   26.0522 C.3     1  UNL1        0.0897
@<TRIPOS>BOND
     1    17    18    1
     2    18    11    1
     3    11    12   ar
     4    12    13   ar
     5    13    14   ar
     6    14    15   ar
     7    15    16   ar
     8    16    10    1
     9    10     1    1
    10     1     2    2
    11     2    19    1
    12    19    20    1
    13    20    21    1
    14    21    22    1
    15    21    23    1
    16     2     3    1
    17     3     4    1
    18     4     5   ar
    19     5     6   ar
    20     6     7   ar
    21     7     8   ar
    22     8     9   ar
    23    16    11   ar
    24     9     1    1
    25     9     4   ar
@<TRIPOS>MOLECULE
*****
 23 25 0 0 0
SMALL
GASTEIGER

@<TRIPOS>ATOM
      1 C          -7.2988  -18.5507   22.1900 C.2     1  UNL1       -0.0238
      2 C          -5.8555  -18.8924   21.9661 C.2     1  UNL1       -0.0420
      3 C          -5.0221  -17.9113   22.7362 C.3     1  UNL1        0.0480
      4 C          -5.9504  -16.9633   23.4360 C.ar    1  UNL1       -0.0184
      5 C          -5.6961  -15.7914   24.3370 C.ar    1  UNL1       -0.0040
      6 C          -6.8490  -15.0146   24.9004 C.ar    1  UNL1       -0.0003
      7 C          -8.2560  -15.4097   24.5628 C.ar    1  UNL1       -0.0000
      8 C          -8.5103  -16.5817   23.6619 C.ar    1  UNL1       -0.0006
      9 C          -7.3574  -17.3585   23.0985 C.ar    1  UNL1       -0.0078
     10 C          -8.4767  -19.2742   21.6077 C.3     1  UNL1        0.0763
     11 C         -10.9329  -18.9669   22.3968 C.ar    1  UNL1        0.2393
     12 N         -12.2573  -18.2723   22.2807 N.ar    1  UNL1       -0.2075
     13 C         -12.4500  -17.1905   21.2597 C.ar    1  UNL1        0.1227
     14 C         -11.3182  -16.8032   20.3546 C.ar    1  UNL1        0.1193
     15 N          -9.9938  -17.4978   20.4706 N.ar    1  UNL1       -0.2415
     16 C          -9.8011  -18.5797   21.4917 C.ar    1  UNL1        0.1163
     17 C         -10.2788  -19.7001   24.8019 C.3     1  UNL1        0.2543
     18 O         -10.7403  -20.0487   23.4178 O.3     1  UNL1       -0.4553
     19 C          -5.3367  -20.0175   21.1207 C.3     1  UNL1        0.0394
     20 C          -4.4799  -19.7239   19.9250 C.3     1  UNL1        0.0765
     21 N          -3.0844  -19.2063   20.1112 N.3     1  UNL1       -0.2700
     22 C          -2.5424  -18.1601   19.1829 C.3     1  UNL1        0.0897
     23 C          -2.2309  -19.7349   21.2257 C.3     1  UNL1        0.0897
@<TRIPOS>BOND
     1    17    18    1
     2    18    11    1
     3    11    12   ar
     4    12    13   ar
     5    13    14   ar
     6    14    15   ar
     7    15    16   ar
     8    16    10    1
     9    10     1    1
    10     1     2    2
    11     2    19    1
    12    19    20    1
    13    20    21    1
    14    21    22    1
    15    21    23    1
    16     2     3    1
    17     3     4    1
    18     4     5   ar
    19     5     6   ar
    20     6     7   ar
    21     7     8   ar
    22     8     9   ar
    23    16    11   ar
    24     9     1    1
    25     9     4   ar
@<TRIPOS>MOLECULE
*****
 23 25 0 0 0
SMALL
GASTEIGER

@<TRIPOS>ATOM
      1 C          -8.1480  -18.0875   22.0573 C.2     1  UNL1       -0.0238
      2 C          -8.7109  -19.0980   21.1024 C.2     1  UNL1       -0.0420
      3 C          -7.5795  -19.9512   20.6103 C.3     1  UNL1        0.0480
      4 C          -6.3174  -19.4679   21.2611 C.ar    1  UNL1       -0.0184
      5 C          -4.8937  -19.9279   21.1549 C.ar    1  UNL1       -0.0040
      6 C          -3.8212  -19.2360   21.9430 C.ar    1  UNL1       -0.0003
      7 C          -4.1726  -18.0841   22.8373 C.ar    1  UNL1       -0.0000
      8 C          -5.5963  -17.6241   22.9435 C.ar    1  UNL1       -0.0006
      9 C          -6.6687  -18.3160   22.1554 C.ar    1  UNL1       -0.0078
     10 C          -8.9274  -17.0333   22.7862 C.3     1  UNL1        0.0763
     11 C          -9.3364  -17.8449   25.2201 C.ar    1  UNL1        0.2393
     12 N          -9.1533  -17.6639   26.6978 N.ar    1  UNL1       -0.2075
     13 C          -8.3781  -16.4904   27.2194 C.ar    1  UNL1        0.1227
     14 C          -7.7860  -15.4979   26.2632 C.ar    1  UNL1        0.1193
     15 N          -7.9691  -15.6789   24.7855 N.ar    1  UNL1       -0.2415
     16 C          -8.7443  -16.8524   24.2639 C.ar    1  UNL1        0.1163
     17 C         -11.5957  -18.9120   24.5082 C.3     1  UNL1        0.2543
     18 O         -10.1116  -19.0184   24.6987 O.3     1  UNL1       -0.4553
     19 C         -10.1521  -19.2320   20.7087 C.3     1  UNL1        0.0394
     20 C         -10.7522  -18.2746   19.7222 C.3     1  UNL1        0.0765
     21 N         -11.6898  -17.2024   20.1926 N.3     1  UNL1       -0.2700
     22 C         -11.6657  -15.8488   19.5466 C.3     1  UNL1        0.0897
     23 C         -12.6513  -17.4838   21.3089 C.3     1  UNL1        0.0897
@<TRIPOS>BOND
     1    17    18    1
     2    18    11    1
     3    11    12   ar
     4    12    13   ar
     5    13    14   ar
     6    14    15   ar
     7    15    16   ar
     8    16    10    1
     9    10     1    1
    10     1     2    2
    11     2    19    1
    12    19    20    1
    13    20    21    1
    14    21    22    1
    15    21    23    1
    16     2     3    1
    17     3     4    1
    18     4     5   ar
    19     5     6   ar
    20     6     7   ar
    21     7     8   ar
    22     8     9   ar
    23    16    11   ar
    24     9     1    1
    25     9     4   ar
@<TRIPOS>MOLECULE
*****
 23 25 0 0 0
SMALL
GASTEIGER

@<TRIPOS>ATOM
      1 C          -7.0076  -18.0965   22.2320 C.2     1  UNL1       -0.0238
      2 C          -5.6311  -18.6683   22.0637 C.2     1  UNL1       -0.0420
      3 C          -4.7059  -17.9277   22.9832 C.3     1  UNL1        0.0480
      4 C          -5.5106  -16.8982   23.7198 C.ar    1  UNL1       -0.0184
      5 C          -5.1318  -15.8792   24.7533 C.ar    1  UNL1       -0.0040
      6 C          -6.1755  -14.9645   25.3225 C.ar    1  UNL1       -0.0003
      7 C          -7.5980  -15.0689   24.8583 C.ar    1  UNL1       -0.0000
      8 C          -7.9768  -16.0879   23.8248 C.ar    1  UNL1       -0.0006
      9 C          -6.9331  -17.0025   23.2555 C.ar    1  UNL1       -0.0078
     10 C          -8.2419  -18.5407   21.5045 C.3     1  UNL1        0.0763
     11 C         -10.6700  -17.6215   21.6008 C.ar    1  UNL1        0.2393
     12 N         -12.0063  -17.5508   22.2785 N.ar    1  UNL1       -0.2075
     13 C         -12.2509  -18.3287   23.5374 C.ar    1  UNL1        0.1227
     14 C         -11.1591  -19.1772   24.1188 C.ar    1  UNL1        0.1193
     15 N          -9.8228  -19.2479   23.4412 N.ar    1  UNL1       -0.2415
     16 C          -9.5782  -18.4700   22.1821 C.ar    1  UNL1        0.1163
     17 C         -11.5278  -16.0220   19.7418 C.3     1  UNL1        0.2543
     18 O         -10.4255  -16.8436   20.3418 O.3     1  UNL1       -0.4553
     19 C          -5.2473  -19.7847   21.1383 C.3     1  UNL1        0.0394
     20 C          -4.4275  -19.4970   19.9155 C.3     1  UNL1        0.0765
     21 N          -2.9648  -19.1922   20.0478 N.3     1  UNL1       -0.2700
     22 C          -2.2837  -18.3275   19.0287 C.3     1  UNL1        0.0897
     23 C          -2.1831  -19.7519   21.1992 C.3     1  UNL1        0.0897
@<TRIPOS>BOND
     1    17    18    1
     2    18    11    1
     3    11    12   ar
     4    12    13   ar
     5    13    14   ar
     6    14    15   ar
     7    15    16   ar
     8    16    10    1
     9    10     1    1
    10     1     2    2
    11     2    19    1
    12    19    20    1
    13    20    21    1
    14    21    22    1
    15    21    23    1
    16     2     3    1
    17     3     4    1
    18     4     5   ar
    19     5     6   ar
    20     6     7   ar
    21     7     8   ar
    22     8     9   ar
    23    16    11   ar
    24     9     1    1
    25     9     4   ar
@<TRIPOS>MOLECULE
*****
 23 25 0 0 0
SMALL
GASTEIGER

@<TRIPOS>ATOM
      1 C          -6.5632  -18.8077   21.4515 C.2     1  UNL1       -0.0238
      2 C          -6.8157  -19.8141   20.3682 C.2     1  UNL1       -0.0420
      3 C          -5.4991  -20.4213   19.9837 C.3     1  UNL1        0.0480
      4 C          -4.4329  -19.7902   20.8292 C.ar    1  UNL1       -0.0184
      5 C          -2.9482  -19.9947   20.8902 C.ar    1  UNL1       -0.0040
      6 C          -2.1211  -19.2020   21.8584 C.ar    1  UNL1       -0.0003
      7 C          -2.7788  -18.2047   22.7656 C.ar    1  UNL1       -0.0000
      8 C          -4.2635  -18.0002   22.7045 C.ar    1  UNL1       -0.0006
      9 C          -5.0905  -18.7929   21.7363 C.ar    1  UNL1       -0.0078
     10 C          -7.6011  -17.9642   22.1306 C.3     1  UNL1        0.0763
     11 C          -9.3993  -17.7113   23.9887 C.ar    1  UNL1        0.2393
     12 N         -10.3374  -18.3312   24.9815 N.ar    1  UNL1       -0.2075
     13 C         -10.4154  -19.8237   25.1091 C.ar    1  UNL1        0.1227
     14 C          -9.5553  -20.6964   24.2438 C.ar    1  UNL1        0.1193
     15 N          -8.6172  -20.0766   23.2510 N.ar    1  UNL1       -0.2415
     16 C          -8.5392  -18.5840   23.1234 C.ar    1  UNL1        0.1163
     17 C          -8.5296  -15.4215   24.8549 C.3     1  UNL1        0.2543
     18 O          -9.3213  -16.2188   23.8611 O.3     1  UNL1       -0.4553
     19 C          -8.1504  -20.1537   19.7740 C.3     1  UNL1        0.0394
     20 C          -9.0605  -19.0598   19.2996 C.3     1  UNL1        0.0765
     21 N         -10.3713  -18.8229   19.9891 N.3     1  UNL1       -0.2700
     22 C         -10.9998  -19.9162   20.8015 C.3     1  UNL1        0.0897
     23 C         -11.0538  -17.4928   19.8664 C.3     1  UNL1        0.0897
@<TRIPOS>BOND
     1    17    18    1
     2    18    11    1
     3    11    12   ar
     4    12    13   ar
     5    13    14   ar
     6    14    15   ar
     7    15    16   ar
     8    16    10    1
     9    10     1    1
    10     1     2    2
    11     2    19    1
    12    19    20    1
    13    20    21    1
    14    21    22    1
    15    21    23    1
    16     2     3    1
    17     3     4    1
    18     4     5   ar
    19     5     6   ar
    20     6     7   ar
    21     7     8   ar
    22     8     9   ar
    23    16    11   ar
    24     9     1    1
    25     9     4   ar
@<TRIPOS>MOLECULE
*****
 23 25 0 0 0
SMALL
GASTEIGER

@<TRIPOS>ATOM
      1 C          -7.2909  -18.6632   21.3242 C.2     1  UNL1       -0.0238
      2 C          -5.9013  -19.1602   21.5923 C.2     1  UNL1       -0.0420
      3 C          -5.6403  -20.3216   20.6797 C.3     1  UNL1        0.0480
      4 C          -6.8686  -20.5425   19.8475 C.ar    1  UNL1       -0.0184
      5 C          -7.1899  -21.5444   18.7785 C.ar    1  UNL1       -0.0040
      6 C          -8.5314  -21.5214   18.1079 C.ar    1  UNL1       -0.0003
      7 C          -9.5516  -20.4964   18.5062 C.ar    1  UNL1       -0.0000
      8 C          -9.2303  -19.4945   19.5752 C.ar    1  UNL1       -0.0006
      9 C          -7.8888  -19.5175   20.2458 C.ar    1  UNL1       -0.0078
     10 C          -7.9645  -17.5137   22.0134 C.3     1  UNL1        0.0763
     11 C         -10.5037  -16.9639   21.9941 C.ar    1  UNL1        0.2393
     12 N         -11.8749  -17.1379   22.5767 N.ar    1  UNL1       -0.2075
     13 C         -12.0783  -18.0358   23.7609 C.ar    1  UNL1        0.1227
     14 C         -10.9104  -18.7596   24.3627 C.ar    1  UNL1        0.1193
     15 N          -9.5392  -18.5856   23.7801 N.ar    1  UNL1       -0.2415
     16 C          -9.3357  -17.6877   22.5958 C.ar    1  UNL1        0.1163
     17 C         -11.3805  -15.9294   19.7780 C.3     1  UNL1        0.2543
     18 O         -10.3004  -16.0660   20.8099 O.3     1  UNL1       -0.4553
     19 C          -4.9413  -18.5950   22.5967 C.3     1  UNL1        0.0394
     20 C          -3.4647  -18.6564   22.3400 C.3     1  UNL1        0.0765
     21 N          -2.8292  -17.6923   21.3826 N.3     1  UNL1       -0.2700
     22 C          -2.2735  -16.3927   21.8850 C.3     1  UNL1        0.0897
     23 C          -2.7493  -18.0277   19.9228 C.3     1  UNL1        0.0897
@<TRIPOS>BOND
     1    17    18    1
     2    18    11    1
     3    11    12   ar
     4    12    13   ar
     5    13    14   ar
     6    14    15   ar
     7    15    16   ar
     8    16    10    1
     9    10     1    1
    10     1     2    2
    11     2    19    1
    12    19    20    1
    13    20    21    1
    14    21    22    1
    15    21    23    1
    16     2     3    1
    17     3     4    1
    18     4     5   ar
    19     5     6   ar
    20     6     7   ar
    21     7     8   ar
    22     8     9   ar
    23    16    11   ar
    24     9     1    1
    25     9     4   ar
