@<TRIPOS>MOLECULE
*****
 29 32 0 0 0
SMALL
GASTEIGER

@<TRIPOS>ATOM
      1 C           7.0123   -4.5233   31.9018 C.3     1  UNL1        0.0334
      2 C           6.5769   -3.7528   30.6907 C.ar    1  UNL1        0.0071
      3 C           6.7529   -4.3430   29.3230 C.ar    1  UNL1        0.1363
      4 F           7.3645   -5.7037   29.1664 F       1  UNL1       -0.2045
      5 C           6.3175   -3.5725   28.1120 C.ar    1  UNL1        0.0338
      6 C           5.7060   -2.2118   28.2686 C.ar    1  UNL1        0.0556
      7 C           5.5300   -1.6216   29.6363 C.ar    1  UNL1        0.0058
      8 C           5.9654   -2.3921   30.8474 C.ar    1  UNL1        0.0160
      9 C           5.7893   -1.8019   32.2151 C.ar    1  UNL1        0.0811
     10 C           6.8714   -0.9497   32.8092 C.ar    1  UNL1        0.0193
     11 C           6.6954   -0.3595   34.1769 C.ar    1  UNL1        0.0076
     12 C           5.4372   -0.6214   34.9506 C.ar    1  UNL1        0.0725
     13 C           4.3551   -1.4736   34.3565 C.ar    1  UNL1        0.1033
     14 N           4.5312   -2.0638   32.9887 N.ar    1  UNL1       -0.2437
     15 C           5.2612   -0.0312   36.3182 C.2     1  UNL1        0.2474
     16 O           6.4612    0.2577   37.1705 O.2     1  UNL1       -0.2701
     17 N           3.8851    0.2702   36.8336 N.am    1  UNL1       -0.3008
     18 H           3.0975    0.0806   36.2742 H       1  UNL1        0.1497
     19 C           3.7091    0.8604   38.2013 C.3     1  UNL1        0.0896
     20 C           2.3554    0.8654   38.8475 C.3     1  UNL1        0.0196
     21 C           1.2274    0.1276   39.5057 C.3     1  UNL1        0.0017
     22 C           1.1388    1.6120   39.3084 C.3     1  UNL1        0.0017
     23 C           5.2706   -1.4413   27.0575 C.2     1  UNL1        0.2459
     24 O           5.7867   -0.0519   26.8269 O.2     1  UNL1       -0.2701
     25 N           4.3190   -2.0601   26.0770 N.am    1  UNL1       -0.3025
     26 H           3.9802   -2.9720   26.2283 H       1  UNL1        0.1497
     27 C           3.8836   -1.2896   24.8659 C.3     1  UNL1        0.0720
     28 C           2.9340   -0.3340   24.2065 C.3     1  UNL1        0.0213
     29 C           4.0789   -0.9108   23.4278 C.3     1  UNL1        0.0213
@<TRIPOS>BOND
     1     1     2    1
     2     2     3   ar
     3     3     4    1
     4     3     5   ar
     5     5     6   ar
     6     6    23    1
     7    23    24    2
     8    23    25   am
     9    25    27    1
    10    27    28    1
    11    28    29    1
    12     6     7   ar
    13     7     8   ar
    14     8     9    1
    15     9    10   ar
    16    10    11   ar
    17    11    12   ar
    18    12    15    1
    19    15    16    2
    20    15    17   am
    21    17    19    1
    22    19    20    1
    23    20    21    1
    24    21    22    1
    25    12    13   ar
    26    13    14   ar
    27     8     2   ar
    28    14     9   ar
    29    29    27    1
    30    22    20    1
    31    25    26    1
    32    17    18    1
@<TRIPOS>MOLECULE
*****
 29 32 0 0 0
SMALL
GASTEIGER

@<TRIPOS>ATOM
      1 C           2.3136    5.0000   18.6410 C.3     1  UNL1        0.0334
      2 C           2.6471    3.5443   18.5012 C.ar    1  UNL1        0.0071
      3 C           4.0617    3.1208   18.2376 C.ar    1  UNL1        0.1363
      4 F           5.1429    4.1531   18.1138 F       1  UNL1       -0.2045
      5 C           4.3951    1.6650   18.0979 C.ar    1  UNL1        0.0338
      6 C           3.3139    0.6327   18.2217 C.ar    1  UNL1        0.0556
      7 C           1.8993    1.0562   18.4852 C.ar    1  UNL1        0.0058
      8 C           1.5659    2.5120   18.6250 C.ar    1  UNL1        0.0160
      9 C           0.1512    2.9354   18.8886 C.ar    1  UNL1        0.0811
     10 C          -0.4387    2.7691   20.2577 C.ar    1  UNL1        0.0193
     11 C          -1.8533    3.1926   20.5213 C.ar    1  UNL1        0.0076
     12 C          -2.6781    3.7823   19.4158 C.ar    1  UNL1        0.0725
     13 C          -2.0882    3.9486   18.0467 C.ar    1  UNL1        0.1033
     14 N          -0.6735    3.5251   17.7831 N.ar    1  UNL1       -0.2437
     15 C          -4.0927    4.2057   19.6794 C.2     1  UNL1        0.2474
     16 O          -4.7904    5.1269   18.7231 O.2     1  UNL1       -0.2701
     17 N          -4.8097    3.7079   20.8994 N.am    1  UNL1       -0.3008
     18 H          -4.3517    3.1033   21.5270 H       1  UNL1        0.1497
     19 C          -6.2243    4.1314   21.1630 C.3     1  UNL1        0.0896
     20 C          -6.6997    4.3220   22.5728 C.3     1  UNL1        0.0196
     21 C          -6.4144    4.3703   24.0446 C.3     1  UNL1        0.0017
     22 C          -7.8086    4.6039   23.5428 C.3     1  UNL1        0.0017
     23 C           3.6473   -0.8231   18.0819 C.2     1  UNL1        0.2459
     24 O           4.2399   -1.3374   16.8035 O.2     1  UNL1       -0.2701
     25 N           3.3882   -1.7645   19.2205 N.am    1  UNL1       -0.3025
     26 H           2.9992   -1.4270   20.0596 H       1  UNL1        0.1497
     27 C           3.7216   -3.2203   19.0807 C.3     1  UNL1        0.0720
     28 C           4.7065   -4.3011   18.7463 C.3     1  UNL1        0.0213
     29 C           3.3142   -4.6609   19.1731 C.3     1  UNL1        0.0213
@<TRIPOS>BOND
     1     1     2    1
     2     2     3   ar
     3     3     4    1
     4     3     5   ar
     5     5     6   ar
     6     6    23    1
     7    23    24    2
     8    23    25   am
     9    25    27    1
    10    27    28    1
    11    28    29    1
    12     6     7   ar
    13     7     8   ar
    14     8     9    1
    15     9    10   ar
    16    10    11   ar
    17    11    12   ar
    18    12    15    1
    19    15    16    2
    20    15    17   am
    21    17    19    1
    22    19    20    1
    23    20    21    1
    24    21    22    1
    25    12    13   ar
    26    13    14   ar
    27     8     2   ar
    28    14     9   ar
    29    29    27    1
    30    22    20    1
    31    25    26    1
    32    17    18    1
@<TRIPOS>MOLECULE
*****
 29 32 0 0 0
SMALL
GASTEIGER

@<TRIPOS>ATOM
      1 C           5.5163   -2.1603   18.2746 C.3     1  UNL1        0.0334
      2 C           4.3089   -1.3555   18.6546 C.ar    1  UNL1        0.0071
      3 C           3.5084   -0.6583   17.5949 C.ar    1  UNL1        0.1363
      4 F           3.9152   -0.7659   16.1551 F       1  UNL1       -0.2045
      5 C           2.3009    0.1466   17.9749 C.ar    1  UNL1        0.0338
      6 C           1.8941    0.2542   19.4146 C.ar    1  UNL1        0.0556
      7 C           2.6946   -0.4430   20.4743 C.ar    1  UNL1        0.0058
      8 C           3.9020   -1.2479   20.0943 C.ar    1  UNL1        0.0160
      9 C           4.7025   -1.9451   21.1541 C.ar    1  UNL1        0.0811
     10 C           4.2520   -3.2754   21.6807 C.ar    1  UNL1        0.0193
     11 C           5.0524   -3.9726   22.7404 C.ar    1  UNL1        0.0076
     12 C           6.3035   -3.3396   23.2736 C.ar    1  UNL1        0.0725
     13 C           6.7540   -2.0093   22.7470 C.ar    1  UNL1        0.1033
     14 N           5.9534   -1.3120   21.6872 N.ar    1  UNL1       -0.2437
     15 C           7.1039   -4.0368   24.3334 C.2     1  UNL1        0.2474
     16 O           8.5987   -4.0981   24.2255 O.2     1  UNL1       -0.2701
     17 N           6.4095   -4.6728   25.5010 N.am    1  UNL1       -0.3008
     18 H           5.4284   -4.6326   25.5718 H       1  UNL1        0.1497
     19 C           7.2100   -5.3700   26.5607 C.3     1  UNL1        0.0896
     20 C           7.6887   -6.7739   26.3371 C.3     1  UNL1        0.0196
     21 C           7.8502   -8.1840   26.8221 C.3     1  UNL1        0.0017
     22 C           8.3563   -7.7952   25.4647 C.3     1  UNL1        0.0017
     23 C           0.6867    1.0591   19.7946 C.2     1  UNL1        0.2459
     24 O          -0.2830    0.5244   20.8064 O.2     1  UNL1       -0.2701
     25 N           0.4489    2.3985   19.1627 N.am    1  UNL1       -0.3025
     26 H           1.0853    2.7494   18.4986 H       1  UNL1        0.1497
     27 C          -0.7585    3.2034   19.5427 C.3     1  UNL1        0.0720
     28 C          -1.6823    4.3577   19.2900 C.3     1  UNL1        0.0213
     29 C          -1.9258    3.4430   20.4536 C.3     1  UNL1        0.0213
@<TRIPOS>BOND
     1     1     2    1
     2     2     3   ar
     3     3     4    1
     4     3     5   ar
     5     5     6   ar
     6     6    23    1
     7    23    24    2
     8    23    25   am
     9    25    27    1
    10    27    28    1
    11    28    29    1
    12     6     7   ar
    13     7     8   ar
    14     8     9    1
    15     9    10   ar
    16    10    11   ar
    17    11    12   ar
    18    12    15    1
    19    15    16    2
    20    15    17   am
    21    17    19    1
    22    19    20    1
    23    20    21    1
    24    21    22    1
    25    12    13   ar
    26    13    14   ar
    27     8     2   ar
    28    14     9   ar
    29    29    27    1
    30    22    20    1
    31    25    26    1
    32    17    18    1
@<TRIPOS>MOLECULE
*****
 29 32 0 0 0
SMALL
GASTEIGER

@<TRIPOS>ATOM
      1 C           9.1099   -5.2161   23.5871 C.3     1  UNL1        0.0334
      2 C           7.9215   -4.6366   22.8786 C.ar    1  UNL1        0.0071
      3 C           7.9285   -4.5078   21.3842 C.ar    1  UNL1        0.1363
      4 F           9.1240   -4.9585   20.5982 F       1  UNL1       -0.2045
      5 C           6.7402   -3.9283   20.6758 C.ar    1  UNL1        0.0338
      6 C           5.5447   -3.4775   21.4617 C.ar    1  UNL1        0.0556
      7 C           5.5377   -3.6063   22.9561 C.ar    1  UNL1        0.0058
      8 C           6.7261   -4.1859   23.6646 C.ar    1  UNL1        0.0160
      9 C           6.7190   -4.3146   25.1591 C.ar    1  UNL1        0.0811
     10 C           6.7850   -5.6715   25.7952 C.ar    1  UNL1        0.0193
     11 C           6.7779   -5.8003   27.2896 C.ar    1  UNL1        0.0076
     12 C           6.7047   -4.5722   28.1480 C.ar    1  UNL1        0.0725
     13 C           6.6387   -3.2154   27.5118 C.ar    1  UNL1        0.1033
     14 N           6.6458   -3.0867   26.0173 N.ar    1  UNL1       -0.2437
     15 C           6.6976   -4.7011   29.6424 C.2     1  UNL1        0.2474
     16 O           6.8615   -6.0490   30.2797 O.2     1  UNL1       -0.2701
     17 N           6.5267   -3.4820   30.4995 N.am    1  UNL1       -0.3008
     18 H           6.4192   -2.5973   30.0811 H       1  UNL1        0.1497
     19 C           6.5196   -3.6108   31.9939 C.3     1  UNL1        0.0896
     20 C           5.6155   -2.7421   32.8173 C.3     1  UNL1        0.0196
     21 C           5.3716   -1.4703   33.5741 C.3     1  UNL1        0.0017
     22 C           4.2934   -2.5094   33.4865 C.3     1  UNL1        0.0017
     23 C           4.3564   -2.8980   20.7532 C.2     1  UNL1        0.2459
     24 O           3.6138   -3.7179   19.7402 O.2     1  UNL1       -0.2701
     25 N           3.9106   -1.4986   21.0578 N.am    1  UNL1       -0.3025
     26 H           4.3980   -0.9604   21.7227 H       1  UNL1        0.1497
     27 C           2.7222   -0.9191   20.3493 C.3     1  UNL1        0.0720
     28 C           1.2376   -0.7354   20.2395 C.3     1  UNL1        0.0213
     29 C           2.1486   -0.0990   19.2320 C.3     1  UNL1        0.0213
@<TRIPOS>BOND
     1     1     2    1
     2     2     3   ar
     3     3     4    1
     4     3     5   ar
     5     5     6   ar
     6     6    23    1
     7    23    24    2
     8    23    25   am
     9    25    27    1
    10    27    28    1
    11    28    29    1
    12     6     7   ar
    13     7     8   ar
    14     8     9    1
    15     9    10   ar
    16    10    11   ar
    17    11    12   ar
    18    12    15    1
    19    15    16    2
    20    15    17   am
    21    17    19    1
    22    19    20    1
    23    20    21    1
    24    21    22    1
    25    12    13   ar
    26    13    14   ar
    27     8     2   ar
    28    14     9   ar
    29    29    27    1
    30    22    20    1
    31    25    26    1
    32    17    18    1
@<TRIPOS>MOLECULE
*****
 29 32 0 0 0
SMALL
GASTEIGER

@<TRIPOS>ATOM
      1 C           3.7726   -0.8884   17.9943 C.3     1  UNL1        0.0334
      2 C           4.3586   -1.5938   19.1813 C.ar    1  UNL1        0.0071
      3 C           5.4623   -2.5916   18.9913 C.ar    1  UNL1        0.1363
      4 F           5.9800   -2.8842   17.6142 F       1  UNL1       -0.2045
      5 C           6.0483   -3.2970   20.1784 C.ar    1  UNL1        0.0338
      6 C           5.5306   -3.0044   21.5555 C.ar    1  UNL1        0.0556
      7 C           4.4269   -2.0066   21.7455 C.ar    1  UNL1        0.0058
      8 C           3.8409   -1.3013   20.5584 C.ar    1  UNL1        0.0160
      9 C           2.7372   -0.3034   20.7485 C.ar    1  UNL1        0.0811
     10 C           1.3179   -0.6900   20.4552 C.ar    1  UNL1        0.0193
     11 C           0.2141    0.3078   20.6452 C.ar    1  UNL1        0.0076
     12 C           0.5297    1.6924   21.1286 C.ar    1  UNL1        0.0725
     13 C           1.9491    2.0790   21.4219 C.ar    1  UNL1        0.1033
     14 N           3.0528    1.0811   21.2318 N.ar    1  UNL1       -0.2437
     15 C          -0.5740    2.6902   21.3187 C.2     1  UNL1        0.2474
     16 O          -0.3445    3.9112   22.1591 O.2     1  UNL1       -0.2701
     17 N          -1.9071    2.4669   20.6683 N.am    1  UNL1       -0.3008
     18 H          -2.0576    1.6655   20.1167 H       1  UNL1        0.1497
     19 C          -3.0108    3.4647   20.8583 C.3     1  UNL1        0.0896
     20 C          -3.8703    3.4075   22.0863 C.3     1  UNL1        0.0196
     21 C          -5.2286    3.3394   22.7191 C.3     1  UNL1        0.0017
     22 C          -4.0009    3.3766   23.5802 C.3     1  UNL1        0.0017
     23 C           6.1166   -3.7098   22.7425 C.2     1  UNL1        0.2459
     24 O           6.9535   -4.9390   22.5467 O.2     1  UNL1       -0.2701
     25 N           5.8656   -3.1859   24.1254 N.am    1  UNL1       -0.3025
     26 H           5.3163   -2.3790   24.2540 H       1  UNL1        0.1497
     27 C           6.4516   -3.8912   25.3125 C.3     1  UNL1        0.0720
     28 C           6.9829   -5.1412   25.9489 C.3     1  UNL1        0.0213
     29 C           6.9351   -3.8628   26.7321 C.3     1  UNL1        0.0213
@<TRIPOS>BOND
     1     1     2    1
     2     2     3   ar
     3     3     4    1
     4     3     5   ar
     5     5     6   ar
     6     6    23    1
     7    23    24    2
     8    23    25   am
     9    25    27    1
    10    27    28    1
    11    28    29    1
    12     6     7   ar
    13     7     8   ar
    14     8     9    1
    15     9    10   ar
    16    10    11   ar
    17    11    12   ar
    18    12    15    1
    19    15    16    2
    20    15    17   am
    21    17    19    1
    22    19    20    1
    23    20    21    1
    24    21    22    1
    25    12    13   ar
    26    13    14   ar
    27     8     2   ar
    28    14     9   ar
    29    29    27    1
    30    22    20    1
    31    25    26    1
    32    17    18    1
@<TRIPOS>MOLECULE
*****
 29 32 0 0 0
SMALL
GASTEIGER

@<TRIPOS>ATOM
      1 C           9.2928   -1.2622   33.8374 C.3     1  UNL1        0.0334
      2 C           8.0399   -0.7386   34.4746 C.ar    1  UNL1        0.0071
      3 C           8.1053   -0.0589   35.8102 C.ar    1  UNL1        0.1363
      4 F           9.4237    0.0972   36.5085 F       1  UNL1       -0.2045
      5 C           6.8524    0.4647   36.4474 C.ar    1  UNL1        0.0338
      6 C           5.5341    0.3087   35.7491 C.ar    1  UNL1        0.0556
      7 C           5.4687   -0.3710   34.4136 C.ar    1  UNL1        0.0058
      8 C           6.7216   -0.8946   33.7763 C.ar    1  UNL1        0.0160
      9 C           6.6561   -1.5743   32.4407 C.ar    1  UNL1        0.0811
     10 C           6.5837   -3.0706   32.3634 C.ar    1  UNL1        0.0193
     11 C           6.5182   -3.7503   31.0279 C.ar    1  UNL1        0.0076
     12 C           6.5252   -2.9338   29.7696 C.ar    1  UNL1        0.0725
     13 C           6.5977   -1.4375   29.8469 C.ar    1  UNL1        0.1033
     14 N           6.6632   -0.7578   31.1825 N.ar    1  UNL1       -0.2437
     15 C           6.4598   -3.6135   28.4340 C.2     1  UNL1        0.2474
     16 O           6.2655   -2.8014   27.1880 O.2     1  UNL1       -0.2701
     17 N           6.5886   -5.1053   28.3446 N.am    1  UNL1       -0.3008
     18 H           6.7162   -5.6382   29.1625 H       1  UNL1        0.1497
     19 C           6.5232   -5.7850   27.0091 C.3     1  UNL1        0.0896
     20 C           7.3777   -6.9873   26.7368 C.3     1  UNL1        0.0196
     21 C           7.9767   -8.2852   27.1914 C.3     1  UNL1        0.0017
     22 C           8.2588   -7.7719   25.8105 C.3     1  UNL1        0.0017
     23 C           4.2812    0.8323   36.3863 C.2     1  UNL1        0.2459
     24 O           3.4005    1.7868   35.6359 O.2     1  UNL1       -0.2701
     25 N           3.9090    0.4013   37.7740 N.am    1  UNL1       -0.3025
     26 H           4.4870   -0.2252   38.2666 H       1  UNL1        0.1497
     27 C           2.6561    0.9250   38.4112 C.3     1  UNL1        0.0720
     28 C           1.7494    2.0729   38.7431 C.3     1  UNL1        0.0213
     29 C           1.3927    0.6839   39.1831 C.3     1  UNL1        0.0213
@<TRIPOS>BOND
     1     1     2    1
     2     2     3   ar
     3     3     4    1
     4     3     5   ar
     5     5     6   ar
     6     6    23    1
     7    23    24    2
     8    23    25   am
     9    25    27    1
    10    27    28    1
    11    28    29    1
    12     6     7   ar
    13     7     8   ar
    14     8     9    1
    15     9    10   ar
    16    10    11   ar
    17    11    12   ar
    18    12    15    1
    19    15    16    2
    20    15    17   am
    21    17    19    1
    22    19    20    1
    23    20    21    1
    24    21    22    1
    25    12    13   ar
    26    13    14   ar
    27     8     2   ar
    28    14     9   ar
    29    29    27    1
    30    22    20    1
    31    25    26    1
    32    17    18    1
@<TRIPOS>MOLECULE
*****
 29 32 0 0 0
SMALL
GASTEIGER

@<TRIPOS>ATOM
      1 C           5.1726    0.3353   37.0517 C.3     1  UNL1        0.0334
      2 C           4.2285    1.2190   36.2916 C.ar    1  UNL1        0.0071
      3 C           3.4796    2.3054   37.0049 C.ar    1  UNL1        0.1363
      4 F           3.6747    2.5081   38.4783 F       1  UNL1       -0.2045
      5 C           2.5355    3.1891   36.2448 C.ar    1  UNL1        0.0338
      6 C           2.3403    2.9865   34.7715 C.ar    1  UNL1        0.0556
      7 C           3.0892    1.9001   34.0582 C.ar    1  UNL1        0.0058
      8 C           4.0333    1.0163   34.8183 C.ar    1  UNL1        0.0160
      9 C           4.7822   -0.0701   34.1050 C.ar    1  UNL1        0.0811
     10 C           4.1354   -1.4050   33.8818 C.ar    1  UNL1        0.0193
     11 C           4.8843   -2.4914   33.1685 C.ar    1  UNL1        0.0076
     12 C           6.2800   -2.2430   32.6783 C.ar    1  UNL1        0.0725
     13 C           6.9269   -0.9082   32.9014 C.ar    1  UNL1        0.1033
     14 N           6.1779    0.1783   33.6148 N.ar    1  UNL1       -0.2437
     15 C           7.0289   -3.3294   31.9650 C.2     1  UNL1        0.2474
     16 O           8.1987   -2.9851   31.0917 O.2     1  UNL1       -0.2701
     17 N           6.6079   -4.7602   32.1250 N.am    1  UNL1       -0.3008
     18 H           5.8400   -4.9862   32.6983 H       1  UNL1        0.1497
     19 C           7.3567   -5.8466   31.4117 C.3     1  UNL1        0.0896
     20 C           7.3157   -5.9274   29.9145 C.3     1  UNL1        0.0196
     21 C           6.7313   -5.4864   28.6053 C.3     1  UNL1        0.0017
     22 C           7.8291   -6.5082   28.6304 C.3     1  UNL1        0.0017
     23 C           1.3962    3.8702   34.0114 C.2     1  UNL1        0.2459
     24 O           0.9829    3.5025   32.6172 O.2     1  UNL1       -0.2701
     25 N           0.8655    5.1216   34.6456 N.am    1  UNL1       -0.3025
     26 H           1.1367    5.3630   35.5607 H       1  UNL1        0.1497
     27 C          -0.0786    6.0054   33.8855 C.3     1  UNL1        0.0720
     28 C          -1.1258    6.1802   32.8259 C.3     1  UNL1        0.0213
     29 C          -0.6666    7.3612   33.6286 C.3     1  UNL1        0.0213
@<TRIPOS>BOND
     1     1     2    1
     2     2     3   ar
     3     3     4    1
     4     3     5   ar
     5     5     6   ar
     6     6    23    1
     7    23    24    2
     8    23    25   am
     9    25    27    1
    10    27    28    1
    11    28    29    1
    12     6     7   ar
    13     7     8   ar
    14     8     9    1
    15     9    10   ar
    16    10    11   ar
    17    11    12   ar
    18    12    15    1
    19    15    16    2
    20    15    17   am
    21    17    19    1
    22    19    20    1
    23    20    21    1
    24    21    22    1
    25    12    13   ar
    26    13    14   ar
    27     8     2   ar
    28    14     9   ar
    29    29    27    1
    30    22    20    1
    31    25    26    1
    32    17    18    1
@<TRIPOS>MOLECULE
*****
 29 32 0 0 0
SMALL
GASTEIGER

@<TRIPOS>ATOM
      1 C           0.3146    2.1197   24.5797 C.3     1  UNL1        0.0334
      2 C          -1.0039    2.7430   24.9305 C.ar    1  UNL1        0.0071
      3 C          -1.8840    3.2951   23.8486 C.ar    1  UNL1        0.1363
      4 F          -1.4456    3.2240   22.4158 F       1  UNL1       -0.2045
      5 C          -3.2025    3.9184   24.1994 C.ar    1  UNL1        0.0338
      6 C          -3.6409    3.9896   25.6321 C.ar    1  UNL1        0.0556
      7 C          -2.7608    3.4375   26.7140 C.ar    1  UNL1        0.0058
      8 C          -1.4423    2.8142   26.3632 C.ar    1  UNL1        0.0160
      9 C          -0.5622    2.2620   27.4452 C.ar    1  UNL1        0.0811
     10 C          -0.7747    0.8635   27.9441 C.ar    1  UNL1        0.0193
     11 C           0.1053    0.3114   29.0261 C.ar    1  UNL1        0.0076
     12 C           1.1980    1.1577   29.6091 C.ar    1  UNL1        0.0725
     13 C           1.4105    2.5562   29.1101 C.ar    1  UNL1        0.1033
     14 N           0.5304    3.1084   28.0281 N.ar    1  UNL1       -0.2437
     15 C           2.0780    0.6056   30.6910 C.2     1  UNL1        0.2474
     16 O           2.1404   -0.8748   30.9245 O.2     1  UNL1       -0.2701
     17 N           2.8956    1.5338   31.5395 N.am    1  UNL1       -0.3008
     18 H           2.8546    2.5054   31.3863 H       1  UNL1        0.1497
     19 C           3.7756    0.9817   32.6214 C.3     1  UNL1        0.0896
     20 C           3.5535    1.3867   34.0486 C.3     1  UNL1        0.0196
     21 C           3.9427    1.3132   35.4953 C.3     1  UNL1        0.0017
     22 C           2.7798    2.1616   35.0736 C.3     1  UNL1        0.0017
     23 C          -4.9594    4.6129   25.9829 C.2     1  UNL1        0.2459
     24 O          -6.1145    4.5097   25.0316 O.2     1  UNL1       -0.2701
     25 N          -5.1228    5.3393   27.2850 N.am    1  UNL1       -0.3025
     26 H          -4.3646    5.4070   27.9094 H       1  UNL1        0.1497
     27 C          -6.4413    5.9626   27.6358 C.3     1  UNL1        0.0720
     28 C          -7.6770    6.7064   27.2240 C.3     1  UNL1        0.0213
     29 C          -7.4892    6.2983   28.6551 C.3     1  UNL1        0.0213
@<TRIPOS>BOND
     1     1     2    1
     2     2     3   ar
     3     3     4    1
     4     3     5   ar
     5     5     6   ar
     6     6    23    1
     7    23    24    2
     8    23    25   am
     9    25    27    1
    10    27    28    1
    11    28    29    1
    12     6     7   ar
    13     7     8   ar
    14     8     9    1
    15     9    10   ar
    16    10    11   ar
    17    11    12   ar
    18    12    15    1
    19    15    16    2
    20    15    17   am
    21    17    19    1
    22    19    20    1
    23    20    21    1
    24    21    22    1
    25    12    13   ar
    26    13    14   ar
    27     8     2   ar
    28    14     9   ar
    29    29    27    1
    30    22    20    1
    31    25    26    1
    32    17    18    1
@<TRIPOS>MOLECULE
*****
 29 32 0 0 0
SMALL
GASTEIGER

@<TRIPOS>ATOM
      1 C           2.2584    4.9977   18.8128 C.3     1  UNL1        0.0334
      2 C           2.5931    3.5464   18.6349 C.ar    1  UNL1        0.0071
      3 C           4.0203    3.1228   18.4515 C.ar    1  UNL1        0.1363
      4 F           5.1129    4.1506   18.4460 F       1  UNL1       -0.2045
      5 C           4.3550    1.6715   18.2736 C.ar    1  UNL1        0.0338
      6 C           3.2625    0.6437   18.2791 C.ar    1  UNL1        0.0556
      7 C           1.8354    1.0673   18.4625 C.ar    1  UNL1        0.0058
      8 C           1.5006    2.5186   18.6404 C.ar    1  UNL1        0.0160
      9 C           0.0733    2.9421   18.8239 C.ar    1  UNL1        0.0811
     10 C          -0.5798    2.8151   20.1682 C.ar    1  UNL1        0.0193
     11 C          -2.0070    3.2386   20.3517 C.ar    1  UNL1        0.0076
     12 C          -2.7811    3.7890   19.1907 C.ar    1  UNL1        0.0725
     13 C          -2.1280    3.9160   17.8464 C.ar    1  UNL1        0.1033
     14 N          -0.7008    3.4925   17.6629 N.ar    1  UNL1       -0.2437
     15 C          -4.2084    4.2125   19.3742 C.2     1  UNL1        0.2474
     16 O          -4.5920    5.0691   20.5442 O.2     1  UNL1       -0.2701
     17 N          -5.2520    3.7793   18.3877 N.am    1  UNL1       -0.3008
     18 H          -5.0001    3.2171   17.6197 H       1  UNL1        0.1497
     19 C          -6.6792    4.2028   18.5711 C.3     1  UNL1        0.0896
     20 C          -7.1025    5.5933   18.2005 C.3     1  UNL1        0.0196
     21 C          -7.0568    7.0730   18.4424 C.3     1  UNL1        0.0017
     22 C          -7.8813    6.5220   17.3169 C.3     1  UNL1        0.0017
     23 C           3.5973   -0.8076   18.1012 C.2     1  UNL1        0.2459
     24 O           4.0939   -1.3058   16.7765 O.2     1  UNL1       -0.2701
     25 N           3.4353   -1.7607   19.2481 N.am    1  UNL1       -0.3025
     26 H           3.1093   -1.4337   20.1176 H       1  UNL1        0.1497
     27 C           3.7700   -3.2120   19.0702 C.3     1  UNL1        0.0720
     28 C           3.3555   -4.6533   19.0960 C.3     1  UNL1        0.0213
     29 C           4.7642   -4.2844   18.7362 C.3     1  UNL1        0.0213
@<TRIPOS>BOND
     1     1     2    1
     2     2     3   ar
     3     3     4    1
     4     3     5   ar
     5     5     6   ar
     6     6    23    1
     7    23    24    2
     8    23    25   am
     9    25    27    1
    10    27    28    1
    11    28    29    1
    12     6     7   ar
    13     7     8   ar
    14     8     9    1
    15     9    10   ar
    16    10    11   ar
    17    11    12   ar
    18    12    15    1
    19    15    16    2
    20    15    17   am
    21    17    19    1
    22    19    20    1
    23    20    21    1
    24    21    22    1
    25    12    13   ar
    26    13    14   ar
    27     8     2   ar
    28    14     9   ar
    29    29    27    1
    30    22    20    1
    31    25    26    1
    32    17    18    1
