@<TRIPOS>MOLECULE
*****
 16 18 0 0 0
SMALL
GASTEIGER

@<TRIPOS>ATOM
      1 C         -12.4524  -16.1422   22.6930 C.3     1  UNL1        0.0061
      2 C         -11.4182  -16.9973   22.0226 C.3     1  UNL1        0.0383
      3 C         -12.5768  -17.4788   21.2005 C.3     1  UNL1        0.0061
      4 C         -10.4758  -16.3371   22.9849 C.3     1  UNL1        0.0948
      5 N          -9.1016  -16.8849   22.7373 N.pl3   1  UNL1       -0.3062
      6 C          -7.8902  -16.4587   23.5126 C.3     1  UNL1        0.1078
      7 C          -6.4726  -16.9261   23.3639 C.3     1  UNL1        0.0905
      8 N          -5.9164  -17.9350   22.4034 N.3     1  UNL1       -0.2923
      9 C          -6.6402  -18.7258   21.3543 C.3     1  UNL1        0.0969
     10 C          -8.0992  -18.7029   21.0066 C.ar    1  UNL1        0.0067
     11 C          -8.4959  -19.6283   19.8939 C.ar    1  UNL1       -0.0017
     12 C          -9.9161  -19.7286   19.4216 C.ar    1  UNL1       -0.0005
     13 C         -10.9813  -18.8910   20.0648 C.ar    1  UNL1       -0.0030
     14 C         -10.6264  -17.9531   21.1804 C.ar    1  UNL1       -0.0081
     15 C          -9.1946  -17.8836   21.6221 C.ar    1  UNL1        0.0411
     16 H          -5.4787  -18.6392   22.9976 H       1  UNL1        0.1236
@<TRIPOS>BOND
     1     1     2    1
     2     2     3    1
     3     2     4    1
     4     4     5    1
     5     5     6    1
     6     6     7    1
     7     7     8    1
     8     8     9    1
     9     9    10    1
    10    10    11   ar
    11    11    12   ar
    12    12    13   ar
    13    13    14   ar
    14    14    15   ar
    15    14     2    1
    16    15     5    1
    17    15    10   ar
    18     8    16    1
@<TRIPOS>MOLECULE
*****
 16 18 0 0 0
SMALL
GASTEIGER

@<TRIPOS>ATOM
      1 C          -5.2061  -19.7624   21.4140 C.3     1  UNL1        0.0061
      2 C          -6.6350  -19.3861   21.1555 C.3     1  UNL1        0.0383
      3 C          -6.5268  -20.3726   20.0308 C.3     1  UNL1        0.0061
      4 C          -6.4445  -18.4782   22.3343 C.3     1  UNL1        0.0948
      5 N          -7.7330  -17.7471   22.5691 N.pl3   1  UNL1       -0.3062
      6 C          -7.9263  -16.7458   23.6693 C.3     1  UNL1        0.1078
      7 C          -9.1542  -15.9533   24.0075 C.3     1  UNL1        0.0905
      8 N         -10.4918  -15.9663   23.3292 N.3     1  UNL1       -0.2923
      9 C         -10.9323  -16.7750   22.1450 C.3     1  UNL1        0.0969
     10 C         -10.1436  -17.7704   21.3468 C.ar    1  UNL1        0.0067
     11 C         -10.8951  -18.4067   20.2145 C.ar    1  UNL1       -0.0017
     12 C         -10.2544  -19.4238   19.3171 C.ar    1  UNL1       -0.0005
     13 C          -8.8275  -19.8284   19.5409 C.ar    1  UNL1       -0.0030
     14 C          -8.0412  -19.2160   20.6619 C.ar    1  UNL1       -0.0081
     15 C          -8.7198  -18.2030   21.5356 C.ar    1  UNL1        0.0411
     16 H         -10.6454  -14.9978   23.0485 H       1  UNL1        0.1236
@<TRIPOS>BOND
     1     1     2    1
     2     2     3    1
     3     2     4    1
     4     4     5    1
     5     5     6    1
     6     6     7    1
     7     7     8    1
     8     8     9    1
     9     9    10    1
    10    10    11   ar
    11    11    12   ar
    12    12    13   ar
    13    13    14   ar
    14    14    15   ar
    15    14     2    1
    16    15     5    1
    17    15    10   ar
    18     8    16    1
@<TRIPOS>MOLECULE
*****
 16 18 0 0 0
SMALL
GASTEIGER

@<TRIPOS>ATOM
      1 C          -7.3290  -16.0973   24.3170 C.3     1  UNL1        0.0061
      2 C          -8.4712  -16.5991   23.4842 C.3     1  UNL1        0.0383
      3 C          -9.3078  -15.7750   24.4175 C.3     1  UNL1        0.0061
      4 C          -7.3959  -17.3183   22.7249 C.3     1  UNL1        0.0948
      5 N          -8.0485  -18.0922   21.6181 N.pl3   1  UNL1       -0.3062
      6 C          -7.2873  -18.9398   20.6422 C.3     1  UNL1        0.1078
      7 C          -7.8170  -19.7559   19.5004 C.3     1  UNL1        0.0905
      8 N          -9.2383  -19.9259   19.0526 N.3     1  UNL1       -0.2923
      9 C         -10.4813  -19.3219   19.6359 C.3     1  UNL1        0.0969
     10 C         -10.6098  -18.3986   20.8111 C.ar    1  UNL1        0.0067
     11 C         -12.0144  -17.9780   21.1309 C.ar    1  UNL1       -0.0017
     12 C         -12.3195  -17.0570   22.2748 C.ar    1  UNL1       -0.0005
     13 C         -11.2065  -16.5323   23.1327 C.ar    1  UNL1       -0.0030
     14 C          -9.7884  -16.9285   22.8466 C.ar    1  UNL1       -0.0081
     15 C          -9.5271  -17.8514   21.6932 C.ar    1  UNL1        0.0411
     16 H          -9.4002  -20.9322   19.0927 H       1  UNL1        0.1236
@<TRIPOS>BOND
     1     1     2    1
     2     2     3    1
     3     2     4    1
     4     4     5    1
     5     5     6    1
     6     6     7    1
     7     7     8    1
     8     8     9    1
     9     9    10    1
    10    10    11   ar
    11    11    12   ar
    12    12    13   ar
    13    13    14   ar
    14    14    15   ar
    15    14     2    1
    16    15     5    1
    17    15    10   ar
    18     8    16    1
@<TRIPOS>MOLECULE
*****
 16 18 0 0 0
SMALL
GASTEIGER

@<TRIPOS>ATOM
      1 C          -8.4158  -20.0204   19.1986 C.3     1  UNL1        0.0061
      2 C          -9.2052  -19.1819   20.1598 C.3     1  UNL1        0.0383
      3 C         -10.3873  -19.6960   19.3927 C.3     1  UNL1        0.0061
      4 C          -7.8581  -18.8432   20.7260 C.3     1  UNL1        0.0948
      5 N          -8.0622  -17.9028   21.8767 N.pl3   1  UNL1       -0.3062
      6 C          -6.9371  -17.3425   22.6954 C.3     1  UNL1        0.1078
      7 C          -7.0074  -16.4014   23.8614 C.3     1  UNL1        0.0905
      8 N          -8.2200  -15.7883   24.4965 N.3     1  UNL1       -0.2923
      9 C          -9.6619  -15.9647   24.1226 C.3     1  UNL1        0.0969
     10 C         -10.2473  -16.7979   23.0212 C.ar    1  UNL1        0.0067
     11 C         -11.7438  -16.7493   22.9222 C.ar    1  UNL1       -0.0017
     12 C         -12.4895  -17.5242   21.8764 C.ar    1  UNL1       -0.0005
     13 C         -11.7384  -18.3750   20.8957 C.ar    1  UNL1       -0.0030
     14 C         -10.2418  -18.4510   20.9606 C.ar    1  UNL1       -0.0081
     15 C          -9.5353  -17.6605   22.0217 C.ar    1  UNL1        0.0411
     16 H          -8.0608  -14.7828   24.4331 H       1  UNL1        0.1236
@<TRIPOS>BOND
     1     1     2    1
     2     2     3    1
     3     2     4    1
     4     4     5    1
     5     5     6    1
     6     6     7    1
     7     7     8    1
     8     8     9    1
     9     9    10    1
    10    10    11   ar
    11    11    12   ar
    12    12    13   ar
    13    13    14   ar
    14    14    15   ar
    15    14     2    1
    16    15     5    1
    17    15    10   ar
    18     8    16    1
@<TRIPOS>MOLECULE
*****
 16 18 0 0 0
SMALL
GASTEIGER

@<TRIPOS>ATOM
      1 C          -8.8946  -19.3411   20.7336 C.3     1  UNL1        0.0061
      2 C          -7.6658  -18.8562   21.4443 C.3     1  UNL1        0.0383
      3 C          -6.9974  -19.9972   20.7361 C.3     1  UNL1        0.0061
      4 C          -8.5911  -17.8167   22.0040 C.3     1  UNL1        0.0948
      5 N          -7.7944  -16.9280   22.9124 N.pl3   1  UNL1       -0.3062
      6 C          -8.3836  -15.7670   23.6577 C.3     1  UNL1        0.1078
      7 C          -7.7005  -14.8097   24.5889 C.3     1  UNL1        0.0905
      8 N          -6.2598  -14.7769   25.0047 N.3     1  UNL1       -0.2923
      9 C          -5.1461  -15.6932   24.5922 C.3     1  UNL1        0.0969
     10 C          -5.1982  -16.8687   23.6619 C.ar    1  UNL1        0.0067
     11 C          -3.8889  -17.5752   23.4659 C.ar    1  UNL1       -0.0017
     12 C          -3.7656  -18.7703   22.5678 C.ar    1  UNL1       -0.0005
     13 C          -4.9698  -19.2876   21.8384 C.ar    1  UNL1       -0.0030
     14 C          -6.2974  -18.6100   22.0070 C.ar    1  UNL1       -0.0081
     15 C          -6.3769  -17.4181   22.9144 C.ar    1  UNL1        0.0411
     16 H          -6.2858  -14.8481   26.0219 H       1  UNL1        0.1236
@<TRIPOS>BOND
     1     1     2    1
     2     2     3    1
     3     2     4    1
     4     4     5    1
     5     5     6    1
     6     6     7    1
     7     7     8    1
     8     8     9    1
     9     9    10    1
    10    10    11   ar
    11    11    12   ar
    12    12    13   ar
    13    13    14   ar
    14    14    15   ar
    15    14     2    1
    16    15     5    1
    17    15    10   ar
    18     8    16    1
@<TRIPOS>MOLECULE
*****
 16 18 0 0 0
SMALL
GASTEIGER

@<TRIPOS>ATOM
      1 C          -5.9202  -20.8662   20.4083 C.3     1  UNL1        0.0061
      2 C          -5.9152  -19.6635   21.3047 C.3     1  UNL1        0.0383
      3 C          -4.4442  -19.9396   21.4044 C.3     1  UNL1        0.0061
      4 C          -7.3873  -19.6389   21.0176 C.3     1  UNL1        0.0948
      5 N          -7.9844  -18.4787   21.7574 N.pl3   1  UNL1       -0.3062
      6 C          -9.4433  -18.1325   21.7124 C.3     1  UNL1        0.1078
      7 C         -10.1594  -17.0084   22.4007 C.3     1  UNL1        0.0905
      8 N          -9.5936  -15.9530   23.3038 N.3     1  UNL1       -0.2923
      9 C          -8.1719  -15.7608   23.7419 C.3     1  UNL1        0.0969
     10 C          -6.9649  -16.5767   23.3849 C.ar    1  UNL1        0.0067
     11 C          -5.6810  -16.1052   24.0023 C.ar    1  UNL1       -0.0017
     12 C          -4.3804  -16.8083   23.7488 C.ar    1  UNL1       -0.0005
     13 C          -4.3412  -18.0149   22.8586 C.ar    1  UNL1       -0.0030
     14 C          -5.6026  -18.5186   22.2220 C.ar    1  UNL1       -0.0081
     15 C          -6.8815  -17.7863   22.5017 C.ar    1  UNL1        0.0411
     16 H         -10.1175  -16.0530   24.1732 H       1  UNL1        0.1236
@<TRIPOS>BOND
     1     1     2    1
     2     2     3    1
     3     2     4    1
     4     4     5    1
     5     5     6    1
     6     6     7    1
     7     7     8    1
     8     8     9    1
     9     9    10    1
    10    10    11   ar
    11    11    12   ar
    12    12    13   ar
    13    13    14   ar
    14    14    15   ar
    15    14     2    1
    16    15     5    1
    17    15    10   ar
    18     8    16    1
@<TRIPOS>MOLECULE
*****
 16 18 0 0 0
SMALL
GASTEIGER

@<TRIPOS>ATOM
      1 C         -10.3172  -19.5971   22.0069 C.3     1  UNL1        0.0061
      2 C          -9.4662  -18.5393   22.6451 C.3     1  UNL1        0.0383
      3 C         -10.7776  -18.0060   23.1410 C.3     1  UNL1        0.0061
      4 C          -8.3328  -19.2937   22.0157 C.3     1  UNL1        0.0948
      5 N          -7.0556  -18.5907   22.3686 N.pl3   1  UNL1       -0.3062
      6 C          -5.7036  -19.0562   21.9150 C.3     1  UNL1        0.1078
      7 C          -4.3619  -18.4475   22.1969 C.3     1  UNL1        0.0905
      8 N          -4.0408  -17.2234   23.0019 N.3     1  UNL1       -0.2923
      9 C          -4.9820  -16.3053   23.7239 C.3     1  UNL1        0.0969
     10 C          -6.4768  -16.3847   23.8192 C.ar    1  UNL1        0.0067
     11 C          -7.1151  -15.2943   24.6288 C.ar    1  UNL1       -0.0017
     12 C          -8.6007  -15.2254   24.8246 C.ar    1  UNL1       -0.0005
     13 C          -9.4879  -16.2633   24.2036 C.ar    1  UNL1       -0.0030
     14 C          -8.8896  -17.3701   23.3869 C.ar    1  UNL1       -0.0081
     15 C          -7.3996  -17.4019   23.2160 C.ar    1  UNL1        0.0411
     16 H          -3.5382  -16.6163   22.3543 H       1  UNL1        0.1236
@<TRIPOS>BOND
     1     1     2    1
     2     2     3    1
     3     2     4    1
     4     4     5    1
     5     5     6    1
     6     6     7    1
     7     7     8    1
     8     8     9    1
     9     9    10    1
    10    10    11   ar
    11    11    12   ar
    12    12    13   ar
    13    13    14   ar
    14    14    15   ar
    15    14     2    1
    16    15     5    1
    17    15    10   ar
    18     8    16    1
@<TRIPOS>MOLECULE
*****
 16 18 0 0 0
SMALL
GASTEIGER

@<TRIPOS>ATOM
      1 C         -12.6408  -17.7202   21.2214 C.3     1  UNL1        0.0061
      2 C         -11.3074  -17.4582   21.8567 C.3     1  UNL1        0.0383
      3 C         -12.0993  -16.5928   22.7916 C.3     1  UNL1        0.0061
      4 C         -10.7943  -18.3784   20.7891 C.3     1  UNL1        0.0948
      5 N          -9.3094  -18.5042   20.9601 N.pl3   1  UNL1       -0.3062
      6 C          -8.4437  -19.3469   20.0709 C.3     1  UNL1        0.1078
      7 C          -6.9596  -19.5553   20.1356 C.3     1  UNL1        0.0905
      8 N          -5.9748  -18.9724   21.1052 N.3     1  UNL1       -0.2923
      9 C          -6.2306  -18.0372   22.2497 C.3     1  UNL1        0.0969
     10 C          -7.5346  -17.4539   22.7073 C.ar    1  UNL1        0.0067
     11 C          -7.4350  -16.5453   23.8973 C.ar    1  UNL1       -0.0017
     12 C          -8.6446  -15.8789   24.4828 C.ar    1  UNL1       -0.0005
     13 C          -9.9969  -16.1139   23.8779 C.ar    1  UNL1       -0.0030
     14 C         -10.1397  -17.0153   22.6875 C.ar    1  UNL1       -0.0081
     15 C          -8.9048  -17.6618   22.1332 C.ar    1  UNL1        0.0411
     16 H          -5.2999  -18.4807   20.5194 H       1  UNL1        0.1236
@<TRIPOS>BOND
     1     1     2    1
     2     2     3    1
     3     2     4    1
     4     4     5    1
     5     5     6    1
     6     6     7    1
     7     7     8    1
     8     8     9    1
     9     9    10    1
    10    10    11   ar
    11    11    12   ar
    12    12    13   ar
    13    13    14   ar
    14    14    15   ar
    15    14     2    1
    16    15     5    1
    17    15    10   ar
    18     8    16    1
@<TRIPOS>MOLECULE
*****
 16 18 0 0 0
SMALL
GASTEIGER

@<TRIPOS>ATOM
      1 C         -10.7006   -1.1410   17.1517 C.3     1  UNL1        0.0061
      2 C         -11.4563   -2.1772   17.9298 C.3     1  UNL1        0.0383
      3 C         -11.9816   -0.9959   18.6905 C.3     1  UNL1        0.0061
      4 C         -10.7730   -3.1419   17.0065 C.3     1  UNL1        0.0948
      5 N         -11.2162   -4.5272   17.3730 N.pl3   1  UNL1       -0.3062
      6 C         -10.7406   -5.7613   16.6653 C.3     1  UNL1        0.1078
      7 C         -11.1047   -7.1918   16.9326 C.3     1  UNL1        0.0905
      8 N         -12.0343   -7.7412   17.9736 N.3     1  UNL1       -0.2923
      9 C         -12.8295   -6.9962   19.0045 C.3     1  UNL1        0.0969
     10 C         -12.8913   -5.5176   19.2489 C.ar    1  UNL1        0.0067
     11 C         -13.7960   -5.1022   20.3718 C.ar    1  UNL1       -0.0017
     12 C         -13.9730   -3.6611   20.7486 C.ar    1  UNL1       -0.0005
     13 C         -13.2359   -2.5932   19.9962 C.ar    1  UNL1       -0.0030
     14 C         -12.3217   -2.9663   18.8669 C.ar    1  UNL1       -0.0081
     15 C         -12.1733   -4.4188   18.5228 C.ar    1  UNL1        0.0411
     16 H         -11.4597   -8.3888   18.5130 H       1  UNL1        0.1236
@<TRIPOS>BOND
     1     1     2    1
     2     2     3    1
     3     2     4    1
     4     4     5    1
     5     5     6    1
     6     6     7    1
     7     7     8    1
     8     8     9    1
     9     9    10    1
    10    10    11   ar
    11    11    12   ar
    12    12    13   ar
    13    13    14   ar
    14    14    15   ar
    15    14     2    1
    16    15     5    1
    17    15    10   ar
    18     8    16    1
