@<TRIPOS>MOLECULE
*****
 35 38 0 0 0
SMALL
GASTEIGER

@<TRIPOS>ATOM
      1 C           5.5679   -0.5582   25.1158 C.2     1  UNL1        0.2459
      2 O           5.3294    0.9216   25.1719 O.2     1  UNL1       -0.2730
      3 N           5.0731   -1.3537   23.9443 N.am    1  UNL1       -0.2781
      4 C           5.3116   -2.8336   23.8881 C.3     1  UNL1        0.0935
      5 C           4.8168   -3.6290   22.7167 C.3     1  UNL1        0.0219
      6 C           4.0835   -2.9447   21.6013 C.3     1  UNL1        0.0078
      7 C           3.8450   -1.4648   21.6575 C.3     1  UNL1        0.0419
      8 C           4.3398   -0.6694   22.8289 C.3     1  UNL1        0.0953
      9 C           3.1117   -0.7805   20.5422 C.ar    1  UNL1       -0.0209
     10 C           3.8653   -0.2763   19.3473 C.ar    1  UNL1       -0.0042
     11 C           3.1320    0.4081   18.2320 C.ar    1  UNL1       -0.0003
     12 C           1.6450    0.5882   18.3116 C.ar    1  UNL1       -0.0000
     13 C           0.8914    0.0841   19.5064 C.ar    1  UNL1       -0.0003
     14 C           1.6247   -0.6003   20.6217 C.ar    1  UNL1       -0.0042
     15 C           6.3012   -1.2426   26.2311 C.3     1  UNL1        0.1773
     16 N           5.6310   -1.4420   27.5580 N.pl3   1  UNL1       -0.2973
     17 C           6.0436   -2.5807   28.4431 C.ar    1  UNL1        0.0492
     18 C           6.3355   -3.9260   27.8473 C.ar    1  UNL1        0.0154
     19 C           6.7481   -5.0646   28.7323 C.ar    1  UNL1        0.0135
     20 C           6.8688   -4.8580   30.2130 C.ar    1  UNL1        0.0683
     21 CL          7.2814   -5.9967   31.0981 Cl      1  UNL1       -0.0814
     22 C           6.5769   -3.5127   30.8088 C.ar    1  UNL1        0.0694
     23 CL          6.6976   -3.3061   32.2897 Cl      1  UNL1       -0.0813
     24 C           6.1643   -2.3740   29.9238 C.ar    1  UNL1        0.0268
     25 C           4.5481   -0.5029   28.0001 C.3     1  UNL1        0.1234
     26 C           3.1090   -0.9098   27.8842 C.3     1  UNL1        0.1636
     27 C           0.9429   -0.1592   29.1068 C.3     1  UNL1        0.1742
     28 O           2.2332   -0.9240   29.1020 O.3     1  UNL1       -0.3493
     29 C           4.1013    0.8105   22.8851 C.3     1  UNL1        0.0926
     30 N           2.7438    1.3383   23.2437 N.3     1  UNL1       -0.2670
     31 C           1.9064    0.6239   24.2626 C.3     1  UNL1        0.1047
     32 C           0.5489    1.1517   24.6212 C.3     1  UNL1        0.1595
     33 O           0.0287    2.3939   23.9608 O.3     1  UNL1       -0.3508
     34 C           0.8661    3.1085   22.9418 C.3     1  UNL1        0.1595
     35 C           2.2236    2.5807   22.5833 C.3     1  UNL1        0.1047
@<TRIPOS>BOND
     1    27    28    1
     2    28    26    1
     3    26    25    1
     4    25    16    1
     5    16    15    1
     6    15     1    1
     7     1     2    2
     8     1     3   am
     9     3     4    1
    10     4     5    1
    11     5     6    1
    12     6     7    1
    13     7     9    1
    14     9    10   ar
    15    10    11   ar
    16    11    12   ar
    17    12    13   ar
    18    13    14   ar
    19     7     8    1
    20     8    29    1
    21    29    30    1
    22    30    31    1
    23    31    32    1
    24    32    33    1
    25    33    34    1
    26    34    35    1
    27    16    17    1
    28    17    18   ar
    29    18    19   ar
    30    19    20   ar
    31    20    21    1
    32    20    22   ar
    33    22    23    1
    34    22    24   ar
    35     8     3    1
    36    35    30    1
    37    24    17   ar
    38    14     9   ar
@<TRIPOS>MOLECULE
*****
 35 38 0 0 0
SMALL
GASTEIGER

@<TRIPOS>ATOM
      1 C           2.9852    0.2513   24.7200 C.2     1  UNL1        0.2459
      2 O           2.0061    0.7553   23.7015 O.2     1  UNL1       -0.2730
      3 N           3.8980   -0.8901   24.3822 N.am    1  UNL1       -0.2781
      4 C           4.8771   -1.3942   25.4007 C.3     1  UNL1        0.0935
      5 C           5.7899   -2.5355   25.0629 C.3     1  UNL1        0.0219
      6 C           5.7235   -3.1728   23.7066 C.3     1  UNL1        0.0078
      7 C           4.7445   -2.6688   22.6881 C.3     1  UNL1        0.0419
      8 C           3.8317   -1.5274   23.0259 C.3     1  UNL1        0.0953
      9 C           4.6782   -3.3061   21.3319 C.ar    1  UNL1       -0.0209
     10 C           3.7419   -4.4520   21.0866 C.ar    1  UNL1       -0.0042
     11 C           3.6756   -5.0893   19.7304 C.ar    1  UNL1       -0.0003
     12 C           4.5455   -4.5807   18.6194 C.ar    1  UNL1       -0.0000
     13 C           5.4818   -3.4348   18.8646 C.ar    1  UNL1       -0.0003
     14 C           5.5481   -2.7975   20.2209 C.ar    1  UNL1       -0.0042
     15 C           3.0515    0.8886   26.0762 C.3     1  UNL1        0.1773
     16 N           1.8679    0.8215   26.9951 N.pl3   1  UNL1       -0.2973
     17 C           0.8056    1.8785   26.9283 C.ar    1  UNL1        0.0492
     18 C          -0.3903    1.6851   26.0436 C.ar    1  UNL1        0.0154
     19 C          -1.4525    2.7420   25.9767 C.ar    1  UNL1        0.0135
     20 C          -1.3189    3.9923   26.7944 C.ar    1  UNL1        0.0683
     21 CL         -2.3812    5.0493   26.7276 Cl      1  UNL1       -0.0814
     22 C          -0.1230    4.1858   27.6790 C.ar    1  UNL1        0.0694
     23 CL          0.0105    5.4363   28.4968 Cl      1  UNL1       -0.0813
     24 C           0.9392    3.1289   27.7459 C.ar    1  UNL1        0.0268
     25 C           1.7464   -0.3025   27.9809 C.3     1  UNL1        0.1234
     26 C           1.3559   -0.0161   29.4006 C.3     1  UNL1        0.1636
     27 C          -1.1307   -0.5605   28.8803 C.3     1  UNL1        0.1742
     28 O          -0.0935    0.0383   29.7834 O.3     1  UNL1       -0.3493
     29 C           2.8526   -1.0233   22.0075 C.3     1  UNL1        0.0926
     30 N           3.3376   -0.2367   20.8260 N.3     1  UNL1       -0.2670
     31 C           4.3959    0.8109   21.0058 C.3     1  UNL1        0.1047
     32 C           4.8810    1.5976   19.8243 C.3     1  UNL1        0.1595
     33 O           4.3076    1.3367   18.4630 O.3     1  UNL1       -0.3508
     34 C           3.2492    0.2890   18.2831 C.3     1  UNL1        0.1595
     35 C           2.7642   -0.4977   19.4646 C.3     1  UNL1        0.1047
@<TRIPOS>BOND
     1    27    28    1
     2    28    26    1
     3    26    25    1
     4    25    16    1
     5    16    15    1
     6    15     1    1
     7     1     2    2
     8     1     3   am
     9     3     4    1
    10     4     5    1
    11     5     6    1
    12     6     7    1
    13     7     9    1
    14     9    10   ar
    15    10    11   ar
    16    11    12   ar
    17    12    13   ar
    18    13    14   ar
    19     7     8    1
    20     8    29    1
    21    29    30    1
    22    30    31    1
    23    31    32    1
    24    32    33    1
    25    33    34    1
    26    34    35    1
    27    16    17    1
    28    17    18   ar
    29    18    19   ar
    30    19    20   ar
    31    20    21    1
    32    20    22   ar
    33    22    23    1
    34    22    24   ar
    35     8     3    1
    36    35    30    1
    37    24    17   ar
    38    14     9   ar
@<TRIPOS>MOLECULE
*****
 35 38 0 0 0
SMALL
GASTEIGER

@<TRIPOS>ATOM
      1 C           0.8152    3.0874   22.3527 C.2     1  UNL1        0.2459
      2 O           0.3275    4.2607   21.5556 O.2     1  UNL1       -0.2730
      3 N           0.1889    2.7686   23.6780 N.am    1  UNL1       -0.2781
      4 C           0.6766    1.5953   24.4752 C.3     1  UNL1        0.0935
      5 C           0.0503    1.2766   25.8003 C.3     1  UNL1        0.0219
      6 C          -1.0636    2.1312   26.3284 C.3     1  UNL1        0.0078
      7 C          -1.5513    3.3045   25.5312 C.3     1  UNL1        0.0419
      8 C          -0.9251    3.6232   24.2060 C.3     1  UNL1        0.0953
      9 C          -2.6653    4.1590   26.0593 C.ar    1  UNL1       -0.0209
     10 C          -4.0908    3.8058   25.7542 C.ar    1  UNL1       -0.0042
     11 C          -5.2047    4.6604   26.2823 C.ar    1  UNL1       -0.0003
     12 C          -4.8932    5.8682   27.1153 C.ar    1  UNL1       -0.0000
     13 C          -3.4676    6.2214   27.4204 C.ar    1  UNL1       -0.0003
     14 C          -2.3537    5.3668   26.8924 C.ar    1  UNL1       -0.0042
     15 C           1.9291    2.2328   21.8247 C.3     1  UNL1        0.1773
     16 N           1.6170    1.0162   21.0048 N.pl3   1  UNL1       -0.2973
     17 C           2.4353   -0.2301   21.1704 C.ar    1  UNL1        0.0492
     18 C           3.0379   -0.5599   22.5039 C.ar    1  UNL1        0.0154
     19 C           3.8561   -1.8060   22.6695 C.ar    1  UNL1        0.0135
     20 C           4.0718   -2.7224   21.5018 C.ar    1  UNL1        0.0683
     21 CL          4.8901   -3.9686   21.6674 Cl      1  UNL1       -0.0814
     22 C           3.4692   -2.3926   20.1683 C.ar    1  UNL1        0.0694
     23 CL          3.6849   -3.3090   19.0005 Cl      1  UNL1       -0.0813
     24 C           2.6509   -1.1464   20.0026 C.ar    1  UNL1        0.0268
     25 C           0.4866    1.0457   20.0192 C.3     1  UNL1        0.1234
     26 C           0.6722    1.7049   18.6846 C.3     1  UNL1        0.1636
     27 C           2.2820    3.7232   18.3932 C.3     1  UNL1        0.1742
     28 O           2.0149    2.2503   18.2978 O.3     1  UNL1       -0.3493
     29 C          -1.4127    4.7965   23.4088 C.3     1  UNL1        0.0926
     30 N          -2.7238    4.7181   22.6843 N.3     1  UNL1       -0.2670
     31 C          -3.0861    3.4786   21.9213 C.3     1  UNL1        0.1047
     32 C          -4.3972    3.4001   21.1968 C.3     1  UNL1        0.1595
     33 O          -5.3459    4.5613   21.2352 O.3     1  UNL1       -0.3508
     34 C          -4.9836    5.8010   21.9981 C.3     1  UNL1        0.1595
     35 C          -3.6726    5.8794   22.7227 C.3     1  UNL1        0.1047
@<TRIPOS>BOND
     1    27    28    1
     2    28    26    1
     3    26    25    1
     4    25    16    1
     5    16    15    1
     6    15     1    1
     7     1     2    2
     8     1     3   am
     9     3     4    1
    10     4     5    1
    11     5     6    1
    12     6     7    1
    13     7     9    1
    14     9    10   ar
    15    10    11   ar
    16    11    12   ar
    17    12    13   ar
    18    13    14   ar
    19     7     8    1
    20     8    29    1
    21    29    30    1
    22    30    31    1
    23    31    32    1
    24    32    33    1
    25    33    34    1
    26    34    35    1
    27    16    17    1
    28    17    18   ar
    29    18    19   ar
    30    19    20   ar
    31    20    21    1
    32    20    22   ar
    33    22    23    1
    34    22    24   ar
    35     8     3    1
    36    35    30    1
    37    24    17   ar
    38    14     9   ar
@<TRIPOS>MOLECULE
*****
 35 38 0 0 0
SMALL
GASTEIGER

@<TRIPOS>ATOM
      1 C           6.8299   -3.5284   24.2595 C.2     1  UNL1        0.2459
      2 O           6.6973   -4.5893   23.2075 O.2     1  UNL1       -0.2730
      3 N           6.1410   -2.2075   24.0835 N.am    1  UNL1       -0.2781
      4 C           6.2735   -1.1465   25.1355 C.3     1  UNL1        0.0935
      5 C           5.5846    0.1742   24.9596 C.3     1  UNL1        0.0219
      6 C           4.7633    0.4340   23.7316 C.3     1  UNL1        0.0078
      7 C           4.6308   -0.6269   22.6796 C.3     1  UNL1        0.0419
      8 C           5.3196   -1.9477   22.8556 C.3     1  UNL1        0.0953
      9 C           3.8094   -0.3671   21.4517 C.ar    1  UNL1       -0.0209
     10 C           4.3751    0.4534   20.3307 C.ar    1  UNL1       -0.0042
     11 C           3.5537    0.7132   19.1028 C.ar    1  UNL1       -0.0003
     12 C           2.1666    0.1524   18.9958 C.ar    1  UNL1       -0.0000
     13 C           1.6009   -0.6681   20.1168 C.ar    1  UNL1       -0.0003
     14 C           2.4223   -0.9279   21.3447 C.ar    1  UNL1       -0.0042
     15 C           7.6512   -3.7881   25.4874 C.3     1  UNL1        0.1773
     16 N           7.1871   -4.7907   26.5020 N.pl3   1  UNL1       -0.2973
     17 C           6.9589   -4.3689   27.9233 C.ar    1  UNL1        0.0492
     18 C           6.5842   -2.9500   28.2336 C.ar    1  UNL1        0.0154
     19 C           6.3560   -2.5282   29.6548 C.ar    1  UNL1        0.0135
     20 C           6.5026   -3.5252   30.7658 C.ar    1  UNL1        0.0683
     21 CL          6.2745   -3.1034   32.1871 Cl      1  UNL1       -0.0814
     22 C           6.8774   -4.9442   30.4555 C.ar    1  UNL1        0.0694
     23 CL          7.0240   -5.9413   31.5666 Cl      1  UNL1       -0.0813
     24 C           7.1055   -5.3660   29.0343 C.ar    1  UNL1        0.0268
     25 C           6.9510   -6.2151   26.0953 C.3     1  UNL1        0.1234
     26 C           8.0394   -6.9908   25.4142 C.3     1  UNL1        0.1636
     27 C           8.2239   -8.6012   27.4447 C.3     1  UNL1        0.1742
     28 O           8.5342   -8.2735   26.0142 O.3     1  UNL1       -0.3493
     29 C           5.1871   -3.0088   21.8036 C.3     1  UNL1        0.0926
     30 N           5.7661   -2.7871   20.4377 N.3     1  UNL1       -0.2670
     31 C           4.9134   -2.9873   19.2201 C.3     1  UNL1        0.1047
     32 C           5.4923   -2.7656   17.8542 C.3     1  UNL1        0.1595
     33 O           6.9241   -2.3437   17.7059 O.3     1  UNL1       -0.3508
     34 C           7.7769   -2.1434   18.9236 C.3     1  UNL1        0.1595
     35 C           7.1979   -2.3651   20.2895 C.3     1  UNL1        0.1047
@<TRIPOS>BOND
     1    27    28    1
     2    28    26    1
     3    26    25    1
     4    25    16    1
     5    16    15    1
     6    15     1    1
     7     1     2    2
     8     1     3   am
     9     3     4    1
    10     4     5    1
    11     5     6    1
    12     6     7    1
    13     7     9    1
    14     9    10   ar
    15    10    11   ar
    16    11    12   ar
    17    12    13   ar
    18    13    14   ar
    19     7     8    1
    20     8    29    1
    21    29    30    1
    22    30    31    1
    23    31    32    1
    24    32    33    1
    25    33    34    1
    26    34    35    1
    27    16    17    1
    28    17    18   ar
    29    18    19   ar
    30    19    20   ar
    31    20    21    1
    32    20    22   ar
    33    22    23    1
    34    22    24   ar
    35     8     3    1
    36    35    30    1
    37    24    17   ar
    38    14     9   ar
@<TRIPOS>MOLECULE
*****
 35 38 0 0 0
SMALL
GASTEIGER

@<TRIPOS>ATOM
      1 C           5.5154   -1.5415   24.8970 C.2     1  UNL1        0.2459
      2 O           5.1926   -2.8865   24.3166 O.2     1  UNL1       -0.2730
      3 N           5.0190   -0.2958   24.2248 N.am    1  UNL1       -0.2781
      4 C           5.3419    1.0491   24.8053 C.3     1  UNL1        0.0935
      5 C           4.8455    2.2948   24.1331 C.3     1  UNL1        0.0219
      6 C           4.0262    2.1956   22.8805 C.3     1  UNL1        0.0078
      7 C           3.7034    0.8506   22.3001 C.3     1  UNL1        0.0419
      8 C           4.1998   -0.3950   22.9722 C.3     1  UNL1        0.0953
      9 C           2.8841    0.7514   21.0475 C.ar    1  UNL1       -0.0209
     10 C           1.4269    0.4055   21.1298 C.ar    1  UNL1       -0.0042
     11 C           0.6076    0.3063   19.8772 C.ar    1  UNL1       -0.0003
     12 C           1.2456    0.5529   18.5423 C.ar    1  UNL1       -0.0000
     13 C           2.7028    0.8988   18.4600 C.ar    1  UNL1       -0.0003
     14 C           3.5221    0.9980   19.7125 C.ar    1  UNL1       -0.0042
     15 C           6.3347   -1.4423   26.1496 C.3     1  UNL1        0.1773
     16 N           5.6694   -1.5390   27.4905 N.pl3   1  UNL1       -0.2973
     17 C           6.0495   -2.6373   28.4389 C.ar    1  UNL1        0.0492
     18 C           6.2869   -4.0254   27.9225 C.ar    1  UNL1        0.0154
     19 C           6.6670   -5.1236   28.8708 C.ar    1  UNL1        0.0135
     20 C           6.8097   -4.8337   30.3355 C.ar    1  UNL1        0.0683
     21 CL          7.1899   -5.9320   31.2839 Cl      1  UNL1       -0.0814
     22 C           6.5724   -3.4456   30.8520 C.ar    1  UNL1        0.0694
     23 CL          6.7151   -3.1557   32.3168 Cl      1  UNL1       -0.0813
     24 C           6.1923   -2.3474   29.9036 C.ar    1  UNL1        0.0268
     25 C           4.6240   -0.5375   27.8831 C.3     1  UNL1        0.1234
     26 C           3.1740   -0.8299   27.6338 C.3     1  UNL1        0.1636
     27 C           2.6582   -0.5669   30.1665 C.3     1  UNL1        0.1742
     28 O           2.2297   -0.9795   28.7896 O.3     1  UNL1       -0.3493
     29 C           3.8769   -1.7400   22.3918 C.3     1  UNL1        0.0926
     30 N           4.5243   -2.1796   21.1121 N.3     1  UNL1       -0.2670
     31 C           6.0115   -2.0731   20.9488 C.3     1  UNL1        0.1047
     32 C           6.6589   -2.5127   19.6691 C.3     1  UNL1        0.1595
     33 O           5.8190   -3.0587   18.5527 O.3     1  UNL1       -0.3508
     34 C           4.3317   -3.1652   18.7159 C.3     1  UNL1        0.1595
     35 C           3.6843   -2.7256   19.9957 C.3     1  UNL1        0.1047
@<TRIPOS>BOND
     1    27    28    1
     2    28    26    1
     3    26    25    1
     4    25    16    1
     5    16    15    1
     6    15     1    1
     7     1     2    2
     8     1     3   am
     9     3     4    1
    10     4     5    1
    11     5     6    1
    12     6     7    1
    13     7     9    1
    14     9    10   ar
    15    10    11   ar
    16    11    12   ar
    17    12    13   ar
    18    13    14   ar
    19     7     8    1
    20     8    29    1
    21    29    30    1
    22    30    31    1
    23    31    32    1
    24    32    33    1
    25    33    34    1
    26    34    35    1
    27    16    17    1
    28    17    18   ar
    29    18    19   ar
    30    19    20   ar
    31    20    21    1
    32    20    22   ar
    33    22    23    1
    34    22    24   ar
    35     8     3    1
    36    35    30    1
    37    24    17   ar
    38    14     9   ar
@<TRIPOS>MOLECULE
*****
 35 38 0 0 0
SMALL
GASTEIGER

@<TRIPOS>ATOM
      1 C           6.7252   -0.2349   30.9258 C.2     1  UNL1        0.2459
      2 O           6.9995    0.4858   29.6393 O.2     1  UNL1       -0.2730
      3 N           6.7820   -1.7331   30.9731 N.am    1  UNL1       -0.2781
      4 C           6.5076   -2.4538   32.2597 C.3     1  UNL1        0.0935
      5 C           6.5645   -3.9520   32.3069 C.3     1  UNL1        0.0219
      6 C           6.8957   -4.7294   31.0676 C.3     1  UNL1        0.0078
      7 C           7.1700   -4.0087   29.7811 C.3     1  UNL1        0.0419
      8 C           7.1132   -2.5106   29.7338 C.3     1  UNL1        0.0953
      9 C           7.5012   -4.7862   28.5417 C.ar    1  UNL1       -0.0209
     10 C           8.9306   -4.9454   28.1159 C.ar    1  UNL1       -0.0042
     11 C           9.2618   -5.7228   26.8765 C.ar    1  UNL1       -0.0003
     12 C           8.1636   -6.3411   26.0631 C.ar    1  UNL1       -0.0000
     13 C           6.7342   -6.1819   26.4890 C.ar    1  UNL1       -0.0003
     14 C           6.4030   -5.4044   27.7283 C.ar    1  UNL1       -0.0042
     15 C           6.3940    0.5425   32.1651 C.3     1  UNL1        0.1773
     16 N           4.9641    0.7076   32.5872 N.pl3   1  UNL1       -0.2973
     17 C           4.6162    0.7836   34.0444 C.ar    1  UNL1        0.0492
     18 C           5.1716   -0.2288   35.0019 C.ar    1  UNL1        0.0154
     19 C           4.8238   -0.1528   36.4590 C.ar    1  UNL1        0.0135
     20 C           3.9206    0.9355   36.9586 C.ar    1  UNL1        0.0683
     21 CL          3.5728    1.0115   38.4158 Cl      1  UNL1       -0.0814
     22 C           3.3653    1.9479   36.0012 C.ar    1  UNL1        0.0694
     23 CL          2.4621    3.0363   36.5010 Cl      1  UNL1       -0.0813
     24 C           3.7131    1.8719   34.5441 C.ar    1  UNL1        0.0268
     25 C           3.8820    0.7966   31.5523 C.3     1  UNL1        0.1234
     26 C           3.1068   -0.4295   31.1704 C.3     1  UNL1        0.1636
     27 C           1.5225   -0.3009   29.1153 C.3     1  UNL1        0.1742
     28 O           1.7252   -0.2963   30.6015 O.3     1  UNL1       -0.3493
     29 C           7.3876   -1.7898   28.4472 C.3     1  UNL1        0.0926
     30 N           6.3608   -1.7901   27.3537 N.3     1  UNL1       -0.2670
     31 C           4.9332   -1.4513   27.6652 C.3     1  UNL1        0.1047
     32 C           3.9065   -1.4517   26.5716 C.3     1  UNL1        0.1595
     33 O           4.3074   -1.7909   25.1666 O.3     1  UNL1       -0.3508
     34 C           5.7351   -2.1297   24.8550 C.3     1  UNL1        0.1595
     35 C           6.7618   -2.1294   25.9486 C.3     1  UNL1        0.1047
@<TRIPOS>BOND
     1    27    28    1
     2    28    26    1
     3    26    25    1
     4    25    16    1
     5    16    15    1
     6    15     1    1
     7     1     2    2
     8     1     3   am
     9     3     4    1
    10     4     5    1
    11     5     6    1
    12     6     7    1
    13     7     9    1
    14     9    10   ar
    15    10    11   ar
    16    11    12   ar
    17    12    13   ar
    18    13    14   ar
    19     7     8    1
    20     8    29    1
    21    29    30    1
    22    30    31    1
    23    31    32    1
    24    32    33    1
    25    33    34    1
    26    34    35    1
    27    16    17    1
    28    17    18   ar
    29    18    19   ar
    30    19    20   ar
    31    20    21    1
    32    20    22   ar
    33    22    23    1
    34    22    24   ar
    35     8     3    1
    36    35    30    1
    37    24    17   ar
    38    14     9   ar
@<TRIPOS>MOLECULE
*****
 35 38 0 0 0
SMALL
GASTEIGER

@<TRIPOS>ATOM
      1 C           6.5227   -1.2977   23.8245 C.2     1  UNL1        0.2459
      2 O           6.4552    0.1711   24.1214 O.2     1  UNL1       -0.2730
      3 N           5.6550   -1.8867   22.7519 N.am    1  UNL1       -0.2781
      4 C           5.7225   -3.3554   22.4550 C.3     1  UNL1        0.0935
      5 C           4.8549   -3.9444   21.3825 C.3     1  UNL1        0.0219
      6 C           3.9197   -3.0646   20.6069 C.3     1  UNL1        0.0078
      7 C           3.8522   -1.5958   20.9039 C.3     1  UNL1        0.0419
      8 C           4.7199   -1.0069   21.9764 C.3     1  UNL1        0.0953
      9 C           2.9171   -0.7160   20.1283 C.ar    1  UNL1       -0.0209
     10 C           3.4139    0.0311   18.9263 C.ar    1  UNL1       -0.0042
     11 C           2.4788    0.9109   18.1508 C.ar    1  UNL1       -0.0003
     12 C           1.0469    1.0436   18.5772 C.ar    1  UNL1       -0.0000
     13 C           0.5500    0.2964   19.7792 C.ar    1  UNL1       -0.0003
     14 C           1.4852   -0.5834   20.5548 C.ar    1  UNL1       -0.0042
     15 C           7.4578   -2.1775   24.6001 C.3     1  UNL1        0.1773
     16 N           7.0222   -2.7646   25.9098 N.pl3   1  UNL1       -0.2973
     17 C           7.2447   -4.2214   26.1897 C.ar    1  UNL1        0.0492
     18 C           7.1043   -4.7465   27.5878 C.ar    1  UNL1        0.0154
     19 C           7.3268   -6.2032   27.8677 C.ar    1  UNL1        0.0135
     20 C           7.6895   -7.1349   26.7495 C.ar    1  UNL1        0.0683
     21 CL          7.9120   -8.5917   27.0294 Cl      1  UNL1       -0.0814
     22 C           7.8298   -6.6098   25.3514 C.ar    1  UNL1        0.0694
     23 CL          8.1926   -7.5416   24.2332 Cl      1  UNL1       -0.0813
     24 C           7.6074   -5.1531   25.0715 C.ar    1  UNL1        0.0268
     25 C           6.3641   -1.8950   26.9397 C.3     1  UNL1        0.1234
     26 C           4.8707   -1.7554   26.9599 C.3     1  UNL1        0.1636
     27 C           2.8120   -0.7359   28.1733 C.3     1  UNL1        0.1742
     28 O           4.1707   -1.3689   28.2290 O.3     1  UNL1       -0.3493
     29 C           4.6524    0.4619   22.2734 C.3     1  UNL1        0.0926
     30 N           3.4485    1.0333   22.9620 N.3     1  UNL1       -0.2670
     31 C           2.8107    2.2868   22.4405 C.3     1  UNL1        0.1047
     32 C           1.6068    2.8582   23.1291 C.3     1  UNL1        0.1595
     33 O           1.0408    2.1761   24.3391 O.3     1  UNL1       -0.3508
     34 C           1.6786    0.9226   24.8607 C.3     1  UNL1        0.1595
     35 C           2.8825    0.3512   24.1721 C.3     1  UNL1        0.1047
@<TRIPOS>BOND
     1    27    28    1
     2    28    26    1
     3    26    25    1
     4    25    16    1
     5    16    15    1
     6    15     1    1
     7     1     2    2
     8     1     3   am
     9     3     4    1
    10     4     5    1
    11     5     6    1
    12     6     7    1
    13     7     9    1
    14     9    10   ar
    15    10    11   ar
    16    11    12   ar
    17    12    13   ar
    18    13    14   ar
    19     7     8    1
    20     8    29    1
    21    29    30    1
    22    30    31    1
    23    31    32    1
    24    32    33    1
    25    33    34    1
    26    34    35    1
    27    16    17    1
    28    17    18   ar
    29    18    19   ar
    30    19    20   ar
    31    20    21    1
    32    20    22   ar
    33    22    23    1
    34    22    24   ar
    35     8     3    1
    36    35    30    1
    37    24    17   ar
    38    14     9   ar
@<TRIPOS>MOLECULE
*****
 35 38 0 0 0
SMALL
GASTEIGER

@<TRIPOS>ATOM
      1 C           6.1925   -2.5406   22.6311 C.2     1  UNL1        0.2459
      2 O           5.4450   -2.1181   23.8610 O.2     1  UNL1       -0.2730
      3 N           7.1160   -3.7215   22.6834 N.am    1  UNL1       -0.2781
      4 C           7.8636   -4.1440   21.4535 C.3     1  UNL1        0.0935
      5 C           8.7870   -5.3248   21.5058 C.3     1  UNL1        0.0219
      6 C           8.9630   -6.0831   22.7881 C.3     1  UNL1        0.0078
      7 C           8.2155   -5.6606   24.0179 C.3     1  UNL1        0.0419
      8 C           7.2920   -4.4798   23.9656 C.3     1  UNL1        0.0953
      9 C           8.3915   -6.4189   25.3001 C.ar    1  UNL1       -0.0209
     10 C           9.3585   -5.9268   26.3358 C.ar    1  UNL1       -0.0042
     11 C           9.5345   -6.6851   27.6180 C.ar    1  UNL1       -0.0003
     12 C           8.7434   -7.9354   27.8645 C.ar    1  UNL1       -0.0000
     13 C           7.7764   -8.4275   26.8289 C.ar    1  UNL1       -0.0003
     14 C           7.6004   -7.6692   25.5467 C.ar    1  UNL1       -0.0042
     15 C           6.0165   -1.7823   21.3489 C.3     1  UNL1        0.1773
     16 N           4.7686   -1.9623   20.5363 N.pl3   1  UNL1       -0.2973
     17 C           3.5853   -1.0709   20.7716 C.ar    1  UNL1        0.0492
     18 C           2.2767   -1.3692   20.1018 C.ar    1  UNL1        0.0154
     19 C           1.0935   -0.4779   20.3370 C.ar    1  UNL1        0.0135
     20 C           1.2188    0.7117   21.2420 C.ar    1  UNL1        0.0683
     21 CL          0.0355    1.6031   21.4772 Cl      1  UNL1       -0.0814
     22 C           2.5274    1.0101   21.9117 C.ar    1  UNL1        0.0694
     23 CL          2.6527    2.1998   22.8167 Cl      1  UNL1       -0.0813
     24 C           3.7107    0.1187   21.6765 C.ar    1  UNL1        0.0268
     25 C           4.7040   -3.0337   19.4884 C.3     1  UNL1        0.1234
     26 C           5.4829   -2.8854   18.2151 C.3     1  UNL1        0.1636
     27 C           4.1771   -0.9456   17.0828 C.3     1  UNL1        0.1742
     28 O           5.4780   -1.5773   17.4809 O.3     1  UNL1       -0.3493
     29 C           6.5444   -4.0572   25.1955 C.3     1  UNL1        0.0926
     30 N           7.1867   -3.1260   26.1806 N.3     1  UNL1       -0.2670
     31 C           6.5724   -2.9263   27.5344 C.3     1  UNL1        0.1047
     32 C           7.2146   -1.9951   28.5195 C.3     1  UNL1        0.1595
     33 O           8.4711   -1.2636   28.1508 O.3     1  UNL1       -0.3508
     34 C           9.0855   -1.4632   26.7970 C.3     1  UNL1        0.1595
     35 C           8.4432   -2.3944   25.8119 C.3     1  UNL1        0.1047
@<TRIPOS>BOND
     1    27    28    1
     2    28    26    1
     3    26    25    1
     4    25    16    1
     5    16    15    1
     6    15     1    1
     7     1     2    2
     8     1     3   am
     9     3     4    1
    10     4     5    1
    11     5     6    1
    12     6     7    1
    13     7     9    1
    14     9    10   ar
    15    10    11   ar
    16    11    12   ar
    17    12    13   ar
    18    13    14   ar
    19     7     8    1
    20     8    29    1
    21    29    30    1
    22    30    31    1
    23    31    32    1
    24    32    33    1
    25    33    34    1
    26    34    35    1
    27    16    17    1
    28    17    18   ar
    29    18    19   ar
    30    19    20   ar
    31    20    21    1
    32    20    22   ar
    33    22    23    1
    34    22    24   ar
    35     8     3    1
    36    35    30    1
    37    24    17   ar
    38    14     9   ar
@<TRIPOS>MOLECULE
*****
 35 38 0 0 0
SMALL
GASTEIGER

@<TRIPOS>ATOM
      1 C           7.9953   -3.4045   27.5754 C.2     1  UNL1        0.2459
      2 O           7.8292   -1.9547   27.2285 O.2     1  UNL1       -0.2730
      3 N           7.6376   -3.8931   28.9478 N.am    1  UNL1       -0.2781
      4 C           7.8038   -5.3429   29.2947 C.3     1  UNL1        0.0935
      5 C           7.4461   -5.8315   30.6670 C.3     1  UNL1        0.0219
      6 C           6.9224   -4.8702   31.6925 C.3     1  UNL1        0.0078
      7 C           6.7562   -3.4204   31.3456 C.3     1  UNL1        0.0419
      8 C           7.1139   -2.9318   29.9733 C.3     1  UNL1        0.0953
      9 C           6.2324   -2.4591   32.3711 C.ar    1  UNL1       -0.0209
     10 C           7.1587   -1.4699   33.0140 C.ar    1  UNL1       -0.0042
     11 C           6.6349   -0.5086   34.0395 C.ar    1  UNL1       -0.0003
     12 C           5.1848   -0.5365   34.4220 C.ar    1  UNL1       -0.0000
     13 C           4.2585   -1.5257   33.7791 C.ar    1  UNL1       -0.0003
     14 C           4.7823   -2.4870   32.7536 C.ar    1  UNL1       -0.0042
     15 C           8.5191   -4.3658   26.5499 C.3     1  UNL1        0.1773
     16 N           7.5649   -5.1154   25.6682 N.pl3   1  UNL1       -0.2973
     17 C           7.1576   -4.5402   24.3440 C.ar    1  UNL1        0.0492
     18 C           7.9964   -4.7934   23.1265 C.ar    1  UNL1        0.0154
     19 C           7.5891   -4.2182   21.8024 C.ar    1  UNL1        0.0135
     20 C           6.3431   -3.3900   21.6958 C.ar    1  UNL1        0.0683
     21 CL          5.9358   -2.8148   20.3716 Cl      1  UNL1       -0.0814
     22 C           5.5043   -3.1369   22.9133 C.ar    1  UNL1        0.0694
     23 CL          4.2583   -2.3086   22.8067 Cl      1  UNL1       -0.0813
     24 C           5.9116   -3.7120   24.2374 C.ar    1  UNL1        0.0268
     25 C           7.0179   -6.4403   26.1105 C.3     1  UNL1        0.1234
     26 C           7.6975   -7.7100   25.6910 C.3     1  UNL1        0.1636
     27 C           8.5159   -9.2330   27.6303 C.3     1  UNL1        0.1742
     28 O           8.8154   -8.2713   26.5188 O.3     1  UNL1       -0.3493
     29 C           6.9477   -1.4819   29.6263 C.3     1  UNL1        0.0926
     30 N           5.5772   -0.9193   29.3914 N.3     1  UNL1       -0.2670
     31 C           5.0756    0.2121   30.2389 C.3     1  UNL1        0.1047
     32 C           3.7051    0.7748   30.0040 C.3     1  UNL1        0.1595
     33 O           2.8363    0.2061   28.9216 O.3     1  UNL1       -0.3508
     34 C           3.3379   -0.9254   28.0740 C.3     1  UNL1        0.1595
     35 C           4.7084   -1.4880   28.3089 C.3     1  UNL1        0.1047
@<TRIPOS>BOND
     1    27    28    1
     2    28    26    1
     3    26    25    1
     4    25    16    1
     5    16    15    1
     6    15     1    1
     7     1     2    2
     8     1     3   am
     9     3     4    1
    10     4     5    1
    11     5     6    1
    12     6     7    1
    13     7     9    1
    14     9    10   ar
    15    10    11   ar
    16    11    12   ar
    17    12    13   ar
    18    13    14   ar
    19     7     8    1
    20     8    29    1
    21    29    30    1
    22    30    31    1
    23    31    32    1
    24    32    33    1
    25    33    34    1
    26    34    35    1
    27    16    17    1
    28    17    18   ar
    29    18    19   ar
    30    19    20   ar
    31    20    21    1
    32    20    22   ar
    33    22    23    1
    34    22    24   ar
    35     8     3    1
    36    35    30    1
    37    24    17   ar
    38    14     9   ar
