@<TRIPOS>MOLECULE
*****
 34 37 0 0 0
SMALL
GASTEIGER

@<TRIPOS>ATOM
      1 N           1.2055    0.4645   20.8328 N.ar    1  UNL1       -0.2796
      2 C           0.6984    1.1797   19.6156 C.ar    1  UNL1        0.3339
      3 O           0.9109    0.5866   18.2542 O.2     1  UNL1       -0.2462
      4 N          -0.0211    2.4879   19.7598 N.ar    1  UNL1       -0.2455
      5 C          -0.5282    3.2032   18.5426 C.3     1  UNL1        0.1383
      6 C          -0.2336    3.0810   21.1210 C.ar    1  UNL1        0.2816
      7 O          -0.9531    4.3892   21.2652 O.2     1  UNL1       -0.2652
      8 C           0.2734    2.3658   22.3382 C.ar    1  UNL1        0.1342
      9 C           0.9929    1.0576   22.1940 C.ar    1  UNL1        0.0871
     10 C           1.3770    0.5862   23.5653 C.ar    1  UNL1        0.0515
     11 C           0.8948    1.6032   24.5569 C.ar    1  UNL1        0.1142
     12 N           0.2128    2.7030   23.7985 N.ar    1  UNL1       -0.3068
     13 N           1.0649    1.5327   26.0456 N.pl3   1  UNL1       -0.2932
     14 C           2.3800    1.8969   26.6683 C.3     1  UNL1        0.0922
     15 C           2.5499    1.8263   28.1570 C.3     1  UNL1        0.0228
     16 C           1.4048    1.3916   29.0229 C.3     1  UNL1        0.0177
     17 C           0.0897    1.0275   28.4002 C.3     1  UNL1        0.0575
     18 C          -1.3386    0.5855   28.2799 C.3     1  UNL1        0.0173
     19 N          -0.2364    0.8035   29.8471 N.3     1  UNL1       -0.3219
     20 C          -0.0802    1.0980   26.9115 C.3     1  UNL1        0.1062
     21 H           0.5827    1.0151   30.4169 H       1  UNL1        0.1188
     22 H          -0.5063   -0.1700   29.9880 H       1  UNL1        0.1188
     23 C           3.4036   -0.8627   20.4369 C.3     1  UNL1        0.0266
     24 C           1.9250   -0.8438   20.6886 C.3     1  UNL1        0.1106
     25 C          -0.4190    3.9254   24.3957 C.3     1  UNL1        0.1348
     26 C          -1.8507    3.8879   24.8416 C.ar    1  UNL1        0.0123
     27 C          -2.9368    3.5862   23.8520 C.ar    1  UNL1        0.0279
     28 C          -4.3685    3.5487   24.2979 C.ar    1  UNL1        0.1399
     29 F          -5.4546    3.2470   23.3083 F       1  UNL1       -0.2042
     30 C          -4.7141    3.8130   25.7335 C.ar    1  UNL1        0.0303
     31 C          -3.6280    4.1147   26.7230 C.ar    1  UNL1        0.0123
     32 C          -2.1963    4.1522   26.2772 C.ar    1  UNL1        0.0664
     33 C          -1.1102    4.4539   27.2667 C.1     1  UNL1        0.1002
     34 N          -0.0241    4.7557   28.2563 N.1     1  UNL1       -0.1908
@<TRIPOS>BOND
     1    23    24    1
     2    24     1    1
     3     1     2   ar
     4     2     3    2
     5     2     4   ar
     6     4     5    1
     7     4     6   ar
     8     6     7    2
     9     6     8   ar
    10     8     9   ar
    11     9    10   ar
    12    10    11   ar
    13    11    13    1
    14    13    14    1
    15    14    15    1
    16    15    16    1
    17    16    17    1
    18    17    18    1
    19    17    19    1
    20    17    20    1
    21    11    12   ar
    22    12    25    1
    23    25    26    1
    24    26    27   ar
    25    27    28   ar
    26    28    29    1
    27    28    30   ar
    28    30    31   ar
    29    31    32   ar
    30    32    33    1
    31    33    34    3
    32     9     1   ar
    33    20    13    1
    34    32    26   ar
    35    12     8   ar
    36    19    21    1
    37    19    22    1
@<TRIPOS>MOLECULE
*****
 34 37 0 0 0
SMALL
GASTEIGER

@<TRIPOS>ATOM
      1 N           6.1999   -3.0815   26.3829 N.ar    1  UNL1       -0.2796
      2 C           5.6024   -2.3905   27.5728 C.ar    1  UNL1        0.3339
      3 O           6.1226   -2.6827   28.9492 O.2     1  UNL1       -0.2462
      4 N           4.4850   -1.4074   27.3864 N.ar    1  UNL1       -0.2455
      5 C           3.8876   -0.7164   28.5763 C.3     1  UNL1        0.1383
      6 C           3.9649   -1.1153   26.0101 C.ar    1  UNL1        0.2816
      7 O           2.8474   -0.1322   25.8237 O.2     1  UNL1       -0.2652
      8 C           4.5622   -1.8062   24.8203 C.ar    1  UNL1        0.1342
      9 C           5.6797   -2.7893   25.0067 C.ar    1  UNL1        0.0871
     10 C           6.0675   -3.3121   23.6553 C.ar    1  UNL1        0.0515
     11 C           5.1896   -2.6521   22.6337 C.ar    1  UNL1        0.1142
     12 N           4.2593   -1.7214   23.3536 N.ar    1  UNL1       -0.3068
     13 N           5.2342   -2.8823   21.1521 N.pl3   1  UNL1       -0.2932
     14 C           4.3262   -3.8971   20.5231 C.3     1  UNL1        0.0922
     15 C           4.3708   -4.1273   19.0415 C.3     1  UNL1        0.0228
     16 C           5.3235   -3.3427   18.1889 C.3     1  UNL1        0.0177
     17 C           6.2315   -2.3279   18.8179 C.3     1  UNL1        0.0575
     18 C           7.2817   -1.2649   18.9481 C.3     1  UNL1        0.0173
     19 N           6.6409   -2.1889   17.3816 N.3     1  UNL1       -0.3219
     20 C           6.1869   -2.0977   20.2995 C.3     1  UNL1        0.1062
     21 H           6.0963   -2.8337   16.8089 H       1  UNL1        0.1188
     22 H           7.6331   -2.4062   17.2882 H       1  UNL1        0.1188
     23 C           7.0289   -5.5366   26.5706 C.3     1  UNL1        0.0266
     24 C           7.3174   -4.0646   26.5694 C.3     1  UNL1        0.1106
     25 C           3.2103   -0.8576   22.7185 C.3     1  UNL1        0.1348
     26 C           3.5228   -0.0993   21.4626 C.ar    1  UNL1        0.0123
     27 C           2.8751   -0.4927   20.1681 C.ar    1  UNL1        0.0279
     28 C           3.1876    0.2656   18.9122 C.ar    1  UNL1        0.1399
     29 F           2.5399   -0.1279   17.6177 F       1  UNL1       -0.2042
     30 C           4.1478    1.4174   18.9507 C.ar    1  UNL1        0.0303
     31 C           4.7955    1.8108   20.2452 C.ar    1  UNL1        0.0123
     32 C           4.4830    1.0525   21.5011 C.ar    1  UNL1        0.0664
     33 C           5.1307    1.4460   22.7955 C.1     1  UNL1        0.1002
     34 N           5.7784    1.8394   24.0901 N.1     1  UNL1       -0.1908
@<TRIPOS>BOND
     1    23    24    1
     2    24     1    1
     3     1     2   ar
     4     2     3    2
     5     2     4   ar
     6     4     5    1
     7     4     6   ar
     8     6     7    2
     9     6     8   ar
    10     8     9   ar
    11     9    10   ar
    12    10    11   ar
    13    11    13    1
    14    13    14    1
    15    14    15    1
    16    15    16    1
    17    16    17    1
    18    17    18    1
    19    17    19    1
    20    17    20    1
    21    11    12   ar
    22    12    25    1
    23    25    26    1
    24    26    27   ar
    25    27    28   ar
    26    28    29    1
    27    28    30   ar
    28    30    31   ar
    29    31    32   ar
    30    32    33    1
    31    33    34    3
    32     9     1   ar
    33    20    13    1
    34    32    26   ar
    35    12     8   ar
    36    19    21    1
    37    19    22    1
@<TRIPOS>MOLECULE
*****
 34 37 0 0 0
SMALL
GASTEIGER

@<TRIPOS>ATOM
      1 N         -11.2704   -2.9013   17.3672 N.ar    1  UNL1       -0.2796
      2 C         -10.4363   -4.0980   17.7170 C.ar    1  UNL1        0.3339
      3 O          -9.0304   -4.2077   17.2055 O.2     1  UNL1       -0.2462
      4 N         -11.0080   -5.1848   18.5782 N.ar    1  UNL1       -0.2455
      5 C         -10.1739   -6.3815   18.9281 C.3     1  UNL1        0.1383
      6 C         -12.4138   -5.0750   19.0897 C.ar    1  UNL1        0.2816
      7 O         -12.9855   -6.1619   19.9510 O.2     1  UNL1       -0.2652
      8 C         -13.2479   -3.8784   18.7400 C.ar    1  UNL1        0.1342
      9 C         -12.6762   -2.7915   17.8787 C.ar    1  UNL1        0.0871
     10 C         -13.7294   -1.7383   17.7013 C.ar    1  UNL1        0.0515
     11 C         -14.9521   -2.1743   18.4530 C.ar    1  UNL1        0.1142
     12 N         -14.6545   -3.4969   19.0949 N.ar    1  UNL1       -0.3068
     13 N         -16.2453   -1.4201   18.5464 N.pl3   1  UNL1       -0.2932
     14 C         -17.3210   -1.6465   17.5258 C.3     1  UNL1        0.0922
     15 C         -18.6142   -0.8922   17.6193 C.3     1  UNL1        0.0228
     16 C         -18.8317    0.0885   18.7332 C.3     1  UNL1        0.0177
     17 C         -17.7560    0.3149   19.7538 C.3     1  UNL1        0.0575
     18 C         -17.0435    0.8703   20.9512 C.3     1  UNL1        0.0173
     19 N         -18.8018    1.2620   20.2631 N.3     1  UNL1       -0.3219
     20 C         -16.4628   -0.4394   19.6603 C.3     1  UNL1        0.1062
     21 H         -19.6209    1.2223   19.6566 H       1  UNL1        0.1188
     22 H         -18.4278    2.2110   20.2676 H       1  UNL1        0.1188
     23 C         -10.3612   -0.4816   17.1057 C.3     1  UNL1        0.0266
     24 C         -10.6986   -1.8144   16.5059 C.3     1  UNL1        0.1106
     25 C         -15.5979   -4.2975   19.9429 C.3     1  UNL1        0.1348
     26 C         -16.5645   -5.2463   19.2984 C.ar    1  UNL1        0.0123
     27 C         -16.0546   -6.4148   18.5082 C.ar    1  UNL1        0.0279
     28 C         -17.0212   -7.3636   17.8636 C.ar    1  UNL1        0.1399
     29 F         -16.5113   -8.5321   17.0734 F       1  UNL1       -0.2042
     30 C         -18.4979   -7.1438   18.0093 C.ar    1  UNL1        0.0303
     31 C         -19.0079   -5.9753   18.7995 C.ar    1  UNL1        0.0123
     32 C         -18.0413   -5.0265   19.4440 C.ar    1  UNL1        0.0664
     33 C         -18.5512   -3.8580   20.2342 C.1     1  UNL1        0.1002
     34 N         -19.0612   -2.6894   21.0244 N.1     1  UNL1       -0.1908
@<TRIPOS>BOND
     1    23    24    1
     2    24     1    1
     3     1     2   ar
     4     2     3    2
     5     2     4   ar
     6     4     5    1
     7     4     6   ar
     8     6     7    2
     9     6     8   ar
    10     8     9   ar
    11     9    10   ar
    12    10    11   ar
    13    11    13    1
    14    13    14    1
    15    14    15    1
    16    15    16    1
    17    16    17    1
    18    17    18    1
    19    17    19    1
    20    17    20    1
    21    11    12   ar
    22    12    25    1
    23    25    26    1
    24    26    27   ar
    25    27    28   ar
    26    28    29    1
    27    28    30   ar
    28    30    31   ar
    29    31    32   ar
    30    32    33    1
    31    33    34    3
    32     9     1   ar
    33    20    13    1
    34    32    26   ar
    35    12     8   ar
    36    19    21    1
    37    19    22    1
@<TRIPOS>MOLECULE
*****
 34 37 0 0 0
SMALL
GASTEIGER

@<TRIPOS>ATOM
      1 N           6.8029   -4.5395   26.7159 N.ar    1  UNL1       -0.2796
      2 C           7.4385   -5.8908   26.8576 C.ar    1  UNL1        0.3339
      3 O           7.5576   -6.5253   28.2117 O.2     1  UNL1       -0.2462
      4 N           7.9551   -6.6076   25.6455 N.ar    1  UNL1       -0.2455
      5 C           8.5907   -7.9589   25.7872 C.3     1  UNL1        0.1383
      6 C           7.8360   -5.9731   24.2915 C.ar    1  UNL1        0.2816
      7 O           8.3526   -6.6899   23.0793 O.2     1  UNL1       -0.2652
      8 C           7.2004   -4.6219   24.1497 C.ar    1  UNL1        0.1342
      9 C           6.6838   -3.9051   25.3619 C.ar    1  UNL1        0.0871
     10 C           6.1098   -2.5932   24.9152 C.ar    1  UNL1        0.0515
     11 C           6.2716   -2.4993   23.4269 C.ar    1  UNL1        0.1142
     12 N           6.9456   -3.7530   22.9538 N.ar    1  UNL1       -0.3068
     13 N           5.8359   -1.3528   22.5633 N.pl3   1  UNL1       -0.2932
     14 C           6.7869   -0.2303   22.2709 C.3     1  UNL1        0.0922
     15 C           6.3511    0.9161   21.4073 C.3     1  UNL1        0.0228
     16 C           4.9643    0.9400   20.8361 C.3     1  UNL1        0.0177
     17 C           4.0133   -0.1825   21.1285 C.3     1  UNL1        0.0575
     18 C           2.7597   -1.0062   21.1199 C.3     1  UNL1        0.0173
     19 N           3.1422    0.6779   20.2619 N.3     1  UNL1       -0.3219
     20 C           4.4491   -1.3289   21.9921 C.3     1  UNL1        0.1062
     21 H           3.6623    1.5064   19.9731 H       1  UNL1        0.1188
     22 H           2.3149    0.9616   20.7867 H       1  UNL1        0.1188
     23 C           7.2192   -3.0015   28.7680 C.3     1  UNL1        0.0266
     24 C           6.2863   -3.8228   27.9281 C.3     1  UNL1        0.1106
     25 C           7.3022   -4.0804   21.5341 C.3     1  UNL1        0.1348
     26 C           6.3771   -3.6907   20.4195 C.ar    1  UNL1        0.0123
     27 C           5.0158   -4.3132   20.3223 C.ar    1  UNL1        0.0279
     28 C           4.0907   -3.9235   19.2078 C.ar    1  UNL1        0.1399
     29 F           2.7294   -4.5459   19.1106 F       1  UNL1       -0.2042
     30 C           4.5269   -2.9112   18.1902 C.ar    1  UNL1        0.0303
     31 C           5.8881   -2.2888   18.2874 C.ar    1  UNL1        0.0123
     32 C           6.8133   -2.6785   19.4020 C.ar    1  UNL1        0.0664
     33 C           8.1745   -2.0561   19.4991 C.1     1  UNL1        0.1002
     34 N           9.5358   -1.4336   19.5963 N.1     1  UNL1       -0.1908
@<TRIPOS>BOND
     1    23    24    1
     2    24     1    1
     3     1     2   ar
     4     2     3    2
     5     2     4   ar
     6     4     5    1
     7     4     6   ar
     8     6     7    2
     9     6     8   ar
    10     8     9   ar
    11     9    10   ar
    12    10    11   ar
    13    11    13    1
    14    13    14    1
    15    14    15    1
    16    15    16    1
    17    16    17    1
    18    17    18    1
    19    17    19    1
    20    17    20    1
    21    11    12   ar
    22    12    25    1
    23    25    26    1
    24    26    27   ar
    25    27    28   ar
    26    28    29    1
    27    28    30   ar
    28    30    31   ar
    29    31    32   ar
    30    32    33    1
    31    33    34    3
    32     9     1   ar
    33    20    13    1
    34    32    26   ar
    35    12     8   ar
    36    19    21    1
    37    19    22    1
@<TRIPOS>MOLECULE
*****
 34 37 0 0 0
SMALL
GASTEIGER

@<TRIPOS>ATOM
      1 N           2.0260    3.5326   18.5528 N.ar    1  UNL1       -0.2796
      2 C           0.6026    3.7602   18.9680 C.ar    1  UNL1        0.3339
      3 O          -0.0741    5.0595   18.6454 O.2     1  UNL1       -0.2462
      4 N          -0.1439    2.6886   19.7058 N.ar    1  UNL1       -0.2455
      5 C          -1.5673    2.9162   20.1210 C.3     1  UNL1        0.1383
      6 C           0.5327    1.3894   20.0284 C.ar    1  UNL1        0.2816
      7 O          -0.2139    0.3178   20.7661 O.2     1  UNL1       -0.2652
      8 C           1.9560    1.1618   19.6132 C.ar    1  UNL1        0.1342
      9 C           2.7027    2.2333   18.8754 C.ar    1  UNL1        0.0871
     10 C           4.0865    1.7261   18.5966 C.ar    1  UNL1        0.0515
     11 C           4.1951    0.3410   19.1621 C.ar    1  UNL1        0.1142
     12 N           2.8784   -0.0078   19.7904 N.ar    1  UNL1       -0.3068
     13 N           5.4076   -0.5405   19.1086 N.pl3   1  UNL1       -0.2932
     14 C           5.6508   -1.4095   17.9105 C.3     1  UNL1        0.0922
     15 C           6.8633   -2.2911   17.8571 C.3     1  UNL1        0.0228
     16 C           7.8325   -2.3036   19.0019 C.3     1  UNL1        0.0177
     17 C           7.5893   -1.4346   20.2000 C.3     1  UNL1        0.0575
     18 C           7.7915   -0.7945   21.5414 C.3     1  UNL1        0.0173
     19 N           8.8719   -2.0938   20.6125 N.3     1  UNL1       -0.3219
     20 C           6.3768   -0.5530   20.2534 C.3     1  UNL1        0.1062
     21 H           9.1760   -2.7345   19.8794 H       1  UNL1        0.1188
     22 H           8.7244   -2.6130   21.4780 H       1  UNL1        0.1188
     23 C           3.6151    5.5878   18.5717 C.3     1  UNL1        0.0266
     24 C           2.7725    4.6042   17.8151 C.3     1  UNL1        0.1106
     25 C           2.5431   -1.2993   20.4755 C.3     1  UNL1        0.1348
     26 C           3.3897   -1.7862   21.6140 C.ar    1  UNL1        0.0123
     27 C           3.4411   -1.0093   22.8961 C.ar    1  UNL1        0.0279
     28 C           4.2877   -1.4961   24.0346 C.ar    1  UNL1        0.1399
     29 F           4.3391   -0.7192   25.3167 F       1  UNL1       -0.2042
     30 C           5.0829   -2.7600   23.8911 C.ar    1  UNL1        0.0303
     31 C           5.0314   -3.5368   22.6090 C.ar    1  UNL1        0.0123
     32 C           4.1849   -3.0500   21.4704 C.ar    1  UNL1        0.0664
     33 C           4.1334   -3.8269   20.1884 C.1     1  UNL1        0.1002
     34 N           4.0820   -4.6038   18.9063 N.1     1  UNL1       -0.1908
@<TRIPOS>BOND
     1    23    24    1
     2    24     1    1
     3     1     2   ar
     4     2     3    2
     5     2     4   ar
     6     4     5    1
     7     4     6   ar
     8     6     7    2
     9     6     8   ar
    10     8     9   ar
    11     9    10   ar
    12    10    11   ar
    13    11    13    1
    14    13    14    1
    15    14    15    1
    16    15    16    1
    17    16    17    1
    18    17    18    1
    19    17    19    1
    20    17    20    1
    21    11    12   ar
    22    12    25    1
    23    25    26    1
    24    26    27   ar
    25    27    28   ar
    26    28    29    1
    27    28    30   ar
    28    30    31   ar
    29    31    32   ar
    30    32    33    1
    31    33    34    3
    32     9     1   ar
    33    20    13    1
    34    32    26   ar
    35    12     8   ar
    36    19    21    1
    37    19    22    1
@<TRIPOS>MOLECULE
*****
 34 37 0 0 0
SMALL
GASTEIGER

@<TRIPOS>ATOM
      1 N           0.4877    2.2567   23.2636 N.ar    1  UNL1       -0.2796
      2 C          -0.6199    2.8292   22.4296 C.ar    1  UNL1        0.3339
      3 O          -1.7386    3.5840   23.0846 O.2     1  UNL1       -0.2462
      4 N          -0.6088    2.6471   20.9408 N.ar    1  UNL1       -0.2455
      5 C          -1.7164    3.2196   20.1068 C.3     1  UNL1        0.1383
      6 C           0.5099    1.8924   20.2859 C.ar    1  UNL1        0.2816
      7 O           0.5210    1.7102   18.7970 O.2     1  UNL1       -0.2652
      8 C           1.6175    1.3198   21.1198 C.ar    1  UNL1        0.1342
      9 C           1.6064    1.5020   22.6087 C.ar    1  UNL1        0.0871
     10 C           2.8254    0.8295   23.1671 C.ar    1  UNL1        0.0515
     11 C           3.5899    0.2317   22.0233 C.ar    1  UNL1        0.1142
     12 N           2.8434    0.5347   20.7580 N.ar    1  UNL1       -0.3068
     13 N           4.8752   -0.5346   22.1266 N.pl3   1  UNL1       -0.2932
     14 C           6.1873    0.1804   21.9952 C.3     1  UNL1        0.0922
     15 C           7.4726   -0.5860   22.0985 C.3     1  UNL1        0.0228
     16 C           7.4459   -2.0673   22.3333 C.3     1  UNL1        0.0177
     17 C           6.1338   -2.7822   22.4648 C.3     1  UNL1        0.0575
     18 C           5.1494   -3.8979   22.6551 C.3     1  UNL1        0.0173
     19 N           7.0773   -3.9360   22.6342 N.3     1  UNL1       -0.3219
     20 C           4.8485   -2.0158   22.3614 C.3     1  UNL1        0.1062
     21 H           8.0386   -3.6017   22.5679 H       1  UNL1        0.1188
     22 H           6.9059   -4.6256   21.9025 H       1  UNL1        0.1188
     23 C          -0.1620    1.4035   25.6300 C.3     1  UNL1        0.0266
     24 C           0.4766    2.4389   24.7525 C.3     1  UNL1        0.1106
     25 C           3.2511    0.1247   19.3740 C.3     1  UNL1        0.1348
     26 C           3.8329   -1.2373   19.1361 C.ar    1  UNL1        0.0123
     27 C           3.0047   -2.4616   19.3913 C.ar    1  UNL1        0.0279
     28 C           3.5864   -3.8236   19.1534 C.ar    1  UNL1        0.1399
     29 F           2.7582   -5.0479   19.4085 F       1  UNL1       -0.2042
     30 C           4.9965   -3.9613   18.6604 C.ar    1  UNL1        0.0303
     31 C           5.8246   -2.7370   18.4053 C.ar    1  UNL1        0.0123
     32 C           5.2429   -1.3750   18.6431 C.ar    1  UNL1        0.0664
     33 C           6.0711   -0.1507   18.3881 C.1     1  UNL1        0.1002
     34 N           6.8993    1.0737   18.1329 N.1     1  UNL1       -0.1908
@<TRIPOS>BOND
     1    23    24    1
     2    24     1    1
     3     1     2   ar
     4     2     3    2
     5     2     4   ar
     6     4     5    1
     7     4     6   ar
     8     6     7    2
     9     6     8   ar
    10     8     9   ar
    11     9    10   ar
    12    10    11   ar
    13    11    13    1
    14    13    14    1
    15    14    15    1
    16    15    16    1
    17    16    17    1
    18    17    18    1
    19    17    19    1
    20    17    20    1
    21    11    12   ar
    22    12    25    1
    23    25    26    1
    24    26    27   ar
    25    27    28   ar
    26    28    29    1
    27    28    30   ar
    28    30    31   ar
    29    31    32   ar
    30    32    33    1
    31    33    34    3
    32     9     1   ar
    33    20    13    1
    34    32    26   ar
    35    12     8   ar
    36    19    21    1
    37    19    22    1
@<TRIPOS>MOLECULE
*****
 34 37 0 0 0
SMALL
GASTEIGER

@<TRIPOS>ATOM
      1 N           0.6339    1.8984   23.2690 N.ar    1  UNL1       -0.2796
      2 C          -0.4419    2.5847   22.4804 C.ar    1  UNL1        0.3339
      3 O          -1.3889    3.5256   23.1646 O.2     1  UNL1       -0.2462
      4 N          -0.5706    2.3303   21.0079 N.ar    1  UNL1       -0.2455
      5 C          -1.6464    3.0167   20.2193 C.3     1  UNL1        0.1383
      6 C           0.3763    1.3895   20.3237 C.ar    1  UNL1        0.2816
      7 O           0.2476    1.1351   18.8510 O.2     1  UNL1       -0.2652
      8 C           1.4521    0.7031   21.1122 C.ar    1  UNL1        0.1342
      9 C           1.5808    0.9576   22.5848 C.ar    1  UNL1        0.0871
     10 C           2.7312    0.1427   23.0972 C.ar    1  UNL1        0.0515
     11 C           3.3135   -0.6153   21.9412 C.ar    1  UNL1        0.1142
     12 N           2.5229   -0.2690   20.7144 N.ar    1  UNL1       -0.3068
     13 N           4.4813   -1.5548   22.0014 N.pl3   1  UNL1       -0.2932
     14 C           4.2801   -2.9741   22.4429 C.3     1  UNL1        0.0922
     15 C           5.4480   -3.9136   22.5030 C.3     1  UNL1        0.0228
     16 C           6.8170   -3.4337   22.1218 C.3     1  UNL1        0.0177
     17 C           7.0183   -2.0143   21.6803 C.3     1  UNL1        0.0575
     18 C           7.7083   -0.7713   21.2021 C.3     1  UNL1        0.0173
     19 N           8.4257   -2.5220   21.5744 N.3     1  UNL1       -0.3219
     20 C           5.8504   -1.0749   21.6201 C.3     1  UNL1        0.1062
     21 H           8.4547   -3.5037   21.8498 H       1  UNL1        0.1188
     22 H           9.0305   -1.9783   22.1900 H       1  UNL1        0.1188
     23 C          -0.0437    1.3456   25.7155 C.3     1  UNL1        0.0266
     24 C           0.7625    2.1529   24.7417 C.3     1  UNL1        0.1106
     25 C           2.7614   -0.8013   19.3324 C.3     1  UNL1        0.1348
     26 C           4.0158   -0.4377   18.5948 C.ar    1  UNL1        0.0123
     27 C           4.2804    0.9916   18.2241 C.ar    1  UNL1        0.0279
     28 C           5.5348    1.3552   17.4864 C.ar    1  UNL1        0.1399
     29 F           5.7993    2.7844   17.1157 F       1  UNL1       -0.2042
     30 C           6.5248    0.2896   17.1195 C.ar    1  UNL1        0.0303
     31 C           6.2603   -1.1395   17.4902 C.ar    1  UNL1        0.0123
     32 C           5.0058   -1.5032   18.2278 C.ar    1  UNL1        0.0664
     33 C           4.7413   -2.9324   18.5985 C.1     1  UNL1        0.1002
     34 N           4.4768   -4.3616   18.9692 N.1     1  UNL1       -0.1908
@<TRIPOS>BOND
     1    23    24    1
     2    24     1    1
     3     1     2   ar
     4     2     3    2
     5     2     4   ar
     6     4     5    1
     7     4     6   ar
     8     6     7    2
     9     6     8   ar
    10     8     9   ar
    11     9    10   ar
    12    10    11   ar
    13    11    13    1
    14    13    14    1
    15    14    15    1
    16    15    16    1
    17    16    17    1
    18    17    18    1
    19    17    19    1
    20    17    20    1
    21    11    12   ar
    22    12    25    1
    23    25    26    1
    24    26    27   ar
    25    27    28   ar
    26    28    29    1
    27    28    30   ar
    28    30    31   ar
    29    31    32   ar
    30    32    33    1
    31    33    34    3
    32     9     1   ar
    33    20    13    1
    34    32    26   ar
    35    12     8   ar
    36    19    21    1
    37    19    22    1
@<TRIPOS>MOLECULE
*****
 34 37 0 0 0
SMALL
GASTEIGER

@<TRIPOS>ATOM
      1 N           6.6350   -3.7737   26.3656 N.ar    1  UNL1       -0.2796
      2 C           6.3312   -3.0226   27.6280 C.ar    1  UNL1        0.3339
      3 O           6.8064   -3.5521   28.9486 O.2     1  UNL1       -0.2462
      4 N           5.5522   -1.7421   27.5699 N.ar    1  UNL1       -0.2455
      5 C           5.2484   -0.9910   28.8323 C.3     1  UNL1        0.1383
      6 C           5.0770   -1.2126   26.2494 C.ar    1  UNL1        0.2816
      7 O           4.2980    0.0679   26.1913 O.2     1  UNL1       -0.2652
      8 C           5.3808   -1.9636   24.9870 C.ar    1  UNL1        0.1342
      9 C           6.1598   -3.2442   25.0451 C.ar    1  UNL1        0.0871
     10 C           6.3064   -3.7616   23.6448 C.ar    1  UNL1        0.0515
     11 C           5.6180   -2.8008   22.7213 C.ar    1  UNL1        0.1142
     12 N           5.0459   -1.6896   23.5508 N.ar    1  UNL1       -0.3068
     13 N           5.5190   -2.9287   21.2300 N.pl3   1  UNL1       -0.2932
     14 C           4.4243   -3.7521   20.6189 C.3     1  UNL1        0.0922
     15 C           4.3254   -3.8799   19.1276 C.3     1  UNL1        0.0228
     16 C           5.3212   -3.1844   18.2474 C.3     1  UNL1        0.0177
     17 C           6.4159   -2.3610   18.8586 C.3     1  UNL1        0.0575
     18 C           7.6217   -1.4751   18.9646 C.3     1  UNL1        0.0173
     19 N           6.7357   -2.1812   17.4041 N.3     1  UNL1       -0.3219
     20 C           6.5148   -2.2331   20.3499 C.3     1  UNL1        0.1062
     21 H           6.0594   -2.6968   16.8410 H       1  UNL1        0.1188
     22 H           7.6741   -2.5342   17.2162 H       1  UNL1        0.1188
     23 C           6.7010   -6.3569   26.6349 C.3     1  UNL1        0.0266
     24 C           7.4141   -5.0543   26.4238 C.3     1  UNL1        0.1106
     25 C           4.2745   -0.5113   23.0346 C.3     1  UNL1        0.1348
     26 C           4.8410    0.3304   21.9299 C.ar    1  UNL1        0.0123
     27 C           6.1246    1.0779   22.1393 C.ar    1  UNL1        0.0279
     28 C           6.6912    1.9196   21.0345 C.ar    1  UNL1        0.1399
     29 F           7.9747    2.6670   21.2439 F       1  UNL1       -0.2042
     30 C           5.9742    2.0139   19.7202 C.ar    1  UNL1        0.0303
     31 C           4.6907    1.2665   19.5109 C.ar    1  UNL1        0.0123
     32 C           4.1240    0.4247   20.6156 C.ar    1  UNL1        0.0664
     33 C           2.8406   -0.3227   20.4062 C.1     1  UNL1        0.1002
     34 N           1.5570   -1.0702   20.1968 N.1     1  UNL1       -0.1908
@<TRIPOS>BOND
     1    23    24    1
     2    24     1    1
     3     1     2   ar
     4     2     3    2
     5     2     4   ar
     6     4     5    1
     7     4     6   ar
     8     6     7    2
     9     6     8   ar
    10     8     9   ar
    11     9    10   ar
    12    10    11   ar
    13    11    13    1
    14    13    14    1
    15    14    15    1
    16    15    16    1
    17    16    17    1
    18    17    18    1
    19    17    19    1
    20    17    20    1
    21    11    12   ar
    22    12    25    1
    23    25    26    1
    24    26    27   ar
    25    27    28   ar
    26    28    29    1
    27    28    30   ar
    28    30    31   ar
    29    31    32   ar
    30    32    33    1
    31    33    34    3
    32     9     1   ar
    33    20    13    1
    34    32    26   ar
    35    12     8   ar
    36    19    21    1
    37    19    22    1
@<TRIPOS>MOLECULE
*****
 34 37 0 0 0
SMALL
GASTEIGER

@<TRIPOS>ATOM
      1 N           1.4794    1.2005   24.0056 N.ar    1  UNL1       -0.2796
      2 C           1.4605    1.3663   25.4963 C.ar    1  UNL1        0.3339
      3 O           0.5347    2.3633   26.1283 O.2     1  UNL1       -0.2462
      4 N           2.3671    0.5354   26.3550 N.ar    1  UNL1       -0.2455
      5 C           2.3481    0.7013   27.8457 C.3     1  UNL1        0.1383
      6 C           3.2927   -0.4615   25.7231 C.ar    1  UNL1        0.2816
      7 O           4.1994   -1.2925   26.5819 O.2     1  UNL1       -0.2652
      8 C           3.3118   -0.6274   24.2324 C.ar    1  UNL1        0.1342
      9 C           2.4051    0.2036   23.3737 C.ar    1  UNL1        0.0871
     10 C           2.6436   -0.1781   21.9428 C.ar    1  UNL1        0.0515
     11 C           3.6977   -1.2449   21.9172 C.ar    1  UNL1        0.1142
     12 N           4.1107   -1.5227   23.3323 N.ar    1  UNL1       -0.3068
     13 N           4.2432   -1.9163   20.6917 N.pl3   1  UNL1       -0.2932
     14 C           3.6544   -3.2136   20.2223 C.3     1  UNL1        0.0922
     15 C           4.1999   -3.8849   18.9968 C.3     1  UNL1        0.0228
     16 C           5.3341   -3.2589   18.2407 C.3     1  UNL1        0.0177
     17 C           5.9229   -1.9616   18.7101 C.3     1  UNL1        0.0575
     18 C           6.8079   -0.7516   18.7600 C.3     1  UNL1        0.0173
     19 N           6.7757   -2.2127   17.5020 N.3     1  UNL1       -0.3219
     20 C           5.3774   -1.2903   19.9357 C.3     1  UNL1        0.1062
     21 H           6.4893   -3.0857   17.0591 H       1  UNL1        0.1188
     22 H           7.7537   -2.2793   17.7840 H       1  UNL1        0.1188
     23 C           1.0721    3.3144   22.5511 C.3     1  UNL1        0.0266
     24 C           0.5727    2.0315   23.1469 C.3     1  UNL1        0.1106
     25 C           5.1415   -2.5204   23.7703 C.3     1  UNL1        0.1348
     26 C           6.4286   -2.6513   23.0112 C.ar    1  UNL1        0.0123
     27 C           6.7191   -3.9031   22.2375 C.ar    1  UNL1        0.0279
     28 C           8.0062   -4.0339   21.4784 C.ar    1  UNL1        0.1399
     29 F           8.2967   -5.2857   20.7047 F       1  UNL1       -0.2042
     30 C           9.0029   -2.9130   21.4931 C.ar    1  UNL1        0.0303
     31 C           8.7125   -1.6613   22.2669 C.ar    1  UNL1        0.0123
     32 C           7.4253   -1.5303   23.0259 C.ar    1  UNL1        0.0664
     33 C           7.1349   -0.2787   23.7996 C.1     1  UNL1        0.1002
     34 N           6.8444    0.9731   24.5734 N.1     1  UNL1       -0.1908
@<TRIPOS>BOND
     1    23    24    1
     2    24     1    1
     3     1     2   ar
     4     2     3    2
     5     2     4   ar
     6     4     5    1
     7     4     6   ar
     8     6     7    2
     9     6     8   ar
    10     8     9   ar
    11     9    10   ar
    12    10    11   ar
    13    11    13    1
    14    13    14    1
    15    14    15    1
    16    15    16    1
    17    16    17    1
    18    17    18    1
    19    17    19    1
    20    17    20    1
    21    11    12   ar
    22    12    25    1
    23    25    26    1
    24    26    27   ar
    25    27    28   ar
    26    28    29    1
    27    28    30   ar
    28    30    31   ar
    29    31    32   ar
    30    32    33    1
    31    33    34    3
    32     9     1   ar
    33    20    13    1
    34    32    26   ar
    35    12     8   ar
    36    19    21    1
    37    19    22    1
