@<TRIPOS>MOLECULE
*****
 29 30 0 0 0
SMALL
GASTEIGER

@<TRIPOS>ATOM
      1 N          -8.0831  -19.9626   21.2308 N.3     1  UNL1       -0.1701
      2 H          -7.8332  -19.8160   20.2528 H       1  UNL1        0.1494
      3 S          -9.2227  -19.0345   21.5303 S.O2    1  UNL1        0.0608
      4 O          -9.2180  -19.4899   22.9595 O.2     1  UNL1       -0.1530
      5 O          -9.2275  -18.5791   20.1012 O.2     1  UNL1       -0.1530
      6 C         -10.0877  -16.7030   22.2828 C.ar    1  UNL1        0.0719
      7 C         -11.2273  -15.7749   22.5823 C.ar    1  UNL1        0.0059
      8 C         -12.6418  -16.2501   22.4288 C.ar    1  UNL1        0.0002
      9 C         -12.9165  -17.6534   21.9758 C.ar    1  UNL1        0.0014
     10 C         -11.7769  -18.5815   21.6764 C.ar    1  UNL1        0.0200
     11 C         -10.3624  -18.1063   21.8298 C.ar    1  UNL1        0.1263
     12 C          -6.4616  -16.1481   23.7971 C.3     1  UNL1        0.1109
     13 N          -7.8760  -16.6233   23.6437 N.am    1  UNL1       -0.2991
     14 C          -8.6732  -16.2278   22.4362 C.2     1  UNL1        0.2472
     15 O          -8.0561  -15.3571   21.3823 O.2     1  UNL1       -0.2701
     16 H          -8.2811  -17.1949   24.3354 H       1  UNL1        0.1498
     17 C          -6.8118  -19.8688   22.0214 C.3     1  UNL1        0.1763
     18 C          -5.6062  -19.2032   21.4267 C.2     1  UNL1        0.2439
     19 O          -5.6968  -18.5545   20.0773 O.2     1  UNL1       -0.2732
     20 N          -4.3101  -19.1862   22.1816 N.am    1  UNL1       -0.2827
     21 H          -4.2506  -19.6120   23.0672 H       1  UNL1        0.1549
     22 C          -3.1045  -18.5206   21.5870 C.ar    1  UNL1        0.0505
     23 C          -2.2690  -19.2475   20.5753 C.ar    1  UNL1        0.0178
     24 C          -1.0634  -18.5819   19.9807 C.ar    1  UNL1        0.0379
     25 C          -0.6934  -17.1893   20.3978 C.ar    1  UNL1        0.1338
     26 O           0.5122  -16.5237   19.8033 O.3     1  UNL1       -0.5055
     27 C          -1.5289  -16.4625   21.4095 C.ar    1  UNL1        0.0379
     28 C          -2.7345  -17.1282   22.0041 C.ar    1  UNL1        0.0178
     29 H           1.0341  -16.9778   19.1713 H       1  UNL1        0.2922
@<TRIPOS>BOND
     1    12    13    1
     2    13    14   am
     3    14    15    2
     4    14     6    1
     5     6     7   ar
     6     7     8   ar
     7     8     9   ar
     8     9    10   ar
     9    10    11   ar
    10    11     3    1
    11     3     4    2
    12     3     5    2
    13     3     1    1
    14     1    17    1
    15    17    18    1
    16    18    19    2
    17    18    20   am
    18    20    22    1
    19    22    23   ar
    20    23    24   ar
    21    24    25   ar
    22    25    26    1
    23    25    27   ar
    24    27    28   ar
    25    11     6   ar
    26    28    22   ar
    27    13    16    1
    28     1     2    1
    29    20    21    1
    30    26    29    1
@<TRIPOS>MOLECULE
*****
 29 30 0 0 0
SMALL
GASTEIGER

@<TRIPOS>ATOM
      1 N          -8.5275  -18.8311   19.6301 N.3     1  UNL1       -0.1701
      2 H          -7.8733  -18.0518   19.5577 H       1  UNL1        0.1494
      3 S          -9.6259  -18.3901   20.5515 S.O2    1  UNL1        0.0608
      4 O         -10.6422  -18.9980   19.6309 O.2     1  UNL1       -0.1530
      5 O          -8.6096  -17.7822   21.4722 O.2     1  UNL1       -0.1530
      6 C         -11.2106  -16.5307   21.4355 C.ar    1  UNL1        0.0719
      7 C         -12.3089  -16.0897   22.3569 C.ar    1  UNL1        0.0059
      8 C         -12.9210  -17.0673   23.3160 C.ar    1  UNL1        0.0002
      9 C         -12.4348  -18.4857   23.3535 C.ar    1  UNL1        0.0014
     10 C         -11.3364  -18.9267   22.4321 C.ar    1  UNL1        0.0200
     11 C         -10.7243  -17.9491   21.4730 C.ar    1  UNL1        0.1263
     12 C          -8.7881  -13.7722   19.9280 C.3     1  UNL1        0.1109
     13 N          -9.4002  -14.7497   20.8870 N.am    1  UNL1       -0.2991
     14 C         -10.5985  -15.5531   20.4764 C.2     1  UNL1        0.2472
     15 O         -11.1847  -15.3790   19.1067 O.2     1  UNL1       -0.2701
     16 H          -9.0155  -14.8640   21.7860 H       1  UNL1        0.1498
     17 C          -7.7157  -20.0487   19.9595 C.3     1  UNL1        0.1763
     18 C          -6.2244  -19.9448   20.0837 C.2     1  UNL1        0.2439
     19 O          -5.3907  -21.1887   20.1704 O.2     1  UNL1       -0.2732
     20 N          -5.5670  -18.5971   20.1211 N.am    1  UNL1       -0.2827
     21 H          -6.1143  -17.7807   20.0641 H       1  UNL1        0.1549
     22 C          -4.0758  -18.4932   20.2452 C.ar    1  UNL1        0.0505
     23 C          -3.2412  -18.1976   19.0344 C.ar    1  UNL1        0.0178
     24 C          -1.7500  -18.0938   19.1585 C.ar    1  UNL1        0.0379
     25 C          -1.0933  -18.2854   20.4935 C.ar    1  UNL1        0.1338
     26 O           0.3979  -18.1815   20.6176 O.3     1  UNL1       -0.5055
     27 C          -1.9279  -18.5810   21.7043 C.ar    1  UNL1        0.0379
     28 C          -3.4192  -18.6849   21.5801 C.ar    1  UNL1        0.0178
     29 H           0.9192  -17.9969   19.8612 H       1  UNL1        0.2922
@<TRIPOS>BOND
     1    12    13    1
     2    13    14   am
     3    14    15    2
     4    14     6    1
     5     6     7   ar
     6     7     8   ar
     7     8     9   ar
     8     9    10   ar
     9    10    11   ar
    10    11     3    1
    11     3     4    2
    12     3     5    2
    13     3     1    1
    14     1    17    1
    15    17    18    1
    16    18    19    2
    17    18    20   am
    18    20    22    1
    19    22    23   ar
    20    23    24   ar
    21    24    25   ar
    22    25    26    1
    23    25    27   ar
    24    27    28   ar
    25    11     6   ar
    26    28    22   ar
    27    13    16    1
    28     1     2    1
    29    20    21    1
    30    26    29    1
@<TRIPOS>MOLECULE
*****
 29 30 0 0 0
SMALL
GASTEIGER

@<TRIPOS>ATOM
      1 N          -8.0832  -19.0262   19.8356 N.3     1  UNL1       -0.1701
      2 H          -7.5048  -18.1864   19.8625 H       1  UNL1        0.1494
      3 S          -9.0314  -18.9361   20.9943 S.O2    1  UNL1        0.0608
      4 O          -7.9574  -18.2969   21.8236 O.2     1  UNL1       -0.1530
      5 O         -10.1055  -19.5754   20.1650 O.2     1  UNL1       -0.1530
      6 C         -10.9392  -17.6972   22.2495 C.ar    1  UNL1        0.0719
      7 C         -11.8875  -17.6073   23.4082 C.ar    1  UNL1        0.0059
      8 C         -11.8763  -18.6662   24.4705 C.ar    1  UNL1        0.0002
      9 C         -10.9168  -19.8152   24.3741 C.ar    1  UNL1        0.0014
     10 C          -9.9686  -19.9051   23.2154 C.ar    1  UNL1        0.0200
     11 C          -9.9798  -18.8461   22.1531 C.ar    1  UNL1        0.1263
     12 C         -11.9777  -15.6333   19.0228 C.3     1  UNL1        0.1109
     13 N         -11.9665  -16.6922   20.0851 N.am    1  UNL1       -0.2991
     14 C         -10.9505  -16.6382   21.1872 C.2     1  UNL1        0.2472
     15 O          -9.9456  -15.5253   21.2271 O.2     1  UNL1       -0.2701
     16 H         -12.6260  -17.4227   20.0589 H       1  UNL1        0.1498
     17 C          -7.1475  -20.1929   19.7211 C.3     1  UNL1        0.1763
     18 C          -5.6725  -19.9924   19.9063 C.2     1  UNL1        0.2439
     19 O          -4.7838  -21.1697   20.1784 O.2     1  UNL1       -0.2732
     20 N          -5.0862  -18.6144   19.8193 N.am    1  UNL1       -0.2827
     21 H          -5.6695  -17.8417   19.6407 H       1  UNL1        0.1549
     22 C          -3.6113  -18.4139   20.0045 C.ar    1  UNL1        0.0505
     23 C          -2.9887  -18.6272   21.3524 C.ar    1  UNL1        0.0178
     24 C          -1.5138  -18.4266   21.5376 C.ar    1  UNL1        0.0379
     25 C          -0.6614  -18.0127   20.3748 C.ar    1  UNL1        0.1338
     26 O           0.8136  -17.8121   20.5600 O.3     1  UNL1       -0.5055
     27 C          -1.2839  -17.7993   19.0268 C.ar    1  UNL1        0.0379
     28 C          -2.7589  -17.9999   18.8417 C.ar    1  UNL1        0.0178
     29 H           1.2024  -17.9454   21.4020 H       1  UNL1        0.2922
@<TRIPOS>BOND
     1    12    13    1
     2    13    14   am
     3    14    15    2
     4    14     6    1
     5     6     7   ar
     6     7     8   ar
     7     8     9   ar
     8     9    10   ar
     9    10    11   ar
    10    11     3    1
    11     3     4    2
    12     3     5    2
    13     3     1    1
    14     1    17    1
    15    17    18    1
    16    18    19    2
    17    18    20   am
    18    20    22    1
    19    22    23   ar
    20    23    24   ar
    21    24    25   ar
    22    25    26    1
    23    25    27   ar
    24    27    28   ar
    25    11     6   ar
    26    28    22   ar
    27    13    16    1
    28     1     2    1
    29    20    21    1
    30    26    29    1
@<TRIPOS>MOLECULE
*****
 29 30 0 0 0
SMALL
GASTEIGER

@<TRIPOS>ATOM
      1 N          -8.0451  -19.5694   23.2776 N.3     1  UNL1       -0.1701
      2 H          -7.9993  -20.3252   23.9611 H       1  UNL1        0.1494
      3 S          -9.4778  -19.1300   23.2134 S.O2    1  UNL1        0.0608
      4 O          -9.0436  -17.6984   23.3224 O.2     1  UNL1       -0.1530
      5 O          -9.9121  -20.5616   23.1045 O.2     1  UNL1       -0.1530
      6 C         -11.5294  -18.3409   21.8283 C.ar    1  UNL1        0.0719
      7 C         -12.9621  -17.9015   21.7642 C.ar    1  UNL1        0.0059
      8 C         -13.7761  -17.8116   23.0209 C.ar    1  UNL1        0.0002
      9 C         -13.1573  -18.1613   24.3418 C.ar    1  UNL1        0.0014
     10 C         -11.7246  -18.6007   24.4060 C.ar    1  UNL1        0.0200
     11 C         -10.9106  -18.6905   23.1492 C.ar    1  UNL1        0.1263
     12 C          -9.4613  -19.8590   18.8005 C.3     1  UNL1        0.1109
     13 N         -10.2752  -19.7692   20.0572 N.am    1  UNL1       -0.2991
     14 C         -10.7155  -18.4307   20.5716 C.2     1  UNL1        0.2472
     15 O         -10.3418  -17.1821   19.8292 O.2     1  UNL1       -0.2701
     16 H         -10.5204  -20.5887   20.5445 H       1  UNL1        0.1498
     17 C          -7.3557  -20.0625   22.0400 C.3     1  UNL1        0.1763
     18 C          -6.1855  -19.3078   21.4823 C.2     1  UNL1        0.2439
     19 O          -6.3987  -18.2743   20.4163 O.2     1  UNL1       -0.2732
     20 N          -4.8020  -19.5867   21.9905 N.am    1  UNL1       -0.2827
     21 H          -4.6621  -20.2650   22.6902 H       1  UNL1        0.1549
     22 C          -3.6318  -18.8320   21.4328 C.ar    1  UNL1        0.0505
     23 C          -3.0318  -19.2416   20.1205 C.ar    1  UNL1        0.0178
     24 C          -1.8616  -18.4869   19.5627 C.ar    1  UNL1        0.0379
     25 C          -1.2913  -17.3227   20.3174 C.ar    1  UNL1        0.1338
     26 O          -0.1211  -16.5681   19.7597 O.3     1  UNL1       -0.5055
     27 C          -1.8913  -16.9132   21.6297 C.ar    1  UNL1        0.0379
     28 C          -3.0616  -17.6679   22.1875 C.ar    1  UNL1        0.0178
     29 H           0.2537  -16.8239   18.9399 H       1  UNL1        0.2922
@<TRIPOS>BOND
     1    12    13    1
     2    13    14   am
     3    14    15    2
     4    14     6    1
     5     6     7   ar
     6     7     8   ar
     7     8     9   ar
     8     9    10   ar
     9    10    11   ar
    10    11     3    1
    11     3     4    2
    12     3     5    2
    13     3     1    1
    14     1    17    1
    15    17    18    1
    16    18    19    2
    17    18    20   am
    18    20    22    1
    19    22    23   ar
    20    23    24   ar
    21    24    25   ar
    22    25    26    1
    23    25    27   ar
    24    27    28   ar
    25    11     6   ar
    26    28    22   ar
    27    13    16    1
    28     1     2    1
    29    20    21    1
    30    26    29    1
@<TRIPOS>MOLECULE
*****
 29 30 0 0 0
SMALL
GASTEIGER

@<TRIPOS>ATOM
      1 N          -8.9314  -16.0907   23.5271 N.3     1  UNL1       -0.1701
      2 H          -9.6437  -16.3175   24.2211 H       1  UNL1        0.1494
      3 S          -9.0862  -17.0785   22.4090 S.O2    1  UNL1        0.0608
      4 O          -9.1120  -18.2007   23.4039 O.2     1  UNL1       -0.1530
      5 O          -9.0605  -15.9563   21.4140 O.2     1  UNL1       -0.1530
      6 C         -10.6104  -18.4828   20.8422 C.ar    1  UNL1        0.0719
      7 C         -10.7652  -19.4705   19.7240 C.ar    1  UNL1        0.0059
      8 C          -9.5506  -20.0419   19.0545 C.ar    1  UNL1        0.0002
      9 C          -8.1812  -19.6254   19.5031 C.ar    1  UNL1        0.0014
     10 C          -8.0264  -18.6377   20.6212 C.ar    1  UNL1        0.0200
     11 C          -9.2410  -18.0663   21.2908 C.ar    1  UNL1        0.1263
     12 C         -13.4348  -17.8135   23.5486 C.3     1  UNL1        0.1109
     13 N         -12.2202  -18.3848   22.8791 N.am    1  UNL1       -0.2991
     14 C         -11.8251  -17.9115   21.5117 C.2     1  UNL1        0.2472
     15 O         -12.6446  -16.8668   20.8138 O.2     1  UNL1       -0.2701
     16 H         -11.6823  -19.0705   23.3371 H       1  UNL1        0.1498
     17 C          -7.6279  -15.9881   24.2622 C.3     1  UNL1        0.1763
     18 C          -6.3431  -16.3134   23.5596 C.2     1  UNL1        0.2439
     19 O          -5.4530  -15.2079   23.0741 O.2     1  UNL1       -0.2732
     20 N          -5.9484  -17.7442   23.3425 N.am    1  UNL1       -0.2827
     21 H          -6.5326  -18.4697   23.6611 H       1  UNL1        0.1549
     22 C          -4.6637  -18.0694   22.6399 C.ar    1  UNL1        0.0505
     23 C          -4.6657  -19.0065   21.4686 C.ar    1  UNL1        0.0178
     24 C          -3.3810  -19.3318   20.7661 C.ar    1  UNL1        0.0379
     25 C          -2.0941  -18.7200   21.2349 C.ar    1  UNL1        0.1338
     26 O          -0.8094  -19.0453   20.5323 O.3     1  UNL1       -0.5055
     27 C          -2.0920  -17.7830   22.4062 C.ar    1  UNL1        0.0379
     28 C          -3.3768  -17.4577   23.1087 C.ar    1  UNL1        0.0178
     29 H          -0.8107  -19.6306   19.8007 H       1  UNL1        0.2922
@<TRIPOS>BOND
     1    12    13    1
     2    13    14   am
     3    14    15    2
     4    14     6    1
     5     6     7   ar
     6     7     8   ar
     7     8     9   ar
     8     9    10   ar
     9    10    11   ar
    10    11     3    1
    11     3     4    2
    12     3     5    2
    13     3     1    1
    14     1    17    1
    15    17    18    1
    16    18    19    2
    17    18    20   am
    18    20    22    1
    19    22    23   ar
    20    23    24   ar
    21    24    25   ar
    22    25    26    1
    23    25    27   ar
    24    27    28   ar
    25    11     6   ar
    26    28    22   ar
    27    13    16    1
    28     1     2    1
    29    20    21    1
    30    26    29    1
@<TRIPOS>MOLECULE
*****
 29 30 0 0 0
SMALL
GASTEIGER

@<TRIPOS>ATOM
      1 N          -8.3312  -18.4447   20.7722 N.3     1  UNL1       -0.1701
      2 H          -8.4069  -17.7585   20.0213 H       1  UNL1        0.1494
      3 S          -8.0184  -17.6823   22.0255 S.O2    1  UNL1        0.0608
      4 O          -8.1380  -18.9463   22.8242 O.2     1  UNL1       -0.1530
      5 O          -7.8988  -16.4183   21.2268 O.2     1  UNL1       -0.1530
      6 C          -8.8088  -16.5436   24.2230 C.ar    1  UNL1        0.0719
      7 C          -8.4960  -15.7812   25.4763 C.ar    1  UNL1        0.0059
      8 C          -7.0799  -15.3950   25.7855 C.ar    1  UNL1        0.0002
      9 C          -5.9767  -15.7712   24.8414 C.ar    1  UNL1        0.0014
     10 C          -6.2896  -16.5336   23.5881 C.ar    1  UNL1        0.0200
     11 C          -7.7056  -16.9198   23.2789 C.ar    1  UNL1        0.1263
     12 C         -12.2090  -18.5893   24.1580 C.3     1  UNL1        0.1109
     13 N         -10.7929  -18.2030   24.4672 N.am    1  UNL1       -0.2991
     14 C         -10.2249  -16.9299   23.9138 C.2     1  UNL1        0.2472
     15 O         -11.0729  -16.0430   23.0511 O.2     1  UNL1       -0.2701
     16 H         -10.2364  -18.7852   25.0334 H       1  UNL1        0.1498
     17 C          -7.3943  -19.5123   20.2902 C.3     1  UNL1        0.1763
     18 C          -5.9186  -19.3757   20.5220 C.2     1  UNL1        0.2439
     19 O          -5.2551  -20.1604   21.6147 O.2     1  UNL1       -0.2732
     20 N          -5.1063  -18.4543   19.6610 N.am    1  UNL1       -0.2827
     21 H          -5.5418  -17.9392   18.9439 H       1  UNL1        0.1549
     22 C          -3.6307  -18.3176   19.8928 C.ar    1  UNL1        0.0505
     23 C          -3.0760  -18.4299   21.2819 C.ar    1  UNL1        0.0178
     24 C          -1.6004  -18.2932   21.5136 C.ar    1  UNL1        0.0379
     25 C          -0.6793  -18.0442   20.3562 C.ar    1  UNL1        0.1338
     26 O           0.7963  -17.9075   20.5879 O.3     1  UNL1       -0.5055
     27 C          -1.2340  -17.9318   18.9670 C.ar    1  UNL1        0.0379
     28 C          -2.7097  -18.0685   18.7353 C.ar    1  UNL1        0.0178
     29 H           1.1428  -17.9777   21.4557 H       1  UNL1        0.2922
@<TRIPOS>BOND
     1    12    13    1
     2    13    14   am
     3    14    15    2
     4    14     6    1
     5     6     7   ar
     6     7     8   ar
     7     8     9   ar
     8     9    10   ar
     9    10    11   ar
    10    11     3    1
    11     3     4    2
    12     3     5    2
    13     3     1    1
    14     1    17    1
    15    17    18    1
    16    18    19    2
    17    18    20   am
    18    20    22    1
    19    22    23   ar
    20    23    24   ar
    21    24    25   ar
    22    25    26    1
    23    25    27   ar
    24    27    28   ar
    25    11     6   ar
    26    28    22   ar
    27    13    16    1
    28     1     2    1
    29    20    21    1
    30    26    29    1
@<TRIPOS>MOLECULE
*****
 29 30 0 0 0
SMALL
GASTEIGER

@<TRIPOS>ATOM
      1 N          -7.5456  -15.0378   23.5102 N.3     1  UNL1       -0.1701
      2 H          -7.9089  -14.3915   24.2108 H       1  UNL1        0.1494
      3 S          -8.7170  -15.8188   22.9929 S.O2    1  UNL1        0.0608
      4 O          -9.1060  -16.1669   24.3991 O.2     1  UNL1       -0.1530
      5 O          -8.3280  -15.4708   21.5867 O.2     1  UNL1       -0.1530
      6 C          -9.6692  -17.9196   21.7970 C.ar    1  UNL1        0.0719
      7 C         -10.8406  -18.7006   21.2796 C.ar    1  UNL1        0.0059
      8 C         -12.2313  -18.1620   21.4407 C.ar    1  UNL1        0.0002
      9 C         -12.4505  -16.8423   22.1191 C.ar    1  UNL1        0.0014
     10 C         -11.2791  -16.0613   22.6365 C.ar    1  UNL1        0.0200
     11 C          -9.8884  -16.5999   22.4754 C.ar    1  UNL1        0.1263
     12 C          -6.2589  -19.0547   20.1144 C.3     1  UNL1        0.1109
     13 N          -7.6495  -18.5160   20.2755 N.am    1  UNL1       -0.2991
     14 C          -8.2785  -18.4583   21.6359 C.2     1  UNL1        0.2472
     15 O          -7.5169  -18.9391   22.8353 O.2     1  UNL1       -0.2701
     16 H          -8.1494  -18.2004   19.4882 H       1  UNL1        0.1498
     17 C          -6.3868  -15.7524   24.1399 C.3     1  UNL1        0.1763
     18 C          -5.1567  -16.0437   23.3323 C.2     1  UNL1        0.2439
     19 O          -4.3353  -14.9150   22.7833 O.2     1  UNL1       -0.2732
     20 N          -4.7481  -17.4636   23.0738 N.am    1  UNL1       -0.2827
     21 H          -5.2872  -18.2043   23.4342 H       1  UNL1        0.1549
     22 C          -3.5181  -17.7549   22.2663 C.ar    1  UNL1        0.0505
     23 C          -2.5671  -16.6471   21.9220 C.ar    1  UNL1        0.0178
     24 C          -1.3371  -16.9384   21.1145 C.ar    1  UNL1        0.0379
     25 C          -1.0580  -18.3375   20.6511 C.ar    1  UNL1        0.1338
     26 O           0.1720  -18.6288   19.8436 O.3     1  UNL1       -0.5055
     27 C          -2.0090  -19.4453   20.9954 C.ar    1  UNL1        0.0379
     28 C          -3.2390  -19.1539   21.8030 C.ar    1  UNL1        0.0178
     29 H           0.7660  -17.9368   19.6285 H       1  UNL1        0.2922
@<TRIPOS>BOND
     1    12    13    1
     2    13    14   am
     3    14    15    2
     4    14     6    1
     5     6     7   ar
     6     7     8   ar
     7     8     9   ar
     8     9    10   ar
     9    10    11   ar
    10    11     3    1
    11     3     4    2
    12     3     5    2
    13     3     1    1
    14     1    17    1
    15    17    18    1
    16    18    19    2
    17    18    20   am
    18    20    22    1
    19    22    23   ar
    20    23    24   ar
    21    24    25   ar
    22    25    26    1
    23    25    27   ar
    24    27    28   ar
    25    11     6   ar
    26    28    22   ar
    27    13    16    1
    28     1     2    1
    29    20    21    1
    30    26    29    1
@<TRIPOS>MOLECULE
*****
 29 30 0 0 0
SMALL
GASTEIGER

@<TRIPOS>ATOM
      1 N          -4.6093  -16.7499   24.3656 N.3     1  UNL1       -0.1701
      2 H          -3.8723  -16.4472   25.0025 H       1  UNL1        0.1494
      3 S          -3.9300  -17.2716   23.1342 S.O2    1  UNL1        0.0608
      4 O          -3.8980  -15.8846   22.5641 O.2     1  UNL1       -0.1530
      5 O          -3.9620  -18.6587   23.7043 O.2     1  UNL1       -0.1530
      6 C          -4.0142  -18.6375   20.9257 C.ar    1  UNL1        0.0719
      7 C          -3.3349  -19.1593   19.6944 C.ar    1  UNL1        0.0059
      8 C          -1.8922  -18.8370   19.4401 C.ar    1  UNL1        0.0002
      9 C          -1.1287  -17.9929   20.4171 C.ar    1  UNL1        0.0014
     10 C          -1.8080  -17.4711   21.6484 C.ar    1  UNL1        0.0200
     11 C          -3.2507  -17.7935   21.9028 C.ar    1  UNL1        0.1263
     12 C          -7.2655  -20.4073   22.3564 C.3     1  UNL1        0.1109
     13 N          -5.8228  -20.0850   22.1021 N.am    1  UNL1       -0.2991
     14 C          -5.4569  -18.9598   21.1800 C.2     1  UNL1        0.2472
     15 O          -6.5337  -18.1570   20.5123 O.2     1  UNL1       -0.2701
     16 H          -5.1160  -20.6119   22.5403 H       1  UNL1        0.1498
     17 C          -5.5840  -15.6146   24.2605 C.3     1  UNL1        0.1763
     18 C          -7.0587  -15.8889   24.2699 C.2     1  UNL1        0.2439
     19 O          -7.9607  -15.1098   25.1806 O.2     1  UNL1       -0.2732
     20 N          -7.6314  -16.9424   23.3687 N.am    1  UNL1       -0.2827
     21 H          -7.0393  -17.4538   22.7710 H       1  UNL1        0.1549
     22 C          -9.1060  -17.2168   23.3781 C.ar    1  UNL1        0.0505
     23 C          -9.6699  -18.2545   24.3029 C.ar    1  UNL1        0.0178
     24 C         -11.1445  -18.5289   24.3123 C.ar    1  UNL1        0.0379
     25 C         -12.0553  -17.7655   23.3969 C.ar    1  UNL1        0.1338
     26 O         -13.5300  -18.0399   23.4063 O.3     1  UNL1       -0.5055
     27 C         -11.4914  -16.7279   22.4721 C.ar    1  UNL1        0.0379
     28 C         -10.0167  -16.4535   22.4627 C.ar    1  UNL1        0.0178
     29 H         -13.8822  -18.6881   23.9840 H       1  UNL1        0.2922
@<TRIPOS>BOND
     1    12    13    1
     2    13    14   am
     3    14    15    2
     4    14     6    1
     5     6     7   ar
     6     7     8   ar
     7     8     9   ar
     8     9    10   ar
     9    10    11   ar
    10    11     3    1
    11     3     4    2
    12     3     5    2
    13     3     1    1
    14     1    17    1
    15    17    18    1
    16    18    19    2
    17    18    20   am
    18    20    22    1
    19    22    23   ar
    20    23    24   ar
    21    24    25   ar
    22    25    26    1
    23    25    27   ar
    24    27    28   ar
    25    11     6   ar
    26    28    22   ar
    27    13    16    1
    28     1     2    1
    29    20    21    1
    30    26    29    1
@<TRIPOS>MOLECULE
*****
 29 30 0 0 0
SMALL
GASTEIGER

@<TRIPOS>ATOM
      1 N          -8.4273  -19.7367   20.0773 N.3     1  UNL1       -0.1701
      2 H          -7.9052  -19.2289   19.3632 H       1  UNL1        0.1494
      3 S          -9.5105  -18.8171   20.5577 S.O2    1  UNL1        0.0608
      4 O          -8.4819  -17.7742   20.8808 O.2     1  UNL1       -0.1530
      5 O         -10.5391  -19.8599   20.2346 O.2     1  UNL1       -0.1530
      6 C         -10.9198  -17.8219   22.5003 C.ar    1  UNL1        0.0719
      7 C         -12.0031  -16.9022   22.9806 C.ar    1  UNL1        0.0059
      8 C         -12.7604  -16.0582   21.9988 C.ar    1  UNL1        0.0002
      9 C         -12.4344  -16.1337   20.5366 C.ar    1  UNL1        0.0014
     10 C         -11.3512  -17.0533   20.0563 C.ar    1  UNL1        0.0200
     11 C         -10.5938  -17.8974   21.0381 C.ar    1  UNL1        0.1263
     12 C          -9.5555  -21.0023   24.4428 C.3     1  UNL1        0.1109
     13 N         -10.3128  -20.1582   23.4610 N.am    1  UNL1       -0.2991
     14 C         -10.1625  -18.6660   23.4821 C.2     1  UNL1        0.2472
     15 O          -9.2548  -18.0178   24.4851 O.2     1  UNL1       -0.2701
     16 H         -10.9086  -20.5837   22.8027 H       1  UNL1        0.1498
     17 C          -7.4195  -20.2794   21.0467 C.3     1  UNL1        0.1763
     18 C          -5.9538  -20.0893   20.7899 C.2     1  UNL1        0.2439
     19 O          -5.1359  -21.2203   20.2405 O.2     1  UNL1       -0.2732
     20 N          -5.3062  -18.7684   21.0825 N.am    1  UNL1       -0.2827
     21 H          -5.8431  -18.0261   21.4431 H       1  UNL1        0.1549
     22 C          -3.8407  -18.5783   20.8258 C.ar    1  UNL1        0.0505
     23 C          -2.8768  -18.5396   21.9744 C.ar    1  UNL1        0.0178
     24 C          -1.4113  -18.3496   21.7177 C.ar    1  UNL1        0.0379
     25 C          -0.9095  -18.1982   20.3121 C.ar    1  UNL1        0.1338
     26 O           0.5560  -18.0082   20.0554 O.3     1  UNL1       -0.5055
     27 C          -1.8734  -18.2369   19.1635 C.ar    1  UNL1        0.0379
     28 C          -3.3390  -18.4270   19.4203 C.ar    1  UNL1        0.0178
     29 H           1.1581  -17.9840   20.7729 H       1  UNL1        0.2922
@<TRIPOS>BOND
     1    12    13    1
     2    13    14   am
     3    14    15    2
     4    14     6    1
     5     6     7   ar
     6     7     8   ar
     7     8     9   ar
     8     9    10   ar
     9    10    11   ar
    10    11     3    1
    11     3     4    2
    12     3     5    2
    13     3     1    1
    14     1    17    1
    15    17    18    1
    16    18    19    2
    17    18    20   am
    18    20    22    1
    19    22    23   ar
    20    23    24   ar
    21    24    25   ar
    22    25    26    1
    23    25    27   ar
    24    27    28   ar
    25    11     6   ar
    26    28    22   ar
    27    13    16    1
    28     1     2    1
    29    20    21    1
    30    26    29    1
