@<TRIPOS>MOLECULE
*****
 31 34 0 0 0
SMALL
GASTEIGER

@<TRIPOS>ATOM
      1 N          -9.3949  -19.3183   21.0416 N.3     1  UNL1       -0.2724
      2 C          -8.8031  -19.3217   19.6633 C.3     1  UNL1        0.0721
      3 C          -7.3823  -19.7570   19.4582 C.3     1  UNL1        0.0177
      4 C          -6.5534  -20.1889   20.6314 C.3     1  UNL1        0.0071
      5 C          -7.1453  -20.1855   22.0097 C.3     1  UNL1        0.0177
      6 C          -8.5659  -19.7502   22.2149 C.3     1  UNL1        0.0721
      7 C         -10.8156  -18.8830   21.2468 C.3     1  UNL1        0.0768
      8 C         -11.1204  -17.7094   22.1298 C.3     1  UNL1        0.0437
      9 O          -6.9253  -14.6076   23.5549 O.2     1  UNL1       -0.2886
     10 C          -7.3072  -15.3805   24.7824 C.2     1  UNL1        0.2063
     11 C          -8.4514  -16.3492   24.7330 C.ar    1  UNL1        0.0709
     12 C          -9.2138  -16.5450   23.4561 C.ar    1  UNL1        0.0017
     13 C         -10.3580  -17.5136   23.4068 C.ar    1  UNL1       -0.0205
     14 C         -10.7398  -18.2865   24.6343 C.ar    1  UNL1       -0.0011
     15 C          -9.9775  -18.0908   25.9112 C.ar    1  UNL1        0.0367
     16 C          -8.8333  -17.1221   25.9605 C.ar    1  UNL1        0.1414
     17 O          -8.0708  -16.9263   27.2374 O.3     1  UNL1       -0.4723
     18 C          -6.9267  -15.9577   27.2868 C.3     1  UNL1        0.2424
     19 C          -6.5448  -15.1848   26.0593 C.3     1  UNL1        0.2162
     20 O          -5.4006  -14.2161   26.1087 O.3     1  UNL1       -0.3741
     21 H          -5.0200  -14.2104   27.0009 H       1  UNL1        0.2110
     22 C          -5.1327  -20.6241   20.4263 C.3     1  UNL1        0.0265
     23 C          -4.0246  -19.6143   20.4738 C.ar    1  UNL1       -0.0192
     24 C          -3.6813  -18.9378   21.7678 C.ar    1  UNL1       -0.0036
     25 C          -2.5732  -17.9280   21.8153 C.ar    1  UNL1        0.0094
     26 C          -1.8084  -17.5946   20.5688 C.ar    1  UNL1        0.0682
     27 BR         -0.7002  -16.5847   20.6162 Br      1  UNL1       -0.0459
     28 C          -2.1516  -18.2711   19.2747 C.ar    1  UNL1        0.1395
     29 O          -1.3868  -17.9377   18.0281 O.3     1  UNL1       -0.5050
     30 C          -3.2598  -19.2809   19.2272 C.ar    1  UNL1        0.0329
     31 H          -0.6946  -17.3069   18.0578 H       1  UNL1        0.2922
@<TRIPOS>BOND
     1     9    10    2
     2    10    11    1
     3    11    12   ar
     4    12    13   ar
     5    13     8    1
     6     8     7    1
     7     7     1    1
     8     1     2    1
     9     2     3    1
    10     3     4    1
    11     4    22    1
    12    22    23    1
    13    23    24   ar
    14    24    25   ar
    15    25    26   ar
    16    26    27    1
    17    26    28   ar
    18    28    29    1
    19    28    30   ar
    20     4     5    1
    21     5     6    1
    22    13    14   ar
    23    14    15   ar
    24    15    16   ar
    25    16    17    1
    26    17    18    1
    27    18    19    1
    28    19    20    1
    29    19    10    1
    30    16    11   ar
    31     6     1    1
    32    30    23   ar
    33    29    31    1
    34    20    21    1
@<TRIPOS>MOLECULE
*****
 31 34 0 0 0
SMALL
GASTEIGER

@<TRIPOS>ATOM
      1 N         -11.7090   -7.4484   17.8376 N.3     1  UNL1       -0.2724
      2 C         -12.7372   -7.1569   18.8902 C.3     1  UNL1        0.0721
      3 C         -14.1835   -7.0334   18.5121 C.3     1  UNL1        0.0177
      4 C         -14.6017   -7.2012   17.0814 C.3     1  UNL1        0.0071
      5 C         -13.5735   -7.4926   16.0288 C.3     1  UNL1        0.0177
      6 C         -12.1273   -7.6162   16.4068 C.3     1  UNL1        0.0721
      7 C         -10.2628   -7.5719   18.2157 C.3     1  UNL1        0.0768
      8 C          -9.5055   -6.3665   18.6884 C.3     1  UNL1        0.0437
      9 O         -12.7438   -2.1838   19.8146 O.2     1  UNL1       -0.2886
     10 C         -11.9805   -1.7989   18.5820 C.2     1  UNL1        0.2063
     11 C         -10.9801   -2.7484   17.9923 C.ar    1  UNL1        0.0709
     12 C         -10.7430   -4.0827   18.6352 C.ar    1  UNL1        0.0017
     13 C          -9.7426   -5.0321   18.0455 C.ar    1  UNL1       -0.0205
     14 C          -8.9794   -4.6473   16.8129 C.ar    1  UNL1       -0.0011
     15 C          -9.2165   -3.3129   16.1700 C.ar    1  UNL1        0.0367
     16 C         -10.2169   -2.3635   16.7597 C.ar    1  UNL1        0.1414
     17 O         -10.4540   -1.0291   16.1168 O.3     1  UNL1       -0.4723
     18 C         -11.4544   -0.0797   16.7065 C.3     1  UNL1        0.2424
     19 C         -12.2177   -0.4646   17.9391 C.3     1  UNL1        0.2162
     20 O         -13.2181    0.4849   18.5288 O.3     1  UNL1       -0.3741
     21 H         -13.2485    1.2947   17.9958 H       1  UNL1        0.2110
     22 C         -16.0479   -7.0776   16.7034 C.3     1  UNL1        0.0265
     23 C         -17.1111   -7.5973   17.6251 C.ar    1  UNL1       -0.0192
     24 C         -17.7387   -6.6844   18.6364 C.ar    1  UNL1       -0.0036
     25 C         -18.8019   -7.2041   19.5581 C.ar    1  UNL1        0.0094
     26 C         -19.2375   -8.6366   19.4685 C.ar    1  UNL1        0.0682
     27 BR        -20.3008   -9.1563   20.3902 Br      1  UNL1       -0.0459
     28 C         -18.6100   -9.5495   18.4571 C.ar    1  UNL1        0.1395
     29 O         -19.0456  -10.9821   18.3674 O.3     1  UNL1       -0.5050
     30 C         -17.5468   -9.0299   17.5354 C.ar    1  UNL1        0.0329
     31 H         -19.7098  -11.3067   18.9432 H       1  UNL1        0.2922
@<TRIPOS>BOND
     1     9    10    2
     2    10    11    1
     3    11    12   ar
     4    12    13   ar
     5    13     8    1
     6     8     7    1
     7     7     1    1
     8     1     2    1
     9     2     3    1
    10     3     4    1
    11     4    22    1
    12    22    23    1
    13    23    24   ar
    14    24    25   ar
    15    25    26   ar
    16    26    27    1
    17    26    28   ar
    18    28    29    1
    19    28    30   ar
    20     4     5    1
    21     5     6    1
    22    13    14   ar
    23    14    15   ar
    24    15    16   ar
    25    16    17    1
    26    17    18    1
    27    18    19    1
    28    19    20    1
    29    19    10    1
    30    16    11   ar
    31     6     1    1
    32    30    23   ar
    33    29    31    1
    34    20    21    1
@<TRIPOS>MOLECULE
*****
 31 34 0 0 0
SMALL
GASTEIGER

@<TRIPOS>ATOM
      1 N          -6.1017  -15.7562   25.2663 N.3     1  UNL1       -0.2724
      2 C          -5.0872  -16.4390   26.1350 C.3     1  UNL1        0.0721
      3 C          -4.0414  -17.3191   25.5170 C.3     1  UNL1        0.0177
      4 C          -4.0101  -17.5163   24.0304 C.3     1  UNL1        0.0071
      5 C          -5.0246  -16.8336   23.1617 C.3     1  UNL1        0.0177
      6 C          -6.0704  -15.9535   23.7797 C.3     1  UNL1        0.0721
      7 C          -7.1474  -14.8762   25.8843 C.3     1  UNL1        0.0768
      8 C          -8.4928  -15.4409   26.2322 C.3     1  UNL1        0.0437
      9 O         -10.1806  -15.6458   21.0980 O.2     1  UNL1       -0.2886
     10 C         -10.4259  -17.0100   21.6713 C.2     1  UNL1        0.2063
     11 C         -10.0653  -17.2998   23.0982 C.ar    1  UNL1        0.0709
     12 C          -9.4594  -16.2255   23.9517 C.ar    1  UNL1        0.0017
     13 C          -9.0988  -16.5153   25.3786 C.ar    1  UNL1       -0.0205
     14 C          -9.3441  -17.8795   25.9519 C.ar    1  UNL1       -0.0011
     15 C          -9.9501  -18.9539   25.0984 C.ar    1  UNL1        0.0367
     16 C         -10.3107  -18.6640   23.6715 C.ar    1  UNL1        0.1414
     17 O         -10.9166  -19.7384   22.8179 O.3     1  UNL1       -0.4723
     18 C         -11.2772  -19.4486   21.3911 C.3     1  UNL1        0.2424
     19 C         -11.0319  -18.0843   20.8178 C.3     1  UNL1        0.2162
     20 O         -11.3925  -17.7945   19.3908 O.3     1  UNL1       -0.3741
     21 H         -11.7699  -18.5904   18.9847 H       1  UNL1        0.2110
     22 C          -2.9643  -18.3963   23.4125 C.3     1  UNL1        0.0265
     23 C          -2.6262  -18.2518   21.9582 C.ar    1  UNL1       -0.0192
     24 C          -3.5438  -18.8173   20.9151 C.ar    1  UNL1       -0.0036
     25 C          -3.2057  -18.6728   19.4609 C.ar    1  UNL1        0.0094
     26 C          -1.9501  -17.9628   19.0498 C.ar    1  UNL1        0.0682
     27 BR         -1.6120  -17.8182   17.5955 Br      1  UNL1       -0.0459
     28 C          -1.0324  -17.3972   20.0929 C.ar    1  UNL1        0.1395
     29 O           0.2233  -16.6871   19.6818 O.3     1  UNL1       -0.5050
     30 C          -1.3705  -17.5417   21.5472 C.ar    1  UNL1        0.0329
     31 H           0.4345  -16.5969   18.7734 H       1  UNL1        0.2922
@<TRIPOS>BOND
     1     9    10    2
     2    10    11    1
     3    11    12   ar
     4    12    13   ar
     5    13     8    1
     6     8     7    1
     7     7     1    1
     8     1     2    1
     9     2     3    1
    10     3     4    1
    11     4    22    1
    12    22    23    1
    13    23    24   ar
    14    24    25   ar
    15    25    26   ar
    16    26    27    1
    17    26    28   ar
    18    28    29    1
    19    28    30   ar
    20     4     5    1
    21     5     6    1
    22    13    14   ar
    23    14    15   ar
    24    15    16   ar
    25    16    17    1
    26    17    18    1
    27    18    19    1
    28    19    20    1
    29    19    10    1
    30    16    11   ar
    31     6     1    1
    32    30    23   ar
    33    29    31    1
    34    20    21    1
@<TRIPOS>MOLECULE
*****
 31 34 0 0 0
SMALL
GASTEIGER

@<TRIPOS>ATOM
      1 N         -11.0263   -5.8117   17.5683 N.3     1  UNL1       -0.2724
      2 C         -11.7459   -5.9814   16.2632 C.3     1  UNL1        0.0721
      3 C         -12.8928   -6.9425   16.1585 C.3     1  UNL1        0.0177
      4 C         -13.3201   -7.7339   17.3590 C.3     1  UNL1        0.0071
      5 C         -12.6005   -7.5642   18.6641 C.3     1  UNL1        0.0177
      6 C         -11.4537   -6.6031   18.7688 C.3     1  UNL1        0.0721
      7 C          -9.8795   -4.8506   17.6730 C.3     1  UNL1        0.0768
      8 C          -9.9516   -3.6982   18.6305 C.3     1  UNL1        0.0437
      9 O         -15.0630   -4.2636   20.3052 O.2     1  UNL1       -0.2886
     10 C         -14.9589   -2.8748   19.7482 C.2     1  UNL1        0.2063
     11 C         -13.6550   -2.3862   19.1903 C.ar    1  UNL1        0.0709
     12 C         -12.4553   -3.2865   19.1893 C.ar    1  UNL1        0.0017
     13 C         -11.1515   -2.7979   18.6314 C.ar    1  UNL1       -0.0205
     14 C         -11.0474   -1.4091   18.0744 C.ar    1  UNL1       -0.0011
     15 C         -12.2471   -0.5088   18.0754 C.ar    1  UNL1        0.0367
     16 C         -13.5510   -0.9973   18.6333 C.ar    1  UNL1        0.1414
     17 O         -14.7508   -0.0970   18.6342 O.3     1  UNL1       -0.4723
     18 C         -16.0546   -0.5856   19.1921 C.3     1  UNL1        0.2424
     19 C         -16.1587   -1.9745   19.7491 C.3     1  UNL1        0.2162
     20 O         -17.4626   -2.4630   20.3070 O.3     1  UNL1       -0.3741
     21 H         -18.1293   -1.7625   20.2315 H       1  UNL1        0.2110
     22 C         -14.4670   -8.6949   17.2543 C.3     1  UNL1        0.0265
     23 C         -15.7184   -8.4584   18.0467 C.ar    1  UNL1       -0.0192
     24 C         -16.5659   -9.6197   18.4746 C.ar    1  UNL1       -0.0036
     25 C         -17.8174   -9.3832   19.2670 C.ar    1  UNL1        0.0094
     26 C         -18.2213   -7.9855   19.6315 C.ar    1  UNL1        0.0682
     27 BR        -19.4728   -7.7490   20.4240 Br      1  UNL1       -0.0459
     28 C         -17.3738   -6.8241   19.2037 C.ar    1  UNL1        0.1395
     29 O         -17.7778   -5.4263   19.5682 O.3     1  UNL1       -0.5050
     30 C         -16.1224   -7.0606   18.4113 C.ar    1  UNL1        0.0329
     31 H         -18.5595   -5.2786   20.0632 H       1  UNL1        0.2922
@<TRIPOS>BOND
     1     9    10    2
     2    10    11    1
     3    11    12   ar
     4    12    13   ar
     5    13     8    1
     6     8     7    1
     7     7     1    1
     8     1     2    1
     9     2     3    1
    10     3     4    1
    11     4    22    1
    12    22    23    1
    13    23    24   ar
    14    24    25   ar
    15    25    26   ar
    16    26    27    1
    17    26    28   ar
    18    28    29    1
    19    28    30   ar
    20     4     5    1
    21     5     6    1
    22    13    14   ar
    23    14    15   ar
    24    15    16   ar
    25    16    17    1
    26    17    18    1
    27    18    19    1
    28    19    20    1
    29    19    10    1
    30    16    11   ar
    31     6     1    1
    32    30    23   ar
    33    29    31    1
    34    20    21    1
@<TRIPOS>MOLECULE
*****
 31 34 0 0 0
SMALL
GASTEIGER

@<TRIPOS>ATOM
      1 N          -4.5153  -19.3540   21.2812 N.3     1  UNL1       -0.2724
      2 C          -5.4978  -20.0675   22.1619 C.3     1  UNL1        0.0721
      3 C          -6.9107  -20.2688   21.7000 C.3     1  UNL1        0.0177
      4 C          -7.3410  -19.7567   20.3575 C.3     1  UNL1        0.0071
      5 C          -6.3585  -19.0432   19.4768 C.3     1  UNL1        0.0177
      6 C          -4.9457  -18.8419   19.9386 C.3     1  UNL1        0.0721
      7 C          -3.1025  -19.1527   21.7430 C.3     1  UNL1        0.0768
      8 C          -2.7734  -18.0315   22.6836 C.3     1  UNL1        0.0437
      9 O          -7.9573  -16.7418   21.8386 O.2     1  UNL1       -0.2886
     10 C          -7.6630  -16.3708   23.2618 C.2     1  UNL1        0.2063
     11 C          -6.2934  -16.6005   23.8289 C.ar    1  UNL1        0.0709
     12 C          -5.2182  -17.2012   22.9727 C.ar    1  UNL1        0.0017
     13 C          -3.8487  -17.4308   23.5398 C.ar    1  UNL1       -0.0205
     14 C          -3.5544  -17.0598   24.9631 C.ar    1  UNL1       -0.0011
     15 C          -4.6296  -16.4591   25.8193 C.ar    1  UNL1        0.0367
     16 C          -5.9991  -16.2295   25.2522 C.ar    1  UNL1        0.1414
     17 O          -7.0744  -15.6288   26.1084 O.3     1  UNL1       -0.4723
     18 C          -8.4439  -15.3991   25.5413 C.3     1  UNL1        0.2424
     19 C          -8.7382  -15.7701   24.1180 C.3     1  UNL1        0.2162
     20 O         -10.1078  -15.5404   23.5510 O.3     1  UNL1       -0.3741
     21 H         -10.6779  -15.1489   24.2311 H       1  UNL1        0.2110
     22 C          -8.7539  -19.9580   19.8956 C.3     1  UNL1        0.0265
     23 C          -9.8903  -19.3756   20.6825 C.ar    1  UNL1       -0.0192
     24 C         -10.1974  -19.8974   22.0549 C.ar    1  UNL1       -0.0036
     25 C         -11.3339  -19.3150   22.8418 C.ar    1  UNL1        0.0094
     26 C         -12.1633  -18.2109   22.2564 C.ar    1  UNL1        0.0682
     27 BR        -13.2998  -17.6285   23.0433 Br      1  UNL1       -0.0459
     28 C         -11.8563  -17.6890   20.8839 C.ar    1  UNL1        0.1395
     29 O         -12.6857  -16.5848   20.2985 O.3     1  UNL1       -0.5050
     30 C         -10.7198  -18.2714   20.0970 C.ar    1  UNL1        0.0329
     31 H         -13.3956  -16.2210   20.7901 H       1  UNL1        0.2922
@<TRIPOS>BOND
     1     9    10    2
     2    10    11    1
     3    11    12   ar
     4    12    13   ar
     5    13     8    1
     6     8     7    1
     7     7     1    1
     8     1     2    1
     9     2     3    1
    10     3     4    1
    11     4    22    1
    12    22    23    1
    13    23    24   ar
    14    24    25   ar
    15    25    26   ar
    16    26    27    1
    17    26    28   ar
    18    28    29    1
    19    28    30   ar
    20     4     5    1
    21     5     6    1
    22    13    14   ar
    23    14    15   ar
    24    15    16   ar
    25    16    17    1
    26    17    18    1
    27    18    19    1
    28    19    20    1
    29    19    10    1
    30    16    11   ar
    31     6     1    1
    32    30    23   ar
    33    29    31    1
    34    20    21    1
@<TRIPOS>MOLECULE
*****
 31 34 0 0 0
SMALL
GASTEIGER

@<TRIPOS>ATOM
      1 N           0.2170    2.0546   22.5906 N.3     1  UNL1       -0.2724
      2 C          -0.7747    3.0937   23.0227 C.3     1  UNL1        0.0721
      3 C          -1.2101    3.1647   24.4564 C.3     1  UNL1        0.0177
      4 C          -0.6538    2.1965   25.4580 C.3     1  UNL1        0.0071
      5 C           0.3379    1.1574   25.0259 C.3     1  UNL1        0.0177
      6 C           0.7733    1.0864   23.5923 C.3     1  UNL1        0.0721
      7 C           0.6524    1.9836   21.1570 C.3     1  UNL1        0.0768
      8 C           0.4415    0.7238   20.3706 C.3     1  UNL1        0.0437
      9 O           3.9636   -3.1382   21.7599 O.2     1  UNL1       -0.2886
     10 C           4.3327   -2.7199   20.3676 C.2     1  UNL1        0.2063
     11 C           3.5444   -1.6497   19.6721 C.ar    1  UNL1        0.0709
     12 C           2.3871   -0.9980   20.3691 C.ar    1  UNL1        0.0017
     13 C           1.5989    0.0720   19.6736 C.ar    1  UNL1       -0.0205
     14 C           1.9680    0.4904   18.2813 C.ar    1  UNL1       -0.0011
     15 C           3.1254   -0.1613   17.5843 C.ar    1  UNL1        0.0367
     16 C           3.9136   -1.2314   18.2798 C.ar    1  UNL1        0.1414
     17 O           5.0710   -1.8832   17.5828 O.3     1  UNL1       -0.4723
     18 C           5.8592   -2.9532   18.2782 C.3     1  UNL1        0.2424
     19 C           5.4901   -3.3716   19.6706 C.3     1  UNL1        0.2162
     20 O           6.2783   -4.4417   20.3660 O.3     1  UNL1       -0.3741
     21 H           6.9856   -4.7545   19.7805 H       1  UNL1        0.2110
     22 C          -1.0892    2.2675   26.8916 C.3     1  UNL1        0.0265
     23 C          -0.0780    2.1265   27.9904 C.ar    1  UNL1       -0.0192
     24 C           0.6485    3.3355   28.5008 C.ar    1  UNL1       -0.0036
     25 C           1.6597    3.1945   29.5996 C.ar    1  UNL1        0.0094
     26 C           1.9445    1.8445   30.1881 C.ar    1  UNL1        0.0682
     27 BR          2.9558    1.7035   31.2870 Br      1  UNL1       -0.0459
     28 C           1.2180    0.6354   29.6778 C.ar    1  UNL1        0.1395
     29 O           1.5028   -0.7146   30.2663 O.3     1  UNL1       -0.5050
     30 C           0.2068    0.7764   28.5789 C.ar    1  UNL1        0.0329
     31 H           2.1345   -0.8026   30.9527 H       1  UNL1        0.2922
@<TRIPOS>BOND
     1     9    10    2
     2    10    11    1
     3    11    12   ar
     4    12    13   ar
     5    13     8    1
     6     8     7    1
     7     7     1    1
     8     1     2    1
     9     2     3    1
    10     3     4    1
    11     4    22    1
    12    22    23    1
    13    23    24   ar
    14    24    25   ar
    15    25    26   ar
    16    26    27    1
    17    26    28   ar
    18    28    29    1
    19    28    30   ar
    20     4     5    1
    21     5     6    1
    22    13    14   ar
    23    14    15   ar
    24    15    16   ar
    25    16    17    1
    26    17    18    1
    27    18    19    1
    28    19    20    1
    29    19    10    1
    30    16    11   ar
    31     6     1    1
    32    30    23   ar
    33    29    31    1
    34    20    21    1
@<TRIPOS>MOLECULE
*****
 31 34 0 0 0
SMALL
GASTEIGER

@<TRIPOS>ATOM
      1 N           6.7764   -3.8139   22.6038 N.3     1  UNL1       -0.2724
      2 C           5.3550   -3.5174   22.9803 C.3     1  UNL1        0.0721
      3 C           4.3327   -3.2673   21.9114 C.3     1  UNL1        0.0177
      4 C           4.7317   -3.3139   20.4663 C.3     1  UNL1        0.0071
      5 C           6.1531   -3.6105   20.0898 C.3     1  UNL1        0.0177
      6 C           7.1754   -3.8605   21.1586 C.3     1  UNL1        0.0721
      7 C           7.7988   -4.0640   23.6726 C.3     1  UNL1        0.0768
      8 C           7.5979   -5.1780   24.6567 C.3     1  UNL1        0.0437
      9 O           9.0245   -7.5174   29.3196 O.2     1  UNL1       -0.2886
     10 C           8.1993   -6.3207   29.6899 C.2     1  UNL1        0.2063
     11 C           7.6364   -5.4367   28.6167 C.ar    1  UNL1        0.0709
     12 C           7.8986   -5.7494   27.1733 C.ar    1  UNL1        0.0017
     13 C           7.3357   -4.8654   26.1002 C.ar    1  UNL1       -0.0205
     14 C           6.5105   -3.6687   26.4705 C.ar    1  UNL1       -0.0011
     15 C           6.2482   -3.3561   27.9139 C.ar    1  UNL1        0.0367
     16 C           6.8112   -4.2401   28.9870 C.ar    1  UNL1        0.1414
     17 O           6.5489   -3.9274   30.4305 O.3     1  UNL1       -0.4723
     18 C           7.1119   -4.8114   31.5036 C.3     1  UNL1        0.2424
     19 C           7.9371   -6.0081   31.1333 C.3     1  UNL1        0.2162
     20 O           8.5000   -6.8921   32.2065 O.3     1  UNL1       -0.3741
     21 H           8.2386   -6.5513   33.0762 H       1  UNL1        0.2110
     22 C           3.7093   -3.0639   19.3975 C.3     1  UNL1        0.0265
     23 C           3.0893   -1.7054   19.2558 C.ar    1  UNL1       -0.0192
     24 C           3.7844   -0.6435   18.4563 C.ar    1  UNL1       -0.0036
     25 C           3.1644    0.7150   18.3145 C.ar    1  UNL1        0.0094
     26 C           1.8494    1.0116   18.9722 C.ar    1  UNL1        0.0682
     27 BR          1.2294    2.3701   18.8304 Br      1  UNL1       -0.0459
     28 C           1.1542   -0.0503   19.7717 C.ar    1  UNL1        0.1395
     29 O          -0.1608    0.2463   20.4294 O.3     1  UNL1       -0.5050
     30 C           1.7742   -1.4088   19.9135 C.ar    1  UNL1        0.0329
     31 H          -0.5481    1.0949   20.3408 H       1  UNL1        0.2922
@<TRIPOS>BOND
     1     9    10    2
     2    10    11    1
     3    11    12   ar
     4    12    13   ar
     5    13     8    1
     6     8     7    1
     7     7     1    1
     8     1     2    1
     9     2     3    1
    10     3     4    1
    11     4    22    1
    12    22    23    1
    13    23    24   ar
    14    24    25   ar
    15    25    26   ar
    16    26    27    1
    17    26    28   ar
    18    28    29    1
    19    28    30   ar
    20     4     5    1
    21     5     6    1
    22    13    14   ar
    23    14    15   ar
    24    15    16   ar
    25    16    17    1
    26    17    18    1
    27    18    19    1
    28    19    20    1
    29    19    10    1
    30    16    11   ar
    31     6     1    1
    32    30    23   ar
    33    29    31    1
    34    20    21    1
@<TRIPOS>MOLECULE
*****
 31 34 0 0 0
SMALL
GASTEIGER

@<TRIPOS>ATOM
      1 N          -1.0375    3.6735   19.3266 N.3     1  UNL1       -0.2724
      2 C          -1.4711    4.8430   18.4934 C.3     1  UNL1        0.0721
      3 C          -2.8573    5.3966   18.6417 C.3     1  UNL1        0.0177
      4 C          -3.8099    4.7807   19.6232 C.3     1  UNL1        0.0071
      5 C          -3.3763    3.6112   20.4563 C.3     1  UNL1        0.0177
      6 C          -1.9901    3.0575   20.3080 C.3     1  UNL1        0.0721
      7 C           0.3487    3.1199   19.1783 C.3     1  UNL1        0.0768
      8 C           0.5979    1.9564   18.2649 C.3     1  UNL1        0.0437
      9 O           5.2810   -0.1333   16.5467 O.2     1  UNL1       -0.2886
     10 C           4.8658   -0.9586   17.7284 C.2     1  UNL1        0.2063
     11 C           3.5913   -0.6425   18.4535 C.ar    1  UNL1        0.0709
     12 C           2.7319    0.4989   17.9967 C.ar    1  UNL1        0.0017
     13 C           1.4574    0.8150   18.7217 C.ar    1  UNL1       -0.0205
     14 C           1.0422   -0.0103   19.9035 C.ar    1  UNL1       -0.0011
     15 C           1.9016   -1.1517   20.3602 C.ar    1  UNL1        0.0367
     16 C           3.1761   -1.4678   19.6352 C.ar    1  UNL1        0.1414
     17 O           4.0356   -2.6092   20.0920 O.3     1  UNL1       -0.4723
     18 C           5.3101   -2.9253   19.3670 C.3     1  UNL1        0.2424
     19 C           5.7252   -2.1000   18.1852 C.3     1  UNL1        0.2162
     20 O           6.9998   -2.4161   17.4602 O.3     1  UNL1       -0.3741
     21 H           7.4309   -3.1765   17.8807 H       1  UNL1        0.2110
     22 C          -5.1960    5.3343   19.7715 C.3     1  UNL1        0.0265
     23 C          -5.7954    5.5000   21.1365 C.ar    1  UNL1       -0.0192
     24 C          -5.3300    6.6112   22.0301 C.ar    1  UNL1       -0.0036
     25 C          -5.9294    6.7769   23.3951 C.ar    1  UNL1        0.0094
     26 C          -6.9942    5.8315   23.8665 C.ar    1  UNL1        0.0682
     27 BR         -7.5936    5.9972   25.2315 Br      1  UNL1       -0.0459
     28 C          -7.4597    4.7202   22.9729 C.ar    1  UNL1        0.1395
     29 O          -8.5245    3.7748   23.4443 O.3     1  UNL1       -0.5050
     30 C          -6.8603    4.5545   21.6078 C.ar    1  UNL1        0.0329
     31 H          -8.8989    3.8783   24.2969 H       1  UNL1        0.2922
@<TRIPOS>BOND
     1     9    10    2
     2    10    11    1
     3    11    12   ar
     4    12    13   ar
     5    13     8    1
     6     8     7    1
     7     7     1    1
     8     1     2    1
     9     2     3    1
    10     3     4    1
    11     4    22    1
    12    22    23    1
    13    23    24   ar
    14    24    25   ar
    15    25    26   ar
    16    26    27    1
    17    26    28   ar
    18    28    29    1
    19    28    30   ar
    20     4     5    1
    21     5     6    1
    22    13    14   ar
    23    14    15   ar
    24    15    16   ar
    25    16    17    1
    26    17    18    1
    27    18    19    1
    28    19    20    1
    29    19    10    1
    30    16    11   ar
    31     6     1    1
    32    30    23   ar
    33    29    31    1
    34    20    21    1
@<TRIPOS>MOLECULE
*****
 31 34 0 0 0
SMALL
GASTEIGER

@<TRIPOS>ATOM
      1 N           0.2531    2.1316   23.3321 N.3     1  UNL1       -0.2724
      2 C           0.3071    1.4406   24.6624 C.3     1  UNL1        0.0721
      3 C          -0.6453    1.8356   25.7519 C.3     1  UNL1        0.0177
      4 C          -1.6516    2.9215   25.5111 C.3     1  UNL1        0.0071
      5 C          -1.7056    3.6125   24.1809 C.3     1  UNL1        0.0177
      6 C          -0.7533    3.2176   23.0914 C.3     1  UNL1        0.0721
      7 C           1.2054    1.7366   22.2426 C.3     1  UNL1        0.0768
      8 C           0.7386    0.8570   21.1208 C.3     1  UNL1        0.0437
      9 O           4.2300   -3.1871   21.9604 O.2     1  UNL1       -0.2886
     10 C           4.4008   -2.7810   20.5266 C.2     1  UNL1        0.2063
     11 C           3.5706   -1.6684   19.9582 C.ar    1  UNL1        0.0709
     12 C           2.5697   -0.9620   20.8237 C.ar    1  UNL1        0.0017
     13 C           1.7396    0.1506   20.2554 C.ar    1  UNL1       -0.0205
     14 C           1.9104    0.5567   18.8215 C.ar    1  UNL1       -0.0011
     15 C           2.9113   -0.1497   17.9560 C.ar    1  UNL1        0.0367
     16 C           3.7414   -1.2622   18.5244 C.ar    1  UNL1        0.1414
     17 O           4.7424   -1.9687   17.6589 O.3     1  UNL1       -0.4723
     18 C           5.5726   -3.0813   18.2273 C.3     1  UNL1        0.2424
     19 C           5.4018   -3.4874   19.6611 C.3     1  UNL1        0.2162
     20 O           6.2320   -4.6000   20.2294 O.3     1  UNL1       -0.3741
     21 H           6.8233   -4.9455   19.5426 H       1  UNL1        0.2110
     22 C          -2.6040    3.3165   26.6006 C.3     1  UNL1        0.0265
     23 C          -3.8630    4.0588   26.2635 C.ar    1  UNL1       -0.0192
     24 C          -4.2293    5.2985   27.0244 C.ar    1  UNL1       -0.0036
     25 C          -5.4884    6.0409   26.6873 C.ar    1  UNL1        0.0094
     26 C          -6.3812    5.5435   25.5894 C.ar    1  UNL1        0.0682
     27 BR         -7.6403    6.2858   25.2523 Br      1  UNL1       -0.0459
     28 C          -6.0150    4.3037   24.8285 C.ar    1  UNL1        0.1395
     29 O          -6.9078    3.8064   23.7305 O.3     1  UNL1       -0.5050
     30 C          -4.7559    3.5614   25.1655 C.ar    1  UNL1        0.0329
     31 H          -7.6943    4.2701   23.5200 H       1  UNL1        0.2922
@<TRIPOS>BOND
     1     9    10    2
     2    10    11    1
     3    11    12   ar
     4    12    13   ar
     5    13     8    1
     6     8     7    1
     7     7     1    1
     8     1     2    1
     9     2     3    1
    10     3     4    1
    11     4    22    1
    12    22    23    1
    13    23    24   ar
    14    24    25   ar
    15    25    26   ar
    16    26    27    1
    17    26    28   ar
    18    28    29    1
    19    28    30   ar
    20     4     5    1
    21     5     6    1
    22    13    14   ar
    23    14    15   ar
    24    15    16   ar
    25    16    17    1
    26    17    18    1
    27    18    19    1
    28    19    20    1
    29    19    10    1
    30    16    11   ar
    31     6     1    1
    32    30    23   ar
    33    29    31    1
    34    20    21    1
