@<TRIPOS>MOLECULE
*****
 16 18 0 0 0
SMALL
GASTEIGER

@<TRIPOS>ATOM
      1 O          -9.0122  -18.0863   20.6226 O.3     1  UNL1       -0.4724
      2 F         -14.0350  -17.7441   23.8867 F       1  UNL1       -0.1832
      3 C         -12.7793  -17.8296   23.0707 C.ar    1  UNL1        0.2225
      4 C         -12.8362  -17.6368   21.5842 C.ar    1  UNL1        0.0528
      5 C         -11.5805  -17.7224   20.7682 C.ar    1  UNL1        0.0424
      6 C         -10.2679  -18.0007   21.4386 C.ar    1  UNL1        0.1579
      7 C         -10.2109  -18.1935   22.9250 C.ar    1  UNL1        0.1380
      8 N         -11.4666  -18.1080   23.7411 N.ar    1  UNL1       -0.2133
      9 C          -8.3854  -19.4212   20.3484 C.3     1  UNL1        0.2210
     10 C          -6.8958  -19.5372   20.2157 C.3     1  UNL1        0.0983
     11 C          -6.0850  -20.7796   20.4372 C.3     1  UNL1        0.0209
     12 C          -4.6435  -20.4416   20.1966 C.3     1  UNL1        0.0172
     13 C          -3.3135  -19.8164   19.8965 C.3     1  UNL1        0.0171
     14 C          -4.5634  -18.9901   19.8264 C.3     1  UNL1        0.0541
     15 N          -5.9554  -18.4312   19.8382 N.3     1  UNL1       -0.2966
     16 H          -6.1934  -18.0753   18.9124 H       1  UNL1        0.1233
@<TRIPOS>BOND
     1     2     3    1
     2     3     4   ar
     3     4     5   ar
     4     5     6   ar
     5     6     1    1
     6     1     9    1
     7    10     9    1
     8    10    11    1
     9    12    11    1
    10    12    13    1
    11    14    13    1
    12    14    15    1
    13     6     7   ar
    14     7     8   ar
    15     8     3   ar
    16    15    10    1
    17    14    12    1
    18    15    16    1
@<TRIPOS>MOLECULE
*****
 16 18 0 0 0
SMALL
GASTEIGER

@<TRIPOS>ATOM
      1 O           6.1679  -12.7647   27.2946 O.3     1  UNL1       -0.4724
      2 F           0.4488  -13.8676   28.7355 F       1  UNL1       -0.1832
      3 C           1.8786  -13.5919   28.3753 C.ar    1  UNL1        0.2225
      4 C           2.6731  -12.5965   29.1677 C.ar    1  UNL1        0.0528
      5 C           4.1029  -12.3208   28.8074 C.ar    1  UNL1        0.0424
      6 C           4.7381  -13.0404   27.6549 C.ar    1  UNL1        0.1579
      7 C           3.9436  -14.0358   26.8625 C.ar    1  UNL1        0.1380
      8 N           2.5138  -14.3115   27.2227 N.ar    1  UNL1       -0.2133
      9 C           7.1666  -12.4574   28.3708 C.3     1  UNL1        0.2210
     10 C           7.8546  -13.5752   29.0969 C.3     1  UNL1        0.0983
     11 C           9.2662  -14.0323   28.8771 C.3     1  UNL1        0.0209
     12 C           9.5358  -15.1717   29.8147 C.3     1  UNL1        0.0172
     13 C           9.5091  -16.2633   30.8431 C.3     1  UNL1        0.0171
     14 C           8.2908  -15.4188   30.6139 C.3     1  UNL1        0.0541
     15 N           7.2516  -14.4322   30.1703 N.3     1  UNL1       -0.2966
     16 H           6.9675  -13.8507   30.9587 H       1  UNL1        0.1233
@<TRIPOS>BOND
     1     2     3    1
     2     3     4   ar
     3     4     5   ar
     4     5     6   ar
     5     6     1    1
     6     1     9    1
     7    10     9    1
     8    10    11    1
     9    12    11    1
    10    12    13    1
    11    14    13    1
    12    14    15    1
    13     6     7   ar
    14     7     8   ar
    15     8     3   ar
    16    15    10    1
    17    14    12    1
    18    15    16    1
@<TRIPOS>MOLECULE
*****
 16 18 0 0 0
SMALL
GASTEIGER

@<TRIPOS>ATOM
      1 O          -4.9315  -15.9408   23.4357 O.3     1  UNL1       -0.4724
      2 F          -8.8729  -15.0476   27.8705 F       1  UNL1       -0.1832
      3 C          -7.8875  -15.2709   26.7618 C.ar    1  UNL1        0.2225
      4 C          -6.4214  -15.3559   27.0672 C.ar    1  UNL1        0.0528
      5 C          -5.4361  -15.5792   25.9585 C.ar    1  UNL1        0.0424
      6 C          -5.9168  -15.7175   24.5444 C.ar    1  UNL1        0.1579
      7 C          -7.3829  -15.6325   24.2390 C.ar    1  UNL1        0.1380
      8 N          -8.3683  -15.4091   25.3477 N.ar    1  UNL1       -0.2133
      9 C          -4.1038  -17.1914   23.4085 C.3     1  UNL1        0.2210
     10 C          -3.0422  -17.3656   22.3632 C.3     1  UNL1        0.0983
     11 C          -2.4854  -18.6724   21.8812 C.3     1  UNL1        0.0209
     12 C          -1.4500  -18.3780   20.8365 C.3     1  UNL1        0.0172
     13 C          -0.4891  -17.7845   19.8495 C.3     1  UNL1        0.0171
     14 C          -1.3668  -16.8893   20.6729 C.3     1  UNL1        0.0541
     15 N          -2.3508  -16.2635   21.6164 N.3     1  UNL1       -0.2966
     16 H          -3.0351  -15.7186   21.0918 H       1  UNL1        0.1233
@<TRIPOS>BOND
     1     2     3    1
     2     3     4   ar
     3     4     5   ar
     4     5     6   ar
     5     6     1    1
     6     1     9    1
     7    10     9    1
     8    10    11    1
     9    12    11    1
    10    12    13    1
    11    14    13    1
    12    14    15    1
    13     6     7   ar
    14     7     8   ar
    15     8     3   ar
    16    15    10    1
    17    14    12    1
    18    15    16    1
@<TRIPOS>MOLECULE
*****
 16 18 0 0 0
SMALL
GASTEIGER

@<TRIPOS>ATOM
      1 O          -4.3299  -17.3844   23.4346 O.3     1  UNL1       -0.4724
      2 F           0.1453  -18.1987   19.5220 F       1  UNL1       -0.1832
      3 C          -0.9735  -17.9952   20.5001 C.ar    1  UNL1        0.2225
      4 C          -1.3304  -16.6107   20.9539 C.ar    1  UNL1        0.0528
      5 C          -2.4492  -16.4072   21.9321 C.ar    1  UNL1        0.0424
      6 C          -3.2111  -17.5880   22.4565 C.ar    1  UNL1        0.1579
      7 C          -2.8542  -18.9724   22.0027 C.ar    1  UNL1        0.1380
      8 N          -1.7354  -19.1760   21.0245 N.ar    1  UNL1       -0.2133
      9 C          -4.7596  -15.9957   23.8043 C.3     1  UNL1        0.2210
     10 C          -5.8151  -15.7905   24.8502 C.3     1  UNL1        0.0983
     11 C          -5.5749  -15.5791   26.3156 C.3     1  UNL1        0.0209
     12 C          -6.9075  -15.4187   26.9854 C.3     1  UNL1        0.0172
     13 C          -8.3534  -15.2972   27.3653 C.3     1  UNL1        0.0171
     14 C          -7.9712  -15.5310   25.9338 C.3     1  UNL1        0.0541
     15 N          -7.2962  -15.7608   24.6142 N.3     1  UNL1       -0.2966
     16 H          -7.5289  -15.0050   23.9700 H       1  UNL1        0.1233
@<TRIPOS>BOND
     1     2     3    1
     2     3     4   ar
     3     4     5   ar
     4     5     6   ar
     5     6     1    1
     6     1     9    1
     7    10     9    1
     8    10    11    1
     9    12    11    1
    10    12    13    1
    11    14    13    1
    12    14    15    1
    13     6     7   ar
    14     7     8   ar
    15     8     3   ar
    16    15    10    1
    17    14    12    1
    18    15    16    1
@<TRIPOS>MOLECULE
*****
 16 18 0 0 0
SMALL
GASTEIGER

@<TRIPOS>ATOM
      1 O          -8.9954  -16.5298   21.5684 O.3     1  UNL1       -0.4724
      2 F         -14.2306  -18.0933   24.0478 F       1  UNL1       -0.1832
      3 C         -12.9218  -17.7024   23.4279 C.ar    1  UNL1        0.2225
      4 C         -11.6883  -18.5082   23.7094 C.ar    1  UNL1        0.0528
      5 C         -10.3795  -18.1173   23.0896 C.ar    1  UNL1        0.0424
      6 C         -10.3042  -16.9207   22.1882 C.ar    1  UNL1        0.1579
      7 C         -11.5377  -16.1150   21.9067 C.ar    1  UNL1        0.1380
      8 N         -12.8465  -16.5059   22.5266 N.ar    1  UNL1       -0.2133
      9 C          -8.2908  -15.2868   22.0249 C.3     1  UNL1        0.2210
     10 C          -7.4740  -15.3068   23.2828 C.3     1  UNL1        0.0983
     11 C          -7.9817  -15.6207   24.6589 C.3     1  UNL1        0.0209
     12 C          -6.8275  -15.5242   25.6121 C.3     1  UNL1        0.0172
     13 C          -5.5096  -15.3548   26.3080 C.3     1  UNL1        0.0171
     14 C          -5.6064  -15.1507   24.8251 C.3     1  UNL1        0.0541
     15 N          -6.0059  -15.0163   23.3855 N.3     1  UNL1       -0.2966
     16 H          -5.4809  -15.6810   22.8171 H       1  UNL1        0.1233
@<TRIPOS>BOND
     1     2     3    1
     2     3     4   ar
     3     4     5   ar
     4     5     6   ar
     5     6     1    1
     6     1     9    1
     7    10     9    1
     8    10    11    1
     9    12    11    1
    10    12    13    1
    11    14    13    1
    12    14    15    1
    13     6     7   ar
    14     7     8   ar
    15     8     3   ar
    16    15    10    1
    17    14    12    1
    18    15    16    1
@<TRIPOS>MOLECULE
*****
 16 18 0 0 0
SMALL
GASTEIGER

@<TRIPOS>ATOM
      1 O          -7.2756  -18.1274   20.8481 O.3     1  UNL1       -0.4724
      2 F         -11.6050  -19.2698   24.8421 F       1  UNL1       -0.1832
      3 C         -10.5226  -18.9842   23.8436 C.ar    1  UNL1        0.2225
      4 C          -9.4170  -19.9755   23.6318 C.ar    1  UNL1        0.0528
      5 C          -8.3347  -19.6899   22.6333 C.ar    1  UNL1        0.0424
      6 C          -8.3579  -18.4130   21.8466 C.ar    1  UNL1        0.1579
      7 C          -9.4635  -17.4216   22.0585 C.ar    1  UNL1        0.1380
      8 N         -10.5459  -17.7072   23.0569 N.ar    1  UNL1       -0.2133
      9 C          -6.4166  -19.2440   20.3333 C.3     1  UNL1        0.2210
     10 C          -4.9350  -19.0505   20.2006 C.3     1  UNL1        0.0983
     11 C          -3.8782  -19.7674   20.9876 C.3     1  UNL1        0.0209
     12 C          -2.5402  -19.2662   20.5310 C.3     1  UNL1        0.0172
     13 C          -1.3721  -18.5852   19.8816 C.3     1  UNL1        0.0171
     14 C          -2.7700  -18.2394   19.4619 C.3     1  UNL1        0.0541
     15 N          -4.2501  -18.1061   19.2577 N.3     1  UNL1       -0.2966
     16 H          -4.4895  -18.3438   18.2951 H       1  UNL1        0.1233
@<TRIPOS>BOND
     1     2     3    1
     2     3     4   ar
     3     4     5   ar
     4     5     6   ar
     5     6     1    1
     6     1     9    1
     7    10     9    1
     8    10    11    1
     9    12    11    1
    10    12    13    1
    11    14    13    1
    12    14    15    1
    13     6     7   ar
    14     7     8   ar
    15     8     3   ar
    16    15    10    1
    17    14    12    1
    18    15    16    1
@<TRIPOS>MOLECULE
*****
 16 18 0 0 0
SMALL
GASTEIGER

@<TRIPOS>ATOM
      1 O          -5.3469  -19.8123   21.3155 O.3     1  UNL1       -0.4724
      2 F           0.1428  -18.1005   19.6028 F       1  UNL1       -0.1832
      3 C          -1.2296  -18.5285   20.0309 C.ar    1  UNL1        0.2225
      4 C          -2.3815  -18.4180   19.0766 C.ar    1  UNL1        0.0528
      5 C          -3.7540  -18.8459   19.5048 C.ar    1  UNL1        0.0424
      6 C          -3.9745  -19.3843   20.8873 C.ar    1  UNL1        0.1579
      7 C          -2.8225  -19.4948   21.8416 C.ar    1  UNL1        0.1380
      8 N          -1.4501  -19.0669   21.4135 N.ar    1  UNL1       -0.2133
      9 C          -6.2360  -18.8539   22.0510 C.3     1  UNL1        0.2210
     10 C          -7.7267  -18.9770   21.9389 C.3     1  UNL1        0.0983
     11 C          -8.6127  -19.7999   22.8265 C.3     1  UNL1        0.0209
     12 C         -10.0268  -19.6302   22.3557 C.3     1  UNL1        0.0172
     13 C         -11.3117  -19.2730   21.6694 C.3     1  UNL1        0.0171
     14 C         -10.0147  -18.7025   21.1771 C.3     1  UNL1        0.0541
     15 N          -8.5932  -18.2987   20.9194 N.3     1  UNL1       -0.2966
     16 H          -8.5001  -17.2865   21.0043 H       1  UNL1        0.1233
@<TRIPOS>BOND
     1     2     3    1
     2     3     4   ar
     3     4     5   ar
     4     5     6   ar
     5     6     1    1
     6     1     9    1
     7    10     9    1
     8    10    11    1
     9    12    11    1
    10    12    13    1
    11    14    13    1
    12    14    15    1
    13     6     7   ar
    14     7     8   ar
    15     8     3   ar
    16    15    10    1
    17    14    12    1
    18    15    16    1
@<TRIPOS>MOLECULE
*****
 16 18 0 0 0
SMALL
GASTEIGER

@<TRIPOS>ATOM
      1 O           6.0532  -12.7845   27.3154 O.3     1  UNL1       -0.4724
      2 F           0.3003  -13.7881   28.6926 F       1  UNL1       -0.1832
      3 C           1.7386  -13.5372   28.3483 C.ar    1  UNL1        0.2225
      4 C           2.5777  -12.6576   29.2270 C.ar    1  UNL1        0.0528
      5 C           4.0159  -12.4067   28.8827 C.ar    1  UNL1        0.0424
      6 C           4.6150  -13.0354   27.6597 C.ar    1  UNL1        0.1579
      7 C           3.7759  -13.9150   26.7810 C.ar    1  UNL1        0.1380
      8 N           2.3377  -14.1659   27.1253 N.ar    1  UNL1       -0.2133
      9 C           6.9514  -12.0972   28.3007 C.3     1  UNL1        0.2210
     10 C           7.6930  -10.8562   27.9009 C.3     1  UNL1        0.0983
     11 C           9.1830  -10.6837   27.8918 C.3     1  UNL1        0.0209
     12 C           9.4856   -9.2906   27.4252 C.3     1  UNL1        0.0172
     13 C           9.4763   -7.8716   26.9393 C.3     1  UNL1        0.0171
     14 C           8.1826   -8.6020   27.1460 C.3     1  UNL1        0.0541
     15 N           7.0746   -9.5695   27.4400 N.3     1  UNL1       -0.2966
     16 H           6.5245   -9.7325   26.5966 H       1  UNL1        0.1233
@<TRIPOS>BOND
     1     2     3    1
     2     3     4   ar
     3     4     5   ar
     4     5     6   ar
     5     6     1    1
     6     1     9    1
     7    10     9    1
     8    10    11    1
     9    12    11    1
    10    12    13    1
    11    14    13    1
    12    14    15    1
    13     6     7   ar
    14     7     8   ar
    15     8     3   ar
    16    15    10    1
    17    14    12    1
    18    15    16    1
@<TRIPOS>MOLECULE
*****
 16 18 0 0 0
SMALL
GASTEIGER

@<TRIPOS>ATOM
      1 O          -7.7227  -16.6111   23.1709 O.3     1  UNL1       -0.4724
      2 F          -2.8454  -19.9323   22.0838 F       1  UNL1       -0.1832
      3 C          -4.0647  -19.1020   22.3556 C.ar    1  UNL1        0.2225
      4 C          -3.9506  -17.8445   23.1653 C.ar    1  UNL1        0.0528
      5 C          -5.1700  -17.0142   23.4370 C.ar    1  UNL1        0.0424
      6 C          -6.5034  -17.4414   22.8991 C.ar    1  UNL1        0.1579
      7 C          -6.6175  -18.6989   22.0894 C.ar    1  UNL1        0.1380
      8 N          -5.3982  -19.5292   21.8176 N.ar    1  UNL1       -0.2133
      9 C          -8.8466  -16.5817   22.1780 C.3     1  UNL1        0.2210
     10 C         -10.2302  -16.9792   22.5993 C.3     1  UNL1        0.0983
     11 C         -11.4978  -16.2514   22.2623 C.3     1  UNL1        0.0209
     12 C         -12.6402  -16.9967   22.8863 C.3     1  UNL1        0.0172
     13 C         -13.5577  -17.9352   23.6126 C.3     1  UNL1        0.0171
     14 C         -12.0787  -18.1851   23.6090 C.3     1  UNL1        0.0541
     15 N         -10.5892  -18.1744   23.4317 N.3     1  UNL1       -0.2966
     16 H         -10.2907  -19.0276   22.9591 H       1  UNL1        0.1233
@<TRIPOS>BOND
     1     2     3    1
     2     3     4   ar
     3     4     5   ar
     4     5     6   ar
     5     6     1    1
     6     1     9    1
     7    10     9    1
     8    10    11    1
     9    12    11    1
    10    12    13    1
    11    14    13    1
    12    14    15    1
    13     6     7   ar
    14     7     8   ar
    15     8     3   ar
    16    15    10    1
    17    14    12    1
    18    15    16    1
