@<TRIPOS>MOLECULE
*****
 23 25 0 0 0
SMALL
GASTEIGER

@<TRIPOS>ATOM
      1 C          -9.2496  -18.8064   21.4811 C.ar    1  UNL1        0.0218
      2 C          -9.2820  -19.1907   20.0315 C.ar    1  UNL1        0.0989
      3 N          -8.0004  -19.4396   19.2928 N.ar    1  UNL1       -0.2426
      4 C          -6.6865  -19.3042   20.0037 C.ar    1  UNL1        0.0959
      5 C          -6.6541  -18.9198   21.4533 C.ar    1  UNL1        0.0128
      6 C          -7.9358  -18.6709   22.1920 C.ar    1  UNL1        0.0003
      7 C         -11.6758  -17.8783   21.5281 C.ar    1  UNL1        0.1409
      8 C         -12.9573  -17.6294   22.2668 C.ar    1  UNL1        0.0665
      9 C         -13.0943  -18.0598   23.6972 C.ar    1  UNL1        0.1432
     10 F         -14.3759  -17.8109   24.4359 F       1  UNL1       -0.2041
     11 C         -11.9497  -18.7390   24.3889 C.ar    1  UNL1        0.0298
     12 C         -10.6681  -18.9879   23.6502 C.ar    1  UNL1        0.0054
     13 C         -10.5312  -18.5575   22.2198 C.ar    1  UNL1        0.0356
     14 C         -11.4706  -15.9888   19.7567 C.3     1  UNL1        0.2525
     15 O         -11.5389  -17.4479   20.0977 O.3     1  UNL1       -0.4714
     16 C          -5.3403  -18.7844   22.1641 C.3     1  UNL1        0.0971
     17 N          -4.1552  -19.5830   21.7083 N.3     1  UNL1       -0.2948
     18 H          -4.5179  -20.3559   21.1503 H       1  UNL1        0.1235
     19 C          -3.0784  -18.9290   20.8941 C.3     1  UNL1        0.0542
     20 C          -3.0831  -18.7538   19.4043 C.3     1  UNL1        0.0157
     21 C          -1.8155  -18.0521   19.0161 C.3     1  UNL1        0.0014
     22 C          -1.0274  -17.7935   20.2660 C.3     1  UNL1        0.0014
     23 C          -1.8079  -18.3355   21.4266 C.3     1  UNL1        0.0157
@<TRIPOS>BOND
     1    14    15    1
     2    15     7    1
     3     7     8   ar
     4     8     9   ar
     5     9    10    1
     6     9    11   ar
     7    11    12   ar
     8    12    13   ar
     9    13     1    1
    10     1     2   ar
    11     2     3   ar
    12     3     4   ar
    13     4     5   ar
    14     5    16    1
    15    16    17    1
    16    17    19    1
    17    19    20    1
    18    20    21    1
    19    21    22    1
    20    22    23    1
    21     5     6   ar
    22    13     7   ar
    23     6     1   ar
    24    23    19    1
    25    17    18    1
@<TRIPOS>MOLECULE
*****
 23 25 0 0 0
SMALL
GASTEIGER

@<TRIPOS>ATOM
      1 C          -8.7790  -18.7939   21.6278 C.ar    1  UNL1        0.0218
      2 C          -8.6759  -19.3557   20.2408 C.ar    1  UNL1        0.0989
      3 N          -7.3288  -19.6306   19.6412 N.ar    1  UNL1       -0.2426
      4 C          -6.0846  -19.3437   20.4286 C.ar    1  UNL1        0.0959
      5 C          -6.1877  -18.7818   21.8155 C.ar    1  UNL1        0.0128
      6 C          -7.5350  -18.5069   22.4151 C.ar    1  UNL1        0.0003
      7 C         -11.1232  -17.6833   21.4806 C.ar    1  UNL1        0.1409
      8 C         -12.4703  -17.4084   22.0802 C.ar    1  UNL1        0.0665
      9 C         -12.8206  -17.9693   23.4266 C.ar    1  UNL1        0.1432
     10 F         -14.1678  -17.6943   24.0262 F       1  UNL1       -0.2041
     11 C         -11.8237  -18.8049   24.1734 C.ar    1  UNL1        0.0298
     12 C         -10.4765  -19.0798   23.5738 C.ar    1  UNL1        0.0054
     13 C         -10.1263  -18.5190   22.2274 C.ar    1  UNL1        0.0356
     14 C         -11.4264  -15.8604   19.6543 C.3     1  UNL1        0.2525
     15 O         -10.7729  -17.1224   20.1342 O.3     1  UNL1       -0.4714
     16 C          -4.9437  -18.4948   22.6029 C.3     1  UNL1        0.0971
     17 N          -4.5474  -17.0766   22.8886 N.3     1  UNL1       -0.2948
     18 H          -4.6492  -16.5607   22.0146 H       1  UNL1        0.1235
     19 C          -5.2735  -16.2925   23.9413 C.3     1  UNL1        0.0542
     20 C          -6.5490  -15.5273   23.7479 C.3     1  UNL1        0.0157
     21 C          -6.9153  -14.8978   25.0592 C.3     1  UNL1        0.0014
     22 C          -5.8661  -15.2741   26.0631 C.3     1  UNL1        0.0014
     23 C          -4.8514  -16.1360   25.3721 C.3     1  UNL1        0.0157
@<TRIPOS>BOND
     1    14    15    1
     2    15     7    1
     3     7     8   ar
     4     8     9   ar
     5     9    10    1
     6     9    11   ar
     7    11    12   ar
     8    12    13   ar
     9    13     1    1
    10     1     2   ar
    11     2     3   ar
    12     3     4   ar
    13     4     5   ar
    14     5    16    1
    15    16    17    1
    16    17    19    1
    17    19    20    1
    18    20    21    1
    19    21    22    1
    20    22    23    1
    21     5     6   ar
    22    13     7   ar
    23     6     1   ar
    24    23    19    1
    25    17    18    1
@<TRIPOS>MOLECULE
*****
 23 25 0 0 0
SMALL
GASTEIGER

@<TRIPOS>ATOM
      1 C          -8.0221  -16.4275   23.3137 C.ar    1  UNL1        0.0218
      2 C          -7.8113  -15.2095   24.1633 C.ar    1  UNL1        0.0989
      3 N          -6.4350  -14.8626   24.6485 N.ar    1  UNL1       -0.2426
      4 C          -5.2695  -15.7337   24.2840 C.ar    1  UNL1        0.0959
      5 C          -5.4804  -16.9518   23.4344 C.ar    1  UNL1        0.0128
      6 C          -6.8567  -17.2987   22.9492 C.ar    1  UNL1        0.0003
      7 C         -10.2154  -17.7984   23.5592 C.ar    1  UNL1        0.1409
      8 C         -11.5917  -18.1452   23.0740 C.ar    1  UNL1        0.0665
      9 C         -12.1511  -17.4681   21.8581 C.ar    1  UNL1        0.1432
     10 F         -13.5275  -17.8149   21.3729 F       1  UNL1       -0.2041
     11 C         -11.3342  -16.4441   21.1273 C.ar    1  UNL1        0.0298
     12 C          -9.9579  -16.0972   21.6125 C.ar    1  UNL1        0.0054
     13 C          -9.3985  -16.7744   22.8285 C.ar    1  UNL1        0.0356
     14 C          -9.9573  -19.9221   25.0333 C.3     1  UNL1        0.2525
     15 O          -9.6561  -18.4756   24.7752 O.3     1  UNL1       -0.4714
     16 C          -4.3149  -17.8229   23.0699 C.3     1  UNL1        0.0971
     17 N          -4.2892  -18.5254   21.7449 N.3     1  UNL1       -0.2948
     18 H          -5.1222  -18.2272   21.2373 H       1  UNL1        0.1235
     19 C          -3.1257  -18.3352   20.8175 C.3     1  UNL1        0.0542
     20 C          -3.1870  -18.3133   19.3189 C.3     1  UNL1        0.0157
     21 C          -1.7958  -18.0980   18.8011 C.3     1  UNL1        0.0014
     22 C          -0.8746  -17.9868   19.9797 C.3     1  UNL1        0.0014
     23 C          -1.6965  -18.1334   21.2259 C.3     1  UNL1        0.0157
@<TRIPOS>BOND
     1    14    15    1
     2    15     7    1
     3     7     8   ar
     4     8     9   ar
     5     9    10    1
     6     9    11   ar
     7    11    12   ar
     8    12    13   ar
     9    13     1    1
    10     1     2   ar
    11     2     3   ar
    12     3     4   ar
    13     4     5   ar
    14     5    16    1
    15    16    17    1
    16    17    19    1
    17    19    20    1
    18    20    21    1
    19    21    22    1
    20    22    23    1
    21     5     6   ar
    22    13     7   ar
    23     6     1   ar
    24    23    19    1
    25    17    18    1
@<TRIPOS>MOLECULE
*****
 23 25 0 0 0
SMALL
GASTEIGER

@<TRIPOS>ATOM
      1 C          -7.5221  -19.2520   21.2370 C.ar    1  UNL1        0.0218
      2 C          -6.9769  -20.2770   20.2872 C.ar    1  UNL1        0.0989
      3 N          -5.5060  -20.5698   20.2630 N.ar    1  UNL1       -0.2426
      4 C          -4.5802  -19.8376   21.1886 C.ar    1  UNL1        0.0959
      5 C          -5.1253  -18.8126   22.1384 C.ar    1  UNL1        0.0128
      6 C          -6.5963  -18.5198   22.1626 C.ar    1  UNL1        0.0003
      7 C          -9.8233  -19.3846   22.4357 C.ar    1  UNL1        0.1409
      8 C         -11.2942  -19.0918   22.4598 C.ar    1  UNL1        0.0665
      9 C         -11.9349  -18.3735   21.3093 C.ar    1  UNL1        0.1432
     10 F         -13.4059  -18.0807   21.3335 F       1  UNL1       -0.2041
     11 C         -11.1047  -17.9481   20.1347 C.ar    1  UNL1        0.0298
     12 C          -9.6338  -18.2409   20.1106 C.ar    1  UNL1        0.0054
     13 C          -8.9931  -18.9592   21.2611 C.ar    1  UNL1        0.0356
     14 C          -9.9025  -20.2106   24.8977 C.3     1  UNL1        0.2525
     15 O          -9.1826  -20.1028   23.5862 O.3     1  UNL1       -0.4714
     16 C          -4.1996  -18.0804   23.0641 C.3     1  UNL1        0.0971
     17 N          -4.3245  -16.5948   23.2292 N.3     1  UNL1       -0.2948
     18 H          -4.6234  -16.2224   22.3278 H       1  UNL1        0.1235
     19 C          -5.2557  -16.0305   24.2610 C.3     1  UNL1        0.0542
     20 C          -4.9702  -15.8973   25.7276 C.3     1  UNL1        0.0157
     21 C          -6.1738  -15.2849   26.3804 C.3     1  UNL1        0.0014
     22 C          -7.2032  -15.0396   25.3173 C.3     1  UNL1        0.0014
     23 C          -6.6358  -15.5004   24.0075 C.3     1  UNL1        0.0157
@<TRIPOS>BOND
     1    14    15    1
     2    15     7    1
     3     7     8   ar
     4     8     9   ar
     5     9    10    1
     6     9    11   ar
     7    11    12   ar
     8    12    13   ar
     9    13     1    1
    10     1     2   ar
    11     2     3   ar
    12     3     4   ar
    13     4     5   ar
    14     5    16    1
    15    16    17    1
    16    17    19    1
    17    19    20    1
    18    20    21    1
    19    21    22    1
    20    22    23    1
    21     5     6   ar
    22    13     7   ar
    23     6     1   ar
    24    23    19    1
    25    17    18    1
@<TRIPOS>MOLECULE
*****
 23 25 0 0 0
SMALL
GASTEIGER

@<TRIPOS>ATOM
      1 C          -9.1612  -18.8206   21.4457 C.ar    1  UNL1        0.0218
      2 C          -9.1616  -19.0999   19.9719 C.ar    1  UNL1        0.0989
      3 N          -7.8709  -19.3822   19.2617 N.ar    1  UNL1       -0.2426
      4 C          -6.5798  -19.3852   20.0253 C.ar    1  UNL1        0.0959
      5 C          -6.5794  -19.1059   21.4991 C.ar    1  UNL1        0.0128
      6 C          -7.8702  -18.8236   22.2093 C.ar    1  UNL1        0.0003
      7 C         -10.6192  -18.9332   23.5932 C.ar    1  UNL1        0.1409
      8 C         -11.9099  -18.6508   24.3033 C.ar    1  UNL1        0.0665
      9 C         -13.0334  -17.9735   23.5760 C.ar    1  UNL1        0.1432
     10 F         -14.3242  -17.6912   24.2862 F       1  UNL1       -0.2041
     11 C         -12.8663  -17.5786   22.1387 C.ar    1  UNL1        0.0298
     12 C         -11.5755  -17.8609   21.4286 C.ar    1  UNL1        0.0054
     13 C         -10.4520  -18.5382   22.1558 C.ar    1  UNL1        0.0356
     14 C          -9.5270  -21.0949   24.5333 C.3     1  UNL1        0.2525
     15 O          -9.4956  -19.6105   24.3204 O.3     1  UNL1       -0.4714
     16 C          -5.2883  -19.1089   22.2627 C.3     1  UNL1        0.0971
     17 N          -4.4123  -17.8913   22.2595 N.3     1  UNL1       -0.2948
     18 H          -4.0951  -17.7543   23.2192 H       1  UNL1        0.1235
     19 C          -3.1912  -17.8482   21.3894 C.3     1  UNL1        0.0542
     20 C          -2.8701  -18.7970   20.2729 C.3     1  UNL1        0.0157
     21 C          -1.5573  -18.3839   19.6765 C.3     1  UNL1        0.0014
     22 C          -1.0669  -17.1797   20.4245 C.3     1  UNL1        0.0014
     23 C          -2.0767  -16.8486   21.4831 C.3     1  UNL1        0.0157
@<TRIPOS>BOND
     1    14    15    1
     2    15     7    1
     3     7     8   ar
     4     8     9   ar
     5     9    10    1
     6     9    11   ar
     7    11    12   ar
     8    12    13   ar
     9    13     1    1
    10     1     2   ar
    11     2     3   ar
    12     3     4   ar
    13     4     5   ar
    14     5    16    1
    15    16    17    1
    16    17    19    1
    17    19    20    1
    18    20    21    1
    19    21    22    1
    20    22    23    1
    21     5     6   ar
    22    13     7   ar
    23     6     1   ar
    24    23    19    1
    25    17    18    1
@<TRIPOS>MOLECULE
*****
 23 25 0 0 0
SMALL
GASTEIGER

@<TRIPOS>ATOM
      1 C          -7.4318  -18.4413   22.3502 C.ar    1  UNL1        0.0218
      2 C          -6.6805  -19.7100   22.0745 C.ar    1  UNL1        0.0989
      3 N          -5.2016  -19.7735   22.3163 N.ar    1  UNL1       -0.2426
      4 C          -4.4738  -18.5682   22.8338 C.ar    1  UNL1        0.0959
      5 C          -5.2250  -17.2995   23.1094 C.ar    1  UNL1        0.0128
      6 C          -6.7041  -17.2361   22.8676 C.ar    1  UNL1        0.0003
      7 C          -9.5019  -19.0374   20.8977 C.ar    1  UNL1        0.1409
      8 C         -10.9809  -18.9740   20.6559 C.ar    1  UNL1        0.0665
      9 C         -11.8689  -18.2509   21.6248 C.ar    1  UNL1        0.1432
     10 F         -13.3479  -18.1875   21.3829 F       1  UNL1       -0.2041
     11 C         -11.2779  -17.5914   22.8354 C.ar    1  UNL1        0.0298
     12 C          -9.7989  -17.6548   23.0772 C.ar    1  UNL1        0.0054
     13 C          -8.9109  -18.3779   22.1083 C.ar    1  UNL1        0.0356
     14 C          -9.0947  -20.0404   18.5359 C.3     1  UNL1        0.2525
     15 O          -8.6139  -19.7605   19.9288 O.3     1  UNL1       -0.4714
     16 C          -4.4973  -16.0943   23.6269 C.3     1  UNL1        0.0971
     17 N          -5.2671  -14.9463   24.2095 N.3     1  UNL1       -0.2948
     18 H          -5.7659  -14.5042   23.4374 H       1  UNL1        0.1235
     19 C          -6.2756  -15.1921   25.2924 C.3     1  UNL1        0.0542
     20 C          -7.7662  -15.1155   25.1428 C.3     1  UNL1        0.0157
     21 C          -8.3824  -15.4337   26.4729 C.3     1  UNL1        0.0014
     22 C          -7.2726  -15.7069   27.4444 C.3     1  UNL1        0.0014
     23 C          -5.9706  -15.5576   26.7148 C.3     1  UNL1        0.0157
@<TRIPOS>BOND
     1    14    15    1
     2    15     7    1
     3     7     8   ar
     4     8     9   ar
     5     9    10    1
     6     9    11   ar
     7    11    12   ar
     8    12    13   ar
     9    13     1    1
    10     1     2   ar
    11     2     3   ar
    12     3     4   ar
    13     4     5   ar
    14     5    16    1
    15    16    17    1
    16    17    19    1
    17    19    20    1
    18    20    21    1
    19    21    22    1
    20    22    23    1
    21     5     6   ar
    22    13     7   ar
    23     6     1   ar
    24    23    19    1
    25    17    18    1
@<TRIPOS>MOLECULE
*****
 23 25 0 0 0
SMALL
GASTEIGER

@<TRIPOS>ATOM
      1 C          -9.2723  -18.7394   21.4708 C.ar    1  UNL1        0.0218
      2 C          -9.1885  -19.1268   20.0242 C.ar    1  UNL1        0.0989
      3 N          -7.8509  -19.3575   19.3858 N.ar    1  UNL1       -0.2426
      4 C          -6.5970  -19.2009   20.1941 C.ar    1  UNL1        0.0959
      5 C          -6.6808  -18.8135   21.6407 C.ar    1  UNL1        0.0128
      6 C          -8.0185  -18.5827   22.2791 C.ar    1  UNL1        0.0003
      7 C         -10.7546  -18.5955   23.5997 C.ar    1  UNL1        0.1409
      8 C         -12.0923  -18.3647   24.2380 C.ar    1  UNL1        0.0665
      9 C         -13.2852  -18.0472   23.3858 C.ar    1  UNL1        0.1432
     10 F         -14.6229  -17.8165   24.0242 F       1  UNL1       -0.2041
     11 C         -13.1405  -17.9604   21.8954 C.ar    1  UNL1        0.0298
     12 C         -11.8028  -18.1912   21.2571 C.ar    1  UNL1        0.0054
     13 C         -10.6099  -18.5087   22.1092 C.ar    1  UNL1        0.0356
     14 C          -9.3155  -18.1419   25.7146 C.3     1  UNL1        0.2525
     15 O          -9.5617  -18.9130   24.4518 O.3     1  UNL1       -0.4714
     16 C          -5.4270  -18.6568   22.4490 C.3     1  UNL1        0.0971
     17 N          -4.8865  -17.2875   22.7369 N.3     1  UNL1       -0.2948
     18 H          -4.9334  -16.7628   21.8635 H       1  UNL1        0.1235
     19 C          -5.5287  -16.4338   23.7900 C.3     1  UNL1        0.0542
     20 C          -6.8449  -15.7247   23.6684 C.3     1  UNL1        0.0157
     21 C          -7.0971  -14.9920   24.9527 C.3     1  UNL1        0.0014
     22 C          -5.9367  -15.2483   25.8681 C.3     1  UNL1        0.0014
     23 C          -4.9674  -16.1394   25.1495 C.3     1  UNL1        0.0157
@<TRIPOS>BOND
     1    14    15    1
     2    15     7    1
     3     7     8   ar
     4     8     9   ar
     5     9    10    1
     6     9    11   ar
     7    11    12   ar
     8    12    13   ar
     9    13     1    1
    10     1     2   ar
    11     2     3   ar
    12     3     4   ar
    13     4     5   ar
    14     5    16    1
    15    16    17    1
    16    17    19    1
    17    19    20    1
    18    20    21    1
    19    21    22    1
    20    22    23    1
    21     5     6   ar
    22    13     7   ar
    23     6     1   ar
    24    23    19    1
    25    17    18    1
@<TRIPOS>MOLECULE
*****
 23 25 0 0 0
SMALL
GASTEIGER

@<TRIPOS>ATOM
      1 C          -8.6301  -16.7089   23.1666 C.ar    1  UNL1        0.0218
      2 C          -9.3555  -16.1758   24.3664 C.ar    1  UNL1        0.0989
      3 N          -8.5850  -15.5599   25.4964 N.ar    1  UNL1       -0.2426
      4 C          -7.0888  -15.4771   25.4266 C.ar    1  UNL1        0.0959
      5 C          -6.3634  -16.0102   24.2268 C.ar    1  UNL1        0.0128
      6 C          -7.1340  -16.6261   23.0968 C.ar    1  UNL1        0.0003
      7 C          -9.3636  -18.8093   21.8248 C.ar    1  UNL1        0.1409
      8 C         -10.1342  -19.4251   20.6949 C.ar    1  UNL1        0.0665
      9 C         -10.9420  -18.5565   19.7768 C.ar    1  UNL1        0.1432
     10 F         -11.7127  -19.1725   18.6468 F       1  UNL1       -0.2041
     11 C         -10.9792  -17.0721   19.9886 C.ar    1  UNL1        0.0298
     12 C         -10.2086  -16.4562   21.1186 C.ar    1  UNL1        0.0054
     13 C          -9.4007  -17.3248   22.0367 C.ar    1  UNL1        0.0356
     14 C          -9.2329  -20.4396   23.8435 C.3     1  UNL1        0.2525
     15 O          -8.5557  -19.6779   22.7429 O.3     1  UNL1       -0.4714
     16 C          -4.8673  -15.9274   24.1569 C.3     1  UNL1        0.0971
     17 N          -4.0546  -17.1756   23.9795 N.3     1  UNL1       -0.2948
     18 H          -4.7116  -17.9557   23.9691 H       1  UNL1        0.1235
     19 C          -3.1759  -17.3334   22.7740 C.3     1  UNL1        0.0542
     20 C          -2.4277  -16.2350   22.0784 C.3     1  UNL1        0.0157
     21 C          -1.6806  -16.8400   20.9270 C.3     1  UNL1        0.0014
     22 C          -1.9671  -18.3124   20.9110 C.3     1  UNL1        0.0014
     23 C          -2.8913  -18.6172   22.0524 C.3     1  UNL1        0.0157
@<TRIPOS>BOND
     1    14    15    1
     2    15     7    1
     3     7     8   ar
     4     8     9   ar
     5     9    10    1
     6     9    11   ar
     7    11    12   ar
     8    12    13   ar
     9    13     1    1
    10     1     2   ar
    11     2     3   ar
    12     3     4   ar
    13     4     5   ar
    14     5    16    1
    15    16    17    1
    16    17    19    1
    17    19    20    1
    18    20    21    1
    19    21    22    1
    20    22    23    1
    21     5     6   ar
    22    13     7   ar
    23     6     1   ar
    24    23    19    1
    25    17    18    1
@<TRIPOS>MOLECULE
*****
 23 25 0 0 0
SMALL
GASTEIGER

@<TRIPOS>ATOM
      1 C         -10.9962   -4.3269   18.2390 C.ar    1  UNL1        0.0218
      2 C          -9.7562   -4.8084   18.9321 C.ar    1  UNL1        0.0989
      3 N          -9.5786   -6.2692   19.2225 N.ar    1  UNL1       -0.2426
      4 C         -10.6410   -7.2486   18.8198 C.ar    1  UNL1        0.0959
      5 C         -11.8810   -6.7671   18.1266 C.ar    1  UNL1        0.0128
      6 C         -12.0586   -5.3062   17.8362 C.ar    1  UNL1        0.0003
      7 C         -12.0837   -2.0362   18.8050 C.ar    1  UNL1        0.1409
      8 C         -12.2612   -0.5754   18.5146 C.ar    1  UNL1        0.0665
      9 C         -11.5289    0.0557   17.3677 C.ar    1  UNL1        0.1432
     10 F         -11.7065    1.5166   17.0773 F       1  UNL1       -0.2041
     11 C         -10.6190   -0.7740   16.5113 C.ar    1  UNL1        0.0298
     12 C         -10.4414   -2.2348   16.8017 C.ar    1  UNL1        0.0054
     13 C         -11.1738   -2.8660   17.9486 C.ar    1  UNL1        0.0356
     14 C         -14.3056   -2.8332   19.8904 C.3     1  UNL1        0.2525
     15 O         -12.8161   -2.6673   19.9519 O.3     1  UNL1       -0.4714
     16 C         -12.9434   -7.7464   17.7239 C.3     1  UNL1        0.0971
     17 N         -13.7904   -8.4068   18.7710 N.3     1  UNL1       -0.2948
     18 H         -13.2429   -8.4133   19.6316 H       1  UNL1        0.1235
     19 C         -15.1345   -7.8379   19.1171 C.3     1  UNL1        0.0542
     20 C         -15.5424   -6.4000   18.9904 C.3     1  UNL1        0.0157
     21 C         -16.9666   -6.2803   19.4457 C.3     1  UNL1        0.0014
     22 C         -17.4389   -7.6443   19.8538 C.3     1  UNL1        0.0014
     23 C         -16.3066   -8.6069   19.6508 C.3     1  UNL1        0.0157
@<TRIPOS>BOND
     1    14    15    1
     2    15     7    1
     3     7     8   ar
     4     8     9   ar
     5     9    10    1
     6     9    11   ar
     7    11    12   ar
     8    12    13   ar
     9    13     1    1
    10     1     2   ar
    11     2     3   ar
    12     3     4   ar
    13     4     5   ar
    14     5    16    1
    15    16    17    1
    16    17    19    1
    17    19    20    1
    18    20    21    1
    19    21    22    1
    20    22    23    1
    21     5     6   ar
    22    13     7   ar
    23     6     1   ar
    24    23    19    1
    25    17    18    1
