@<TRIPOS>MOLECULE
*****
 24 26 0 0 0
SMALL
GASTEIGER

@<TRIPOS>ATOM
      1 C          -5.5974  -16.1117   23.9807 C.ar    1  UNL1        0.2007
      2 N          -6.2089  -14.9321   24.6769 N.ar    1  UNL1       -0.0584
      3 O          -7.5968  -14.7449   24.1396 O.2     1  UNL1       -0.3310
      4 C          -7.8431  -15.8088   23.1113 C.ar    1  UNL1        0.2793
      5 N          -6.6075  -16.6535   23.0131 N.ar    1  UNL1       -0.1880
      6 C          -9.1038  -15.9952   22.3201 C.2     1  UNL1        0.1598
      7 N          -9.4016  -15.3899   20.9804 N.2     1  UNL1       -0.1434
      8 N         -10.7698  -15.8402   20.5621 N.2     1  UNL1       -0.1519
      9 C         -11.3177  -16.7239   21.6433 C.2     1  UNL1        0.0865
     10 C         -12.6212  -17.4537   21.7788 C.3     1  UNL1        0.0736
     11 C         -12.8949  -18.2792   23.0008 C.2     1  UNL1       -0.0197
     12 C         -11.8652  -18.3750   24.0874 C.2     1  UNL1       -0.0041
     13 C         -10.5618  -17.6452   23.9519 C.2     1  UNL1        0.0026
     14 C         -10.2880  -16.8197   22.7298 C.2     1  UNL1        0.0397
     15 C          -4.2182  -16.6542   24.2115 C.3     1  UNL1        0.1621
     16 C          -2.8360  -17.3381   22.1207 C.2     1  UNL1        0.4017
     17 O          -2.5501  -15.8932   21.8370 O.2     1  UNL1       -0.2264
     18 N          -3.6700  -17.7186   23.3079 N.am    1  UNL1       -0.2634
     19 H          -3.8576  -18.6670   23.4941 H       1  UNL1        0.1532
     20 O          -2.2878  -18.4025   21.2171 O.3     1  UNL1       -0.4419
     21 C          -3.4937  -18.3823   19.4719 C.3     1  UNL1        0.0437
     22 C          -2.0492  -18.1052   19.7663 C.3     1  UNL1        0.1378
     23 C          -0.6047  -17.8280   20.0608 C.3     1  UNL1        0.0437
     24 C          -1.8105  -17.8078   18.3157 C.3     1  UNL1        0.0437
@<TRIPOS>BOND
     1    21    22    1
     2    22    23    1
     3    22    24    1
     4    22    20    1
     5    20    16    1
     6    16    17    2
     7    16    18   am
     8    18    15    1
     9    15     1    1
    10     1     2   ar
    11     2     3   ar
    12     3     4   ar
    13     4     6    1
    14     6     7    2
    15     7     8    1
    16     8     9    2
    17     9    10    1
    18    10    11    1
    19    11    12    2
    20    12    13    1
    21    13    14    2
    22     4     5   ar
    23     5     1   ar
    24    14     6    1
    25    14     9    1
    26    18    19    1
@<TRIPOS>MOLECULE
*****
 24 26 0 0 0
SMALL
GASTEIGER

@<TRIPOS>ATOM
      1 C          -6.4284  -20.4267   20.7319 C.ar    1  UNL1        0.2007
      2 N          -6.6732  -20.4471   22.2117 N.ar    1  UNL1       -0.0584
      3 O          -7.9986  -19.7946   22.4714 O.2     1  UNL1       -0.3310
      4 C          -8.5731  -19.3709   21.1521 C.ar    1  UNL1        0.2793
      5 N          -7.6027  -19.7615   20.0771 N.ar    1  UNL1       -0.1880
      6 C          -9.8872  -18.6782   20.9444 C.2     1  UNL1        0.1598
      7 N         -10.3553  -18.0389   19.6708 N.2     1  UNL1       -0.1434
      8 N         -11.7214  -17.4687   19.9132 N.2     1  UNL1       -0.1519
      9 C         -12.0976  -17.7556   21.3366 C.2     1  UNL1        0.0865
     10 C         -13.3258  -17.4328   22.1347 C.3     1  UNL1        0.0736
     11 C         -13.4205  -17.8574   23.5702 C.2     1  UNL1       -0.0197
     12 C         -12.2869  -18.6049   24.2076 C.2     1  UNL1       -0.0041
     13 C         -11.0587  -18.9277   23.4095 C.2     1  UNL1        0.0026
     14 C         -10.9640  -18.5031   21.9740 C.2     1  UNL1        0.0397
     15 C          -5.2215  -20.9750   20.0302 C.3     1  UNL1        0.1621
     16 C          -3.3212  -19.2038   20.0726 C.2     1  UNL1        0.4017
     17 O          -4.1685  -18.2752   19.2542 O.2     1  UNL1       -0.2264
     18 N          -3.8477  -20.5537   20.4606 N.am    1  UNL1       -0.2634
     19 H          -3.2916  -21.1632   20.9978 H       1  UNL1        0.1532
     20 O          -1.9475  -18.7825   20.5030 O.3     1  UNL1       -0.4419
     21 C          -2.6044  -17.7401   22.2299 C.3     1  UNL1        0.0437
     22 C          -1.7248  -17.4081   21.0610 C.3     1  UNL1        0.1378
     23 C          -0.8452  -17.0762   19.8922 C.3     1  UNL1        0.0437
     24 C          -1.5021  -16.0337   21.6189 C.3     1  UNL1        0.0437
@<TRIPOS>BOND
     1    21    22    1
     2    22    23    1
     3    22    24    1
     4    22    20    1
     5    20    16    1
     6    16    17    2
     7    16    18   am
     8    18    15    1
     9    15     1    1
    10     1     2   ar
    11     2     3   ar
    12     3     4   ar
    13     4     6    1
    14     6     7    2
    15     7     8    1
    16     8     9    2
    17     9    10    1
    18    10    11    1
    19    11    12    2
    20    12    13    1
    21    13    14    2
    22     4     5   ar
    23     5     1   ar
    24    14     6    1
    25    14     9    1
    26    18    19    1
@<TRIPOS>MOLECULE
*****
 24 26 0 0 0
SMALL
GASTEIGER

@<TRIPOS>ATOM
      1 C          -6.1762  -19.9232   20.7037 C.ar    1  UNL1        0.2007
      2 N          -6.6792  -18.6092   20.1837 N.ar    1  UNL1       -0.0584
      3 O          -7.8824  -18.2211   20.9910 O.2     1  UNL1       -0.3310
      4 C          -8.1230  -19.2952   22.0100 C.ar    1  UNL1        0.2793
      5 N          -7.0685  -20.3471   21.8324 N.ar    1  UNL1       -0.1880
      6 C          -9.2246  -19.3141   23.0278 C.2     1  UNL1        0.1598
      7 N          -9.1693  -19.9716   24.3749 N.2     1  UNL1       -0.1434
      8 N         -10.4855  -19.7426   25.0568 N.2     1  UNL1       -0.1519
      9 C         -11.3543  -18.9435   24.1313 C.2     1  UNL1        0.0865
     10 C         -12.7543  -18.4229   24.2683 C.3     1  UNL1        0.0736
     11 C         -13.3751  -17.6374   23.1514 C.2     1  UNL1       -0.0197
     12 C         -12.5958  -17.3725   21.8974 C.2     1  UNL1       -0.0041
     13 C         -11.1958  -17.8932   21.7603 C.2     1  UNL1        0.0026
     14 C         -10.5750  -18.6787   22.8773 C.2     1  UNL1        0.0397
     15 C          -4.9893  -20.6802   20.1859 C.3     1  UNL1        0.1621
     16 C          -3.0847  -19.6565   21.6262 C.2     1  UNL1        0.4017
     17 O          -3.9262  -19.8224   22.8568 O.2     1  UNL1       -0.2264
     18 N          -3.6163  -20.0854   20.2907 N.am    1  UNL1       -0.2634
     19 H          -3.0640  -19.9765   19.4830 H       1  UNL1        0.1532
     20 O          -1.7117  -19.0617   21.7310 O.3     1  UNL1       -0.4419
     21 C          -2.2601  -17.0480   22.1111 C.3     1  UNL1        0.0437
     22 C          -1.4148  -17.7413   21.0840 C.3     1  UNL1        0.1378
     23 C          -0.5696  -18.4348   20.0570 C.3     1  UNL1        0.0437
     24 C          -1.1179  -16.4211   20.4370 C.3     1  UNL1        0.0437
@<TRIPOS>BOND
     1    21    22    1
     2    22    23    1
     3    22    24    1
     4    22    20    1
     5    20    16    1
     6    16    17    2
     7    16    18   am
     8    18    15    1
     9    15     1    1
    10     1     2   ar
    11     2     3   ar
    12     3     4   ar
    13     4     6    1
    14     6     7    2
    15     7     8    1
    16     8     9    2
    17     9    10    1
    18    10    11    1
    19    11    12    2
    20    12    13    1
    21    13    14    2
    22     4     5   ar
    23     5     1   ar
    24    14     6    1
    25    14     9    1
    26    18    19    1
@<TRIPOS>MOLECULE
*****
 24 26 0 0 0
SMALL
GASTEIGER

@<TRIPOS>ATOM
      1 C          -6.7159  -15.6299   24.0755 C.ar    1  UNL1        0.2007
      2 N          -5.5664  -15.2764   24.9721 N.ar    1  UNL1       -0.0584
      3 O          -4.3903  -16.1165   24.5709 O.2     1  UNL1       -0.3310
      4 C          -4.8128  -16.9892   23.4265 C.ar    1  UNL1        0.2793
      5 N          -6.2500  -16.6885   23.1203 N.ar    1  UNL1       -0.1880
      6 C          -3.9495  -17.9874   22.7134 C.2     1  UNL1        0.1598
      7 N          -4.1264  -19.4768   22.7296 N.2     1  UNL1       -0.1434
      8 N          -3.0440  -20.0812   21.8851 N.2     1  UNL1       -0.1519
      9 C          -2.1982  -18.9654   21.3471 C.2     1  UNL1        0.0865
     10 C          -0.9907  -18.9605   20.4572 C.3     1  UNL1        0.0736
     11 C          -0.3429  -17.6615   20.0792 C.2     1  UNL1       -0.0197
     12 C          -0.9026  -16.3674   20.5911 C.2     1  UNL1       -0.0041
     13 C          -2.1100  -16.3723   21.4810 C.2     1  UNL1        0.0026
     14 C          -2.7579  -17.6713   21.8590 C.2     1  UNL1        0.0397
     15 C          -8.0898  -15.0302   24.1254 C.3     1  UNL1        0.1621
     16 C          -9.8486  -16.5032   22.9060 C.2     1  UNL1        0.4017
     17 O          -9.1957  -16.1946   21.5913 O.2     1  UNL1       -0.2264
     18 N          -9.2957  -15.9210   24.1730 N.am    1  UNL1       -0.2634
     19 H          -9.7243  -16.1235   25.0359 H       1  UNL1        0.1532
     20 O         -11.0546  -17.3939   22.9536 O.3     1  UNL1       -0.4419
     21 C         -12.1026  -18.0031   21.2127 C.3     1  UNL1        0.0437
     22 C         -11.0977  -18.6430   22.1242 C.3     1  UNL1        0.1378
     23 C         -10.0927  -19.2829   23.0356 C.3     1  UNL1        0.0437
     24 C         -11.1407  -19.8921   21.2948 C.3     1  UNL1        0.0437
@<TRIPOS>BOND
     1    21    22    1
     2    22    23    1
     3    22    24    1
     4    22    20    1
     5    20    16    1
     6    16    17    2
     7    16    18   am
     8    18    15    1
     9    15     1    1
    10     1     2   ar
    11     2     3   ar
    12     3     4   ar
    13     4     6    1
    14     6     7    2
    15     7     8    1
    16     8     9    2
    17     9    10    1
    18    10    11    1
    19    11    12    2
    20    12    13    1
    21    13    14    2
    22     4     5   ar
    23     5     1   ar
    24    14     6    1
    25    14     9    1
    26    18    19    1
@<TRIPOS>MOLECULE
*****
 24 26 0 0 0
SMALL
GASTEIGER

@<TRIPOS>ATOM
      1 C          -9.3764  -17.8130   21.2539 C.ar    1  UNL1        0.2007
      2 N          -9.6607  -18.5596   19.9843 N.ar    1  UNL1       -0.0584
      3 O          -8.4062  -19.2727   19.5750 O.2     1  UNL1       -0.3310
      4 C          -7.3465  -18.9669   20.5916 C.ar    1  UNL1        0.2793
      5 N          -7.9461  -18.0648   21.6292 N.ar    1  UNL1       -0.1880
      6 C          -5.9349  -19.4742   20.5737 C.2     1  UNL1        0.1598
      7 N          -5.4074  -20.5830   19.7122 N.2     1  UNL1       -0.1434
      8 N          -3.9496  -20.7557   20.0203 N.2     1  UNL1       -0.1519
      9 C          -3.5761  -19.7537   21.0721 C.2     1  UNL1        0.0865
     10 C          -2.2773  -19.4601   21.7626 C.3     1  UNL1        0.0736
     11 C          -2.2055  -18.3745   22.7951 C.2     1  UNL1       -0.0197
     12 C          -3.4325  -17.5824   23.1372 C.2     1  UNL1       -0.0041
     13 C          -4.7314  -17.8759   22.4467 C.2     1  UNL1        0.0026
     14 C          -4.8032  -18.9616   21.4141 C.2     1  UNL1        0.0397
     15 C         -10.3512  -16.9639   22.0146 C.3     1  UNL1        0.1621
     16 C          -9.3857  -16.3061   24.3352 C.2     1  UNL1        0.4017
     17 O          -9.4199  -17.7451   24.7573 O.2     1  UNL1       -0.2264
     18 N          -9.8513  -15.9155   22.9638 N.am    1  UNL1       -0.2634
     19 H          -9.8288  -14.9711   22.6867 H       1  UNL1        0.1532
     20 O          -8.8858  -15.2577   25.2844 O.3     1  UNL1       -0.4419
     21 C          -8.2158  -15.5780   27.2715 C.3     1  UNL1        0.0437
     22 C          -7.5456  -15.4165   25.9393 C.3     1  UNL1        0.1378
     23 C          -6.8756  -15.2549   24.6071 C.3     1  UNL1        0.0437
     24 C          -6.2056  -15.5752   26.5941 C.3     1  UNL1        0.0437
@<TRIPOS>BOND
     1    21    22    1
     2    22    23    1
     3    22    24    1
     4    22    20    1
     5    20    16    1
     6    16    17    2
     7    16    18   am
     8    18    15    1
     9    15     1    1
    10     1     2   ar
    11     2     3   ar
    12     3     4   ar
    13     4     6    1
    14     6     7    2
    15     7     8    1
    16     8     9    2
    17     9    10    1
    18    10    11    1
    19    11    12    2
    20    12    13    1
    21    13    14    2
    22     4     5   ar
    23     5     1   ar
    24    14     6    1
    25    14     9    1
    26    18    19    1
@<TRIPOS>MOLECULE
*****
 24 26 0 0 0
SMALL
GASTEIGER

@<TRIPOS>ATOM
      1 C          -5.7113  -15.9746   23.9099 C.ar    1  UNL1        0.2007
      2 N          -6.2052  -15.3180   25.1650 N.ar    1  UNL1       -0.0584
      3 O          -7.6468  -15.6906   25.3466 O.2     1  UNL1       -0.3310
      4 C          -8.0439  -16.5774   24.2038 C.ar    1  UNL1        0.2793
      5 N          -6.8477  -16.7529   23.3160 N.ar    1  UNL1       -0.1880
      6 C          -9.3992  -17.1825   23.9871 C.2     1  UNL1        0.1598
      7 N         -10.0963  -18.1375   24.9101 N.2     1  UNL1       -0.1434
      8 N         -11.4233  -18.4840   24.3027 N.2     1  UNL1       -0.1519
      9 C         -11.5463  -17.7432   23.0042 C.2     1  UNL1        0.0865
     10 C         -12.6358  -17.6971   21.9743 C.3     1  UNL1        0.0736
     11 C         -12.4744  -16.8467   20.7493 C.2     1  UNL1       -0.0197
     12 C         -11.2234  -16.0424   20.5542 C.2     1  UNL1       -0.0041
     13 C         -10.1339  -16.0884   21.5841 C.2     1  UNL1        0.0026
     14 C         -10.2954  -16.9388   22.8091 C.2     1  UNL1        0.0397
     15 C          -4.3246  -15.8709   23.3477 C.3     1  UNL1        0.1621
     16 C          -2.4599  -16.8692   21.8389 C.2     1  UNL1        0.4017
     17 O          -1.8302  -15.5130   21.7198 O.2     1  UNL1       -0.2264
     18 N          -3.7071  -17.0482   22.6529 N.am    1  UNL1       -0.2634
     19 H          -4.1204  -17.9383   22.7310 H       1  UNL1        0.1532
     20 O          -1.8424  -18.0465   21.1441 O.3     1  UNL1       -0.4419
     21 C          -2.7970  -17.9621   19.2516 C.3     1  UNL1        0.0437
     22 C          -2.7017  -18.9825   20.3469 C.3     1  UNL1        0.1378
     23 C          -2.6063  -20.0028   21.4423 C.3     1  UNL1        0.0437
     24 C          -3.5610  -19.9184   19.5498 C.3     1  UNL1        0.0437
@<TRIPOS>BOND
     1    21    22    1
     2    22    23    1
     3    22    24    1
     4    22    20    1
     5    20    16    1
     6    16    17    2
     7    16    18   am
     8    18    15    1
     9    15     1    1
    10     1     2   ar
    11     2     3   ar
    12     3     4   ar
    13     4     6    1
    14     6     7    2
    15     7     8    1
    16     8     9    2
    17     9    10    1
    18    10    11    1
    19    11    12    2
    20    12    13    1
    21    13    14    2
    22     4     5   ar
    23     5     1   ar
    24    14     6    1
    25    14     9    1
    26    18    19    1
@<TRIPOS>MOLECULE
*****
 24 26 0 0 0
SMALL
GASTEIGER

@<TRIPOS>ATOM
      1 C          -7.5141  -15.8828   24.4745 C.ar    1  UNL1        0.2007
      2 N          -6.4481  -15.3985   25.4123 N.ar    1  UNL1       -0.0584
      3 O          -5.1382  -15.9742   24.9621 O.2     1  UNL1       -0.3310
      4 C          -5.3945  -16.8142   23.7461 C.ar    1  UNL1        0.2793
      5 N          -6.8628  -16.7577   23.4448 N.ar    1  UNL1       -0.1880
      6 C          -4.3634  -17.5768   22.9680 C.2     1  UNL1        0.1598
      7 N          -2.8805  -17.3569   23.0179 N.2     1  UNL1       -0.1434
      8 N          -2.2349  -18.3373   22.0842 N.2     1  UNL1       -0.1519
      9 C          -3.3188  -19.1632   21.4572 C.2     1  UNL1        0.0865
     10 C          -3.2779  -20.2825   20.4595 C.3     1  UNL1        0.0736
     11 C          -4.5525  -20.9317   20.0081 C.2     1  UNL1       -0.0197
     12 C          -5.8680  -20.4616   20.5543 C.2     1  UNL1       -0.0041
     13 C          -5.9089  -19.3423   21.5520 C.2     1  UNL1        0.0026
     14 C          -4.6343  -18.6931   22.0035 C.2     1  UNL1        0.0397
     15 C          -8.9746  -15.5505   24.5528 C.3     1  UNL1        0.1621
     16 C         -10.3886  -17.6671   24.0323 C.2     1  UNL1        0.4017
     17 O          -9.8390  -18.3355   25.2576 O.2     1  UNL1       -0.2264
     18 N          -9.9564  -16.2746   23.6799 N.am    1  UNL1       -0.2634
     19 H         -10.3170  -15.8359   22.8758 H       1  UNL1        0.1532
     20 O         -11.3703  -18.3911   23.1595 O.3     1  UNL1       -0.4419
     21 C          -9.9825  -19.3793   21.8956 C.3     1  UNL1        0.0437
     22 C         -11.1478  -18.4604   21.6776 C.3     1  UNL1        0.1378
     23 C         -12.3132  -17.5414   21.4598 C.3     1  UNL1        0.0437
     24 C         -10.9254  -18.5296   20.1959 C.3     1  UNL1        0.0437
@<TRIPOS>BOND
     1    21    22    1
     2    22    23    1
     3    22    24    1
     4    22    20    1
     5    20    16    1
     6    16    17    2
     7    16    18   am
     8    18    15    1
     9    15     1    1
    10     1     2   ar
    11     2     3   ar
    12     3     4   ar
    13     4     6    1
    14     6     7    2
    15     7     8    1
    16     8     9    2
    17     9    10    1
    18    10    11    1
    19    11    12    2
    20    12    13    1
    21    13    14    2
    22     4     5   ar
    23     5     1   ar
    24    14     6    1
    25    14     9    1
    26    18    19    1
@<TRIPOS>MOLECULE
*****
 24 26 0 0 0
SMALL
GASTEIGER

@<TRIPOS>ATOM
      1 C          -8.3453  -18.0274   21.2838 C.ar    1  UNL1        0.2007
      2 N          -8.3917  -19.0088   20.1503 N.ar    1  UNL1       -0.0584
      3 O          -7.0101  -19.5601   19.9574 O.2     1  UNL1       -0.3310
      4 C          -6.1097  -18.9194   20.9718 C.ar    1  UNL1        0.2793
      5 N          -6.9348  -17.9723   21.7914 N.ar    1  UNL1       -0.1880
      6 C          -4.6418  -19.1802   21.1373 C.2     1  UNL1        0.1598
      7 N          -4.0112  -20.0242   22.2050 N.2     1  UNL1       -0.1434
      8 N          -2.5265  -20.0084   21.9917 N.2     1  UNL1       -0.1519
      9 C          -2.2396  -19.1546   20.7922 C.2     1  UNL1        0.0865
     10 C          -0.9568  -18.7772   20.1126 C.3     1  UNL1        0.0736
     11 C          -0.9813  -17.8879   18.9049 C.2     1  UNL1       -0.0197
     12 C          -2.2887  -17.3760   18.3768 C.2     1  UNL1       -0.0041
     13 C          -3.5715  -17.7535   19.0565 C.2     1  UNL1        0.0026
     14 C          -3.5469  -18.6428   20.2641 C.2     1  UNL1        0.0397
     15 C          -9.5054  -17.2397   21.8161 C.3     1  UNL1        0.1621
     16 C          -9.1173  -16.5028   24.2770 C.2     1  UNL1        0.4017
     17 O          -9.1898  -17.9348   24.7173 O.2     1  UNL1       -0.2264
     18 N          -9.2751  -16.1552   22.8264 N.am    1  UNL1       -0.2634
     19 H          -9.2275  -15.2152   22.5375 H       1  UNL1        0.1532
     20 O          -8.8870  -15.4183   25.2874 O.3     1  UNL1       -0.4419
     21 C          -6.8297  -15.1524   24.8435 C.3     1  UNL1        0.0437
     22 C          -7.6218  -15.4000   26.0930 C.3     1  UNL1        0.1378
     23 C          -8.4140  -15.6475   27.3425 C.3     1  UNL1        0.0437
     24 C          -6.3568  -15.3817   26.8987 C.3     1  UNL1        0.0437
@<TRIPOS>BOND
     1    21    22    1
     2    22    23    1
     3    22    24    1
     4    22    20    1
     5    20    16    1
     6    16    17    2
     7    16    18   am
     8    18    15    1
     9    15     1    1
    10     1     2   ar
    11     2     3   ar
    12     3     4   ar
    13     4     6    1
    14     6     7    2
    15     7     8    1
    16     8     9    2
    17     9    10    1
    18    10    11    1
    19    11    12    2
    20    12    13    1
    21    13    14    2
    22     4     5   ar
    23     5     1   ar
    24    14     6    1
    25    14     9    1
    26    18    19    1
@<TRIPOS>MOLECULE
*****
 24 26 0 0 0
SMALL
GASTEIGER

@<TRIPOS>ATOM
      1 C          -7.2447  -17.3626   23.2306 C.ar    1  UNL1        0.2007
      2 N          -7.8620  -18.7024   22.9587 N.ar    1  UNL1       -0.0584
      3 O          -6.8561  -19.5352   22.2207 O.2     1  UNL1       -0.3310
      4 C          -5.6170  -18.7101   22.0365 C.ar    1  UNL1        0.2793
      5 N          -5.8572  -17.3675   22.6606 N.ar    1  UNL1       -0.1880
      6 C          -4.3587  -19.1504   21.3489 C.2     1  UNL1        0.1598
      7 N          -4.1075  -20.5032   20.7515 N.2     1  UNL1       -0.1434
      8 N          -2.7243  -20.5041   20.1714 N.2     1  UNL1       -0.1519
      9 C          -2.1206  -19.1519   20.4102 C.2     1  UNL1        0.0865
     10 C          -0.7815  -18.5743   20.0590 C.3     1  UNL1        0.0736
     11 C          -0.4527  -17.1601   20.4356 C.2     1  UNL1       -0.0197
     12 C          -1.4629  -16.3235   21.1633 C.2     1  UNL1       -0.0041
     13 C          -2.8019  -16.9010   21.5145 C.2     1  UNL1        0.0026
     14 C          -3.1307  -18.3152   21.1380 C.2     1  UNL1        0.0397
     15 C          -7.8997  -16.2190   23.9467 C.3     1  UNL1        0.1621
     16 C         -10.1159  -15.9974   22.6090 C.2     1  UNL1        0.4017
     17 O          -9.3467  -16.0656   21.3231 O.2     1  UNL1       -0.2264
     18 N          -9.3925  -16.0741   23.9208 N.am    1  UNL1       -0.2634
     19 H          -9.8974  -16.0294   24.7648 H       1  UNL1        0.1532
     20 O         -11.6087  -15.8526   22.5831 O.3     1  UNL1       -0.4419
     21 C         -12.4293  -17.5850   23.4918 C.3     1  UNL1        0.0437
     22 C         -12.4649  -16.9917   22.1145 C.3     1  UNL1        0.1378
     23 C         -12.5004  -16.3983   20.7373 C.3     1  UNL1        0.0437
     24 C         -13.3210  -18.1306   21.6459 C.3     1  UNL1        0.0437
@<TRIPOS>BOND
     1    21    22    1
     2    22    23    1
     3    22    24    1
     4    22    20    1
     5    20    16    1
     6    16    17    2
     7    16    18   am
     8    18    15    1
     9    15     1    1
    10     1     2   ar
    11     2     3   ar
    12     3     4   ar
    13     4     6    1
    14     6     7    2
    15     7     8    1
    16     8     9    2
    17     9    10    1
    18    10    11    1
    19    11    12    2
    20    12    13    1
    21    13    14    2
    22     4     5   ar
    23     5     1   ar
    24    14     6    1
    25    14     9    1
    26    18    19    1
