@<TRIPOS>MOLECULE
*****
 30 33 0 0 0
SMALL
GASTEIGER

@<TRIPOS>ATOM
      1 C           1.3070    0.8463   21.9311 C.2     1  UNL1        0.0294
      2 C           0.5180    1.7991   21.0829 C.2     1  UNL1        0.2320
      3 N          -0.4239    2.7728   21.7268 N.2     1  UNL1       -0.0311
      4 C          -0.5769    2.7937   23.2188 C.2     1  UNL1        0.3720
      5 N          -1.4220    3.6343   24.1295 N.2     1  UNL1       -0.0308
      6 C          -1.1553    3.2009   25.5405 C.2     1  UNL1        0.2359
      7 C          -0.1453    2.0925   25.5019 C.2     1  UNL1        0.0521
      8 C           0.2121    1.8408   24.0670 C.2     1  UNL1        0.0744
      9 C           1.1541    0.8671   23.4232 C.3     1  UNL1        0.0645
     10 C           0.4097    1.3636   26.6896 C.ar    1  UNL1        0.0229
     11 C          -0.5176    0.6844   27.6533 C.ar    1  UNL1        0.0045
     12 C           0.0375   -0.0445   28.8411 C.ar    1  UNL1        0.0339
     13 C           1.5198   -0.0941   29.0652 C.ar    1  UNL1        0.1254
     14 N           2.0748   -0.8229   30.2529 N.pl3   1  UNL1       -0.3426
     15 N           2.4471    0.5852   28.1014 N.ar    1  UNL1       -0.2296
     16 C           1.8920    1.3140   26.9137 C.ar    1  UNL1        0.1004
     17 H           1.4662   -1.2687   30.8854 H       1  UNL1        0.1437
     18 H           3.0477   -0.8554   30.3999 H       1  UNL1        0.1437
     19 C           3.9453   -2.0852   21.4878 C.ar    1  UNL1        0.1754
     20 C           3.0033   -1.1114   22.1316 C.ar    1  UNL1        0.0401
     21 C           2.2491   -0.1275   21.2873 C.ar    1  UNL1        0.0063
     22 C           2.4368   -0.1172   19.7991 C.ar    1  UNL1        0.0401
     23 C           3.3788   -1.0909   19.1553 C.ar    1  UNL1        0.1754
     24 C           4.1331   -2.0749   19.9996 C.ar    1  UNL1        0.2061
     25 C           4.9858   -2.7581   23.7713 C.3     1  UNL1        0.2526
     26 O           4.6996   -3.0691   22.3321 O.3     1  UNL1       -0.4683
     27 O           3.5665   -1.0807   17.6671 O.3     1  UNL1       -0.4683
     28 C           4.7199   -0.3368   17.0618 C.3     1  UNL1        0.2526
     29 O           5.0750   -3.0486   19.3558 O.3     1  UNL1       -0.4654
     30 C           4.5822   -4.4004   18.9319 C.3     1  UNL1        0.2528
@<TRIPOS>BOND
     1    25    26    1
     2    26    19    1
     3    19    20   ar
     4    20    21   ar
     5    21     1    1
     6     1     2    2
     7     2     3    1
     8     3     4    2
     9     4     5    1
    10     5     6    2
    11     6     7    1
    12     7    10    1
    13    10    11   ar
    14    11    12   ar
    15    12    13   ar
    16    13    14    1
    17    13    15   ar
    18    15    16   ar
    19     7     8    2
    20     8     9    1
    21    21    22   ar
    22    22    23   ar
    23    23    27    1
    24    27    28    1
    25    23    24   ar
    26    24    29    1
    27    29    30    1
    28    24    19   ar
    29     9     1    1
    30     8     4    1
    31    16    10   ar
    32    14    17    1
    33    14    18    1
@<TRIPOS>MOLECULE
*****
 30 33 0 0 0
SMALL
GASTEIGER

@<TRIPOS>ATOM
      1 C           1.2978    0.8563   21.9502 C.2     1  UNL1        0.0294
      2 C           0.5097    1.8123   21.1045 C.2     1  UNL1        0.2320
      3 N          -0.4287    2.7875   21.7512 N.2     1  UNL1       -0.0311
      4 C          -0.5792    2.8067   23.2435 C.2     1  UNL1        0.3720
      5 N          -1.4207    3.6482   24.1567 N.2     1  UNL1       -0.0308
      6 C          -1.1527    3.2123   25.5667 C.2     1  UNL1        0.2359
      7 C          -0.1456    2.1014   25.5250 C.2     1  UNL1        0.0521
      8 C           0.2088    1.8508   24.0892 C.2     1  UNL1        0.0744
      9 C           1.1473    0.8756   23.4425 C.3     1  UNL1        0.0645
     10 C           0.4096    1.3697   26.7108 C.ar    1  UNL1        0.0229
     11 C          -0.5173    0.6838   27.6702 C.ar    1  UNL1        0.0045
     12 C           0.0379   -0.0480   28.8561 C.ar    1  UNL1        0.0339
     13 C           1.5199   -0.0939   29.0826 C.ar    1  UNL1        0.1254
     14 N           2.0751   -0.8257   30.2684 N.pl3   1  UNL1       -0.3426
     15 N           2.4468    0.5919   28.1232 N.ar    1  UNL1       -0.2296
     16 C           1.8916    1.3237   26.9373 C.ar    1  UNL1        0.1004
     17 H           1.4668   -1.2758   30.8981 H       1  UNL1        0.1437
     18 H           3.0479   -0.8558   30.4171 H       1  UNL1        0.1437
     19 C           3.3676   -1.0759   19.1694 C.ar    1  UNL1        0.1754
     20 C           2.4291   -0.1007   19.8161 C.ar    1  UNL1        0.0401
     21 C           2.2363   -0.1189   21.3035 C.ar    1  UNL1        0.0063
     22 C           2.9820   -1.1124   22.1443 C.ar    1  UNL1        0.0401
     23 C           3.9205   -2.0876   21.4978 C.ar    1  UNL1        0.1754
     24 C           4.1133   -2.0694   20.0103 C.ar    1  UNL1        0.2061
     25 C           4.7273   -0.3275   17.0859 C.3     1  UNL1        0.2526
     26 O           3.5605   -1.0577   17.6820 O.3     1  UNL1       -0.4683
     27 O           4.6661   -3.0811   22.3386 O.3     1  UNL1       -0.4683
     28 C           4.9993   -2.7564   23.7647 C.3     1  UNL1        0.2526
     29 O           5.0518   -3.0446   19.3637 O.3     1  UNL1       -0.4654
     30 C           4.5528   -4.3913   18.9307 C.3     1  UNL1        0.2528
@<TRIPOS>BOND
     1    25    26    1
     2    26    19    1
     3    19    20   ar
     4    20    21   ar
     5    21     1    1
     6     1     2    2
     7     2     3    1
     8     3     4    2
     9     4     5    1
    10     5     6    2
    11     6     7    1
    12     7    10    1
    13    10    11   ar
    14    11    12   ar
    15    12    13   ar
    16    13    14    1
    17    13    15   ar
    18    15    16   ar
    19     7     8    2
    20     8     9    1
    21    21    22   ar
    22    22    23   ar
    23    23    27    1
    24    27    28    1
    25    23    24   ar
    26    24    29    1
    27    29    30    1
    28    24    19   ar
    29     9     1    1
    30     8     4    1
    31    16    10   ar
    32    14    17    1
    33    14    18    1
@<TRIPOS>MOLECULE
*****
 30 33 0 0 0
SMALL
GASTEIGER

@<TRIPOS>ATOM
      1 C          -4.8796  -16.7835   23.7175 C.2     1  UNL1        0.0294
      2 C          -4.1866  -16.2599   24.9404 C.2     1  UNL1        0.2320
      3 N          -4.9921  -15.7516   26.0991 N.2     1  UNL1       -0.0311
      4 C          -6.4906  -15.7668   26.0350 C.2     1  UNL1        0.3720
      5 N          -7.5416  -15.3343   27.0140 N.2     1  UNL1       -0.0308
      6 C          -8.8842  -15.5906   26.3962 C.2     1  UNL1        0.2359
      7 C          -8.6630  -16.1815   25.0353 C.2     1  UNL1        0.0521
      8 C          -7.1837  -16.2904   24.8121 C.2     1  UNL1        0.0744
      9 C          -6.3782  -16.7988   23.6534 C.3     1  UNL1        0.0645
     10 C          -9.7331  -16.5915   24.0676 C.ar    1  UNL1        0.0229
     11 C         -10.5695  -17.8055   24.3444 C.ar    1  UNL1        0.0045
     12 C         -11.6397  -18.2156   23.3766 C.ar    1  UNL1        0.0339
     13 C         -11.8736  -17.4116   22.1321 C.ar    1  UNL1        0.1254
     14 N         -12.9438  -17.8216   21.1643 N.pl3   1  UNL1       -0.3426
     15 N         -11.0372  -16.1976   21.8553 N.ar    1  UNL1       -0.2296
     16 C          -9.9670  -15.7876   22.8230 C.ar    1  UNL1        0.1004
     17 H         -13.4927  -18.6184   21.3460 H       1  UNL1        0.1437
     18 H         -13.0973  -17.2939   20.3475 H       1  UNL1        0.1437
     19 C          -2.0062  -17.0969   20.9980 C.ar    1  UNL1        0.1754
     20 C          -2.8117  -16.5885   22.1568 C.ar    1  UNL1        0.0401
     21 C          -4.0741  -17.2918   22.5586 C.ar    1  UNL1        0.0063
     22 C          -4.5312  -18.5035   21.8017 C.ar    1  UNL1        0.0401
     23 C          -3.7258  -19.0118   20.6429 C.ar    1  UNL1        0.1754
     24 C          -2.4632  -18.3086   20.2410 C.ar    1  UNL1        0.2061
     25 C           0.5088  -17.1820   20.3518 C.3     1  UNL1        0.2526
     26 O          -0.7437  -16.3936   20.5962 O.3     1  UNL1       -0.4683
     27 O          -4.1829  -20.2235   19.8859 O.3     1  UNL1       -0.4683
     28 C          -5.4876  -20.8770   20.2336 C.3     1  UNL1        0.2526
     29 O          -1.6578  -18.8169   19.0822 O.3     1  UNL1       -0.4654
     30 C          -1.6746  -18.0793   17.7762 C.3     1  UNL1        0.2528
@<TRIPOS>BOND
     1    25    26    1
     2    26    19    1
     3    19    20   ar
     4    20    21   ar
     5    21     1    1
     6     1     2    2
     7     2     3    1
     8     3     4    2
     9     4     5    1
    10     5     6    2
    11     6     7    1
    12     7    10    1
    13    10    11   ar
    14    11    12   ar
    15    12    13   ar
    16    13    14    1
    17    13    15   ar
    18    15    16   ar
    19     7     8    2
    20     8     9    1
    21    21    22   ar
    22    22    23   ar
    23    23    27    1
    24    27    28    1
    25    23    24   ar
    26    24    29    1
    27    29    30    1
    28    24    19   ar
    29     9     1    1
    30     8     4    1
    31    16    10   ar
    32    14    17    1
    33    14    18    1
@<TRIPOS>MOLECULE
*****
 30 33 0 0 0
SMALL
GASTEIGER

@<TRIPOS>ATOM
      1 C          -4.8703  -16.7823   23.7330 C.2     1  UNL1        0.0294
      2 C          -4.1818  -16.2569   24.9577 C.2     1  UNL1        0.2320
      3 N          -4.9917  -15.7444   26.1116 N.2     1  UNL1       -0.0311
      4 C          -6.4899  -15.7573   26.0407 C.2     1  UNL1        0.3720
      5 N          -7.5446  -15.3205   27.0140 N.2     1  UNL1       -0.0308
      6 C          -8.8848  -15.5759   26.3906 C.2     1  UNL1        0.2359
      7 C          -8.6585  -16.1705   25.0322 C.2     1  UNL1        0.0521
      8 C          -7.1784  -16.2826   24.8160 C.2     1  UNL1        0.0744
      9 C          -6.3686  -16.7951   23.6621 C.3     1  UNL1        0.0645
     10 C          -9.7250  -16.5809   24.0606 C.ar    1  UNL1        0.0229
     11 C         -10.5738  -17.7850   24.3431 C.ar    1  UNL1        0.0045
     12 C         -11.6403  -18.1954   23.3715 C.ar    1  UNL1        0.0339
     13 C         -11.8581  -17.4019   22.1174 C.ar    1  UNL1        0.1254
     14 N         -12.9246  -17.8124   21.1458 N.pl3   1  UNL1       -0.3426
     15 N         -11.0093  -16.1979   21.8349 N.ar    1  UNL1       -0.2296
     16 C          -9.9427  -15.7874   22.8065 C.ar    1  UNL1        0.1004
     17 H         -13.4817  -18.6026   21.3312 H       1  UNL1        0.1437
     18 H         -13.0675  -17.2915   20.3226 H       1  UNL1        0.1437
     19 C          -3.6891  -19.0387   20.6893 C.ar    1  UNL1        0.1754
     20 C          -4.4990  -18.5262   21.8433 C.ar    1  UNL1        0.0401
     21 C          -4.0605  -17.2948   22.5790 C.ar    1  UNL1        0.0063
     22 C          -2.8121  -16.5759   22.1608 C.ar    1  UNL1        0.0401
     23 C          -2.0023  -17.0884   21.0069 C.ar    1  UNL1        0.1754
     24 C          -2.4408  -18.3198   20.2711 C.ar    1  UNL1        0.2061
     25 C          -5.4812  -20.8598   20.2183 C.3     1  UNL1        0.2526
     26 O          -4.1277  -20.2701   19.9536 O.3     1  UNL1       -0.4683
     27 O          -0.7540  -16.3695   20.5888 O.3     1  UNL1       -0.4683
     28 C           0.5202  -17.1347   20.3867 C.3     1  UNL1        0.2526
     29 O          -1.6310  -18.8323   19.1172 O.3     1  UNL1       -0.4654
     30 C          -1.6247  -18.0868   17.8157 C.3     1  UNL1        0.2528
@<TRIPOS>BOND
     1    25    26    1
     2    26    19    1
     3    19    20   ar
     4    20    21   ar
     5    21     1    1
     6     1     2    2
     7     2     3    1
     8     3     4    2
     9     4     5    1
    10     5     6    2
    11     6     7    1
    12     7    10    1
    13    10    11   ar
    14    11    12   ar
    15    12    13   ar
    16    13    14    1
    17    13    15   ar
    18    15    16   ar
    19     7     8    2
    20     8     9    1
    21    21    22   ar
    22    22    23   ar
    23    23    27    1
    24    27    28    1
    25    23    24   ar
    26    24    29    1
    27    29    30    1
    28    24    19   ar
    29     9     1    1
    30     8     4    1
    31    16    10   ar
    32    14    17    1
    33    14    18    1
@<TRIPOS>MOLECULE
*****
 30 33 0 0 0
SMALL
GASTEIGER

@<TRIPOS>ATOM
      1 C           4.7989   -2.4404   23.7042 C.2     1  UNL1        0.0294
      2 C           5.6228   -3.6796   23.5157 C.2     1  UNL1        0.2320
      3 N           5.7230   -4.3146   22.1605 N.2     1  UNL1       -0.0311
      4 C           4.9992   -3.7105   20.9938 C.2     1  UNL1        0.3720
      5 N           4.9114   -4.1105   19.5507 N.2     1  UNL1       -0.0308
      6 C           4.0332   -3.1184   18.8474 C.2     1  UNL1        0.2359
      7 C           3.5783   -2.1054   19.8558 C.2     1  UNL1        0.0521
      8 C           4.1753   -2.4713   21.1823 C.2     1  UNL1        0.0744
      9 C           4.0752   -1.8363   22.5375 C.3     1  UNL1        0.0645
     10 C           2.6834   -0.9324   19.5852 C.ar    1  UNL1        0.0229
     11 C           1.3729   -0.8071   20.3042 C.ar    1  UNL1        0.0045
     12 C           0.4781    0.3659   20.0336 C.ar    1  UNL1        0.0339
     13 C           0.8936    1.4137   19.0440 C.ar    1  UNL1        0.1254
     14 N          -0.0012    2.5867   18.7734 N.pl3   1  UNL1       -0.3426
     15 N           2.2041    1.2884   18.3249 N.ar    1  UNL1       -0.2296
     16 C           3.0989    0.1154   18.5956 C.ar    1  UNL1        0.1004
     17 H          -0.8613    2.6689   19.2453 H       1  UNL1        0.1437
     18 H           0.2715    3.2744   18.1238 H       1  UNL1        0.1437
     19 C           3.4450   -0.2670   26.7363 C.ar    1  UNL1        0.1754
     20 C           3.5452   -0.9021   25.3811 C.ar    1  UNL1        0.0401
     21 C           4.6988   -1.8053   25.0595 C.ar    1  UNL1        0.0063
     22 C           5.7522   -2.0734   26.0931 C.ar    1  UNL1        0.0401
     23 C           5.6521   -1.4384   27.4483 C.ar    1  UNL1        0.1754
     24 C           4.4985   -0.5352   27.7699 C.ar    1  UNL1        0.2061
     25 C           1.5369    1.3120   25.9516 C.3     1  UNL1        0.2526
     26 O           2.2914    0.6362   27.0579 O.3     1  UNL1       -0.4683
     27 O           6.7055   -1.7065   28.4819 O.3     1  UNL1       -0.4683
     28 C           6.4971   -2.7856   29.5028 C.3     1  UNL1        0.2526
     29 O           4.3983    0.0999   29.1252 O.3     1  UNL1       -0.4654
     30 C           3.5365   -0.5227   30.1833 C.3     1  UNL1        0.2528
@<TRIPOS>BOND
     1    25    26    1
     2    26    19    1
     3    19    20   ar
     4    20    21   ar
     5    21     1    1
     6     1     2    2
     7     2     3    1
     8     3     4    2
     9     4     5    1
    10     5     6    2
    11     6     7    1
    12     7    10    1
    13    10    11   ar
    14    11    12   ar
    15    12    13   ar
    16    13    14    1
    17    13    15   ar
    18    15    16   ar
    19     7     8    2
    20     8     9    1
    21    21    22   ar
    22    22    23   ar
    23    23    27    1
    24    27    28    1
    25    23    24   ar
    26    24    29    1
    27    29    30    1
    28    24    19   ar
    29     9     1    1
    30     8     4    1
    31    16    10   ar
    32    14    17    1
    33    14    18    1
@<TRIPOS>MOLECULE
*****
 30 33 0 0 0
SMALL
GASTEIGER

@<TRIPOS>ATOM
      1 C           4.7023   -2.3146   23.8242 C.2     1  UNL1        0.0294
      2 C           5.5460   -3.5483   23.6975 C.2     1  UNL1        0.2320
      3 N           5.7113   -4.2099   22.3615 N.2     1  UNL1       -0.0311
      4 C           5.0331   -3.6377   21.1522 C.2     1  UNL1        0.3720
      5 N           5.0122   -4.0681   19.7153 N.2     1  UNL1       -0.0308
      6 C           4.1556   -3.1003   18.9540 C.2     1  UNL1        0.2359
      7 C           3.6471   -2.0718   19.9203 C.2     1  UNL1        0.0521
      8 C           4.1894   -2.4040   21.2788 C.2     1  UNL1        0.0744
      9 C           4.0241   -1.7424   22.6148 C.3     1  UNL1        0.0645
     10 C           2.7533   -0.9144   19.5866 C.ar    1  UNL1        0.0229
     11 C           1.4040   -0.7984   20.2317 C.ar    1  UNL1        0.0045
     12 C           0.5102    0.3590   19.8981 C.ar    1  UNL1        0.0339
     13 C           0.9655    1.4005   18.9194 C.ar    1  UNL1        0.1254
     14 N           0.0716    2.5579   18.5857 N.pl3   1  UNL1       -0.3426
     15 N           2.3147    1.2845   18.2743 N.ar    1  UNL1       -0.2296
     16 C           3.2086    0.1271   18.6079 C.ar    1  UNL1        0.1004
     17 H          -0.8140    2.6340   19.0091 H       1  UNL1        0.1437
     18 H           0.3705    3.2415   17.9433 H       1  UNL1        0.1437
     19 C           5.1846   -1.4547   27.6685 C.ar    1  UNL1        0.1754
     20 C           5.3500   -2.1163   26.3324 C.ar    1  UNL1        0.0401
     21 C           4.5369   -1.6529   25.1602 C.ar    1  UNL1        0.0063
     22 C           3.5584   -0.5279   25.3240 C.ar    1  UNL1        0.0401
     23 C           3.3930    0.1337   26.6599 C.ar    1  UNL1        0.1754
     24 C           4.2061   -0.3297   27.8322 C.ar    1  UNL1        0.2061
     25 C           6.6184   -3.2836   28.8300 C.3     1  UNL1        0.2526
     26 O           5.9977   -1.9180   28.8407 O.3     1  UNL1       -0.4683
     27 O           2.4144    1.2587   26.8237 O.3     1  UNL1       -0.4683
     28 C           1.0410    0.9858   27.3617 C.3     1  UNL1        0.2526
     29 O           4.0407    0.3320   29.1682 O.3     1  UNL1       -0.4654
     30 C           3.1427   -0.2800   30.2021 C.3     1  UNL1        0.2528
@<TRIPOS>BOND
     1    25    26    1
     2    26    19    1
     3    19    20   ar
     4    20    21   ar
     5    21     1    1
     6     1     2    2
     7     2     3    1
     8     3     4    2
     9     4     5    1
    10     5     6    2
    11     6     7    1
    12     7    10    1
    13    10    11   ar
    14    11    12   ar
    15    12    13   ar
    16    13    14    1
    17    13    15   ar
    18    15    16   ar
    19     7     8    2
    20     8     9    1
    21    21    22   ar
    22    22    23   ar
    23    23    27    1
    24    27    28    1
    25    23    24   ar
    26    24    29    1
    27    29    30    1
    28    24    19   ar
    29     9     1    1
    30     8     4    1
    31    16    10   ar
    32    14    17    1
    33    14    18    1
@<TRIPOS>MOLECULE
*****
 30 33 0 0 0
SMALL
GASTEIGER

@<TRIPOS>ATOM
      1 C           3.1442    1.7096   34.6572 C.2     1  UNL1        0.0294
      2 C           2.0411    2.5722   34.1195 C.2     1  UNL1        0.2320
      3 N           1.5556    2.3790   32.7135 N.2     1  UNL1       -0.0311
      4 C           2.1732    1.3233   31.8451 C.2     1  UNL1        0.3720
      5 N           1.9047    0.9041   30.4301 N.2     1  UNL1       -0.0308
      6 C           2.8419   -0.2175   30.0932 C.2     1  UNL1        0.2359
      7 C           3.6896   -0.4916   31.3001 C.2     1  UNL1        0.0521
      8 C           3.2762    0.4607   32.3828 C.2     1  UNL1        0.0744
      9 C           3.7617    0.6539   33.7888 C.3     1  UNL1        0.0645
     10 C           4.7622   -1.5348   31.4057 C.ar    1  UNL1        0.0229
     11 C           4.8189   -2.4335   32.6053 C.ar    1  UNL1        0.0045
     12 C           5.8916   -3.4767   32.7109 C.ar    1  UNL1        0.0339
     13 C           6.9076   -3.6212   31.6169 C.ar    1  UNL1        0.1254
     14 N           7.9802   -4.6644   31.7226 N.pl3   1  UNL1       -0.3426
     15 N           6.8509   -2.7225   30.4173 N.ar    1  UNL1       -0.2296
     16 C           5.7782   -1.6793   30.3117 C.ar    1  UNL1        0.1004
     17 H           8.0174   -5.2542   32.5099 H       1  UNL1        0.1437
     18 H           8.6470   -4.7592   31.0045 H       1  UNL1        0.1437
     19 C           3.1346    2.3713   38.5703 C.ar    1  UNL1        0.1754
     20 C           2.6490    2.1782   37.1642 C.ar    1  UNL1        0.0401
     21 C           3.6298    1.9027   36.0632 C.ar    1  UNL1        0.0063
     22 C           5.0961    1.8204   36.3682 C.ar    1  UNL1        0.0401
     23 C           5.5817    2.0135   37.7742 C.ar    1  UNL1        0.1754
     24 C           4.6009    2.2890   38.8753 C.ar    1  UNL1        0.2061
     25 C           0.7684    2.0759   39.6017 C.3     1  UNL1        0.2526
     26 O           2.1538    2.6467   39.6713 O.3     1  UNL1       -0.4683
     27 O           7.0481    1.9312   38.0792 O.3     1  UNL1       -0.4683
     28 C           8.0364    1.7458   36.9661 C.3     1  UNL1        0.2526
     29 O           5.0865    2.4821   40.2813 O.3     1  UNL1       -0.4654
     30 C           5.5712    3.8291   40.7290 C.3     1  UNL1        0.2528
@<TRIPOS>BOND
     1    25    26    1
     2    26    19    1
     3    19    20   ar
     4    20    21   ar
     5    21     1    1
     6     1     2    2
     7     2     3    1
     8     3     4    2
     9     4     5    1
    10     5     6    2
    11     6     7    1
    12     7    10    1
    13    10    11   ar
    14    11    12   ar
    15    12    13   ar
    16    13    14    1
    17    13    15   ar
    18    15    16   ar
    19     7     8    2
    20     8     9    1
    21    21    22   ar
    22    22    23   ar
    23    23    27    1
    24    27    28    1
    25    23    24   ar
    26    24    29    1
    27    29    30    1
    28    24    19   ar
    29     9     1    1
    30     8     4    1
    31    16    10   ar
    32    14    17    1
    33    14    18    1
@<TRIPOS>MOLECULE
*****
 30 33 0 0 0
SMALL
GASTEIGER

@<TRIPOS>ATOM
      1 C           6.0805   -3.6549   23.7511 C.2     1  UNL1        0.0294
      2 C           6.7168   -4.0734   22.4589 C.2     1  UNL1        0.2320
      3 N           7.7833   -5.1281   22.4552 N.2     1  UNL1       -0.0311
      4 C           8.2135   -5.7642   23.7437 C.2     1  UNL1        0.3720
      5 N           9.2321   -6.8221   24.0498 N.2     1  UNL1       -0.0308
      6 C           9.2253   -7.0572   25.5312 C.2     1  UNL1        0.2359
      7 C           8.2025   -6.1447   26.1407 C.2     1  UNL1        0.0521
      8 C           7.5773   -5.3457   25.0359 C.2     1  UNL1        0.0744
      9 C           6.5107   -4.2910   25.0396 C.3     1  UNL1        0.0645
     10 C           7.8644   -6.0483   27.5989 C.ar    1  UNL1        0.0229
     11 C           8.8323   -6.5520   28.6281 C.ar    1  UNL1        0.0045
     12 C           8.4942   -6.4555   30.0863 C.ar    1  UNL1        0.0339
     13 C           7.1882   -5.8553   30.5153 C.ar    1  UNL1        0.1254
     14 N           6.8501   -5.7589   31.9735 N.pl3   1  UNL1       -0.3426
     15 N           6.2203   -5.3516   29.4861 N.ar    1  UNL1       -0.2296
     16 C           6.5584   -5.4480   28.0279 C.ar    1  UNL1        0.1004
     17 H           7.4854   -6.0895   32.6491 H       1  UNL1        0.1437
     18 H           5.9929   -5.3649   32.2551 H       1  UNL1        0.1437
     19 C           3.5751   -0.8596   25.0397 C.ar    1  UNL1        0.1754
     20 C           4.6417   -1.9144   25.0360 C.ar    1  UNL1        0.0401
     21 C           5.0139   -2.6001   23.7549 C.ar    1  UNL1        0.0063
     22 C           4.3195   -2.2311   22.4775 C.ar    1  UNL1        0.0401
     23 C           3.2529   -1.1765   22.4812 C.ar    1  UNL1        0.1754
     24 C           2.8807   -0.4907   23.7624 C.ar    1  UNL1        0.2061
     25 C           3.2795   -0.9193   27.6202 C.3     1  UNL1        0.2526
     26 O           3.2029   -0.1739   26.3208 O.3     1  UNL1       -0.4683
     27 O           2.5585   -0.8075   21.2039 O.3     1  UNL1       -0.4683
     28 C           2.7601   -1.6407   19.9729 C.3     1  UNL1        0.2526
     29 O           1.8142    0.5640   23.7661 O.3     1  UNL1       -0.4654
     30 C           2.1818    2.0031   23.5569 C.3     1  UNL1        0.2528
@<TRIPOS>BOND
     1    25    26    1
     2    26    19    1
     3    19    20   ar
     4    20    21   ar
     5    21     1    1
     6     1     2    2
     7     2     3    1
     8     3     4    2
     9     4     5    1
    10     5     6    2
    11     6     7    1
    12     7    10    1
    13    10    11   ar
    14    11    12   ar
    15    12    13   ar
    16    13    14    1
    17    13    15   ar
    18    15    16   ar
    19     7     8    2
    20     8     9    1
    21    21    22   ar
    22    22    23   ar
    23    23    27    1
    24    27    28    1
    25    23    24   ar
    26    24    29    1
    27    29    30    1
    28    24    19   ar
    29     9     1    1
    30     8     4    1
    31    16    10   ar
    32    14    17    1
    33    14    18    1
@<TRIPOS>MOLECULE
*****
 30 33 0 0 0
SMALL
GASTEIGER

@<TRIPOS>ATOM
      1 C           5.5770   -2.4435   21.4407 C.2     1  UNL1        0.0294
      2 C           6.5428   -3.0594   20.4723 C.2     1  UNL1        0.2320
      3 N           6.3692   -2.8409   18.9986 N.2     1  UNL1       -0.0311
      4 C           5.2298   -2.0065   18.4932 C.2     1  UNL1        0.3720
      5 N           4.8073   -1.6187   17.1071 N.2     1  UNL1       -0.0308
      6 C           3.5803   -0.7631   17.2189 C.2     1  UNL1        0.2359
      7 C           3.2445   -0.6221   18.6740 C.2     1  UNL1        0.0521
      8 C           4.2639   -1.3906   19.4615 C.2     1  UNL1        0.0744
      9 C           4.4376   -1.6091   20.9353 C.3     1  UNL1        0.0645
     10 C           2.0917    0.1515   19.2419 C.ar    1  UNL1        0.0229
     11 C           1.9515    1.6151   18.9446 C.ar    1  UNL1        0.0045
     12 C           0.7987    2.3887   19.5125 C.ar    1  UNL1        0.0339
     13 C          -0.2139    1.6988   20.3777 C.ar    1  UNL1        0.1254
     14 N          -1.3667    2.4725   20.9456 N.pl3   1  UNL1       -0.3426
     15 N          -0.0737    0.2353   20.6750 N.ar    1  UNL1       -0.2296
     16 C           1.0791   -0.5383   20.1071 C.ar    1  UNL1        0.1004
     17 H          -1.4588    3.4330   20.7505 H       1  UNL1        0.1437
     18 H          -2.0314    2.0196   21.5135 H       1  UNL1        0.1437
     19 C           5.3505   -1.8972   25.3651 C.ar    1  UNL1        0.1754
     20 C           5.1769   -1.6787   23.8912 C.ar    1  UNL1        0.0401
     21 C           5.7506   -2.6620   22.9146 C.ar    1  UNL1        0.0063
     22 C           6.4979   -3.8638   23.4117 C.ar    1  UNL1        0.0401
     23 C           6.6715   -4.0823   24.8855 C.ar    1  UNL1        0.1754
     24 C           6.0978   -3.0990   25.8622 C.ar    1  UNL1        0.2061
     25 C           3.5844   -1.2890   27.1709 C.3     1  UNL1        0.2526
     26 O           4.7768   -0.9138   26.3418 O.3     1  UNL1       -0.4683
     27 O           7.4188   -5.2842   25.3826 O.3     1  UNL1       -0.4683
     28 C           8.8852   -5.1845   25.6823 C.3     1  UNL1        0.2526
     29 O           6.2714   -3.3175   27.3360 O.3     1  UNL1       -0.4654
     30 C           7.3966   -2.6463   28.0663 C.3     1  UNL1        0.2528
@<TRIPOS>BOND
     1    25    26    1
     2    26    19    1
     3    19    20   ar
     4    20    21   ar
     5    21     1    1
     6     1     2    2
     7     2     3    1
     8     3     4    2
     9     4     5    1
    10     5     6    2
    11     6     7    1
    12     7    10    1
    13    10    11   ar
    14    11    12   ar
    15    12    13   ar
    16    13    14    1
    17    13    15   ar
    18    15    16   ar
    19     7     8    2
    20     8     9    1
    21    21    22   ar
    22    22    23   ar
    23    23    27    1
    24    27    28    1
    25    23    24   ar
    26    24    29    1
    27    29    30    1
    28    24    19   ar
    29     9     1    1
    30     8     4    1
    31    16    10   ar
    32    14    17    1
    33    14    18    1
