@<TRIPOS>MOLECULE
*****
 30 32 0 0 0
SMALL
GASTEIGER

@<TRIPOS>ATOM
      1 C          -8.4731  -15.9037   22.0142 C.2     1  UNL1        0.2303
      2 O          -8.0056  -14.5093   21.7190 O.2     1  UNL1       -0.2745
      3 N          -9.6945  -16.4453   21.3324 N.am    1  UNL1       -0.2740
      4 C         -10.4484  -15.5926   20.3554 C.3     1  UNL1        0.1152
      5 C          -7.7193  -16.7564   22.9912 C.3     1  UNL1        0.1113
      6 C          -6.0721  -15.7549   24.7330 C.ar    1  UNL1       -0.0061
      7 C          -5.7961  -15.2450   26.1164 C.ar    1  UNL1       -0.0029
      8 C          -6.8910  -15.2268   27.1414 C.ar    1  UNL1       -0.0003
      9 C          -8.2621  -15.7184   26.7831 C.ar    1  UNL1       -0.0003
     10 C          -8.5381  -16.2283   25.3997 C.ar    1  UNL1       -0.0040
     11 C          -7.4432  -16.2465   24.3747 C.ar    1  UNL1       -0.0154
     12 C          -4.9771  -15.7731   23.7080 C.3     1  UNL1        0.1160
     13 C          -2.3162  -18.3098   22.2131 C.3     1  UNL1        0.0946
     14 C          -3.0593  -17.0374   22.4942 C.2     1  UNL1        0.2232
     15 O          -2.6275  -15.7571   21.8428 O.2     1  UNL1       -0.2751
     16 N          -4.2341  -17.0454   23.4268 N.am    1  UNL1       -0.3004
     17 H          -4.5175  -17.8857   23.8543 H       1  UNL1        0.1497
     18 C         -10.1621  -17.8397   21.6277 C.3     1  UNL1        0.1138
     19 C         -11.1847  -18.0768   22.6991 C.ar    1  UNL1       -0.0029
     20 C         -10.7955  -18.7815   23.9647 C.ar    1  UNL1       -0.0026
     21 C         -11.8181  -19.0185   25.0361 C.ar    1  UNL1       -0.0003
     22 C         -13.2301  -18.5509   24.8419 C.ar    1  UNL1       -0.0000
     23 C         -13.6194  -17.8462   23.5763 C.ar    1  UNL1       -0.0003
     24 C         -12.5966  -17.6091   22.5048 C.ar    1  UNL1       -0.0026
     25 C          -9.6070  -18.9970   20.8514 C.3     1  UNL1        0.0967
     26 N          -8.1668  -19.3849   21.0103 N.3     1  UNL1       -0.2710
     27 C          -7.5462  -19.9884   22.2354 C.3     1  UNL1        0.0722
     28 C          -6.0901  -20.2139   21.9543 C.3     1  UNL1        0.0188
     29 C          -5.8108  -19.7497   20.5555 C.3     1  UNL1        0.0188
     30 C          -7.0943  -19.2374   19.9721 C.3     1  UNL1        0.0722
@<TRIPOS>BOND
     1    13    14    1
     2    14    15    2
     3    14    16   am
     4    16    12    1
     5    12     6    1
     6     6     7   ar
     7     7     8   ar
     8     8     9   ar
     9     9    10   ar
    10    10    11   ar
    11    11     5    1
    12     5     1    1
    13     1     2    2
    14     1     3   am
    15     3     4    1
    16     3    18    1
    17    18    25    1
    18    25    26    1
    19    26    27    1
    20    27    28    1
    21    28    29    1
    22    29    30    1
    23    18    19    1
    24    19    20   ar
    25    20    21   ar
    26    21    22   ar
    27    22    23   ar
    28    23    24   ar
    29    11     6   ar
    30    30    26    1
    31    24    19   ar
    32    16    17    1
@<TRIPOS>MOLECULE
*****
 30 32 0 0 0
SMALL
GASTEIGER

@<TRIPOS>ATOM
      1 C          -8.9717  -19.4123   23.6923 C.2     1  UNL1        0.2303
      2 O          -8.9358  -20.8316   24.1765 O.2     1  UNL1       -0.2745
      3 N          -9.8698  -18.4142   24.3609 N.am    1  UNL1       -0.2740
      4 C         -10.7321  -18.8353   25.5138 C.3     1  UNL1        0.1152
      5 C          -8.1094  -18.9911   22.5394 C.3     1  UNL1        0.1113
      6 C          -7.4542  -19.5906   20.0978 C.ar    1  UNL1       -0.0061
      7 C          -7.8523  -19.9435   18.6954 C.ar    1  UNL1       -0.0029
      8 C          -9.3037  -20.0500   18.3320 C.ar    1  UNL1       -0.0003
      9 C         -10.3570  -19.8035   19.3711 C.ar    1  UNL1       -0.0003
     10 C          -9.9589  -19.4505   20.7735 C.ar    1  UNL1       -0.0040
     11 C          -8.5075  -19.3441   21.1369 C.ar    1  UNL1       -0.0154
     12 C          -6.0027  -19.4842   20.4612 C.3     1  UNL1        0.1160
     13 C          -2.7139  -17.8543   18.9522 C.3     1  UNL1        0.0946
     14 C          -3.6154  -18.7704   19.7255 C.2     1  UNL1        0.2232
     15 O          -3.0311  -19.8889   20.5364 O.2     1  UNL1       -0.2751
     16 N          -5.1012  -18.5681   19.6879 N.am    1  UNL1       -0.3004
     17 H          -5.4847  -17.8340   19.1557 H       1  UNL1        0.1497
     18 C          -9.9057  -16.9949   23.8767 C.3     1  UNL1        0.1138
     19 C         -10.5925  -16.6599   22.5860 C.ar    1  UNL1       -0.0029
     20 C         -12.0139  -17.0830   22.3610 C.ar    1  UNL1       -0.0026
     21 C         -12.7008  -16.7480   21.0703 C.ar    1  UNL1       -0.0003
     22 C         -11.9662  -15.9899   20.0045 C.ar    1  UNL1       -0.0000
     23 C         -10.5448  -15.5668   20.2296 C.ar    1  UNL1       -0.0003
     24 C          -9.8580  -15.9018   21.5204 C.ar    1  UNL1       -0.0026
     25 C          -9.2547  -15.9106   24.6833 C.3     1  UNL1        0.0967
     26 N          -7.7589  -15.8135   24.7404 N.3     1  UNL1       -0.2710
     27 C          -6.9353  -15.6064   25.9768 C.3     1  UNL1        0.0722
     28 C          -5.4915  -15.5714   25.5716 C.3     1  UNL1        0.0188
     29 C          -5.4229  -15.7569   24.0846 C.3     1  UNL1        0.0188
     30 C          -6.8242  -15.9065   23.5709 C.3     1  UNL1        0.0722
@<TRIPOS>BOND
     1    13    14    1
     2    14    15    2
     3    14    16   am
     4    16    12    1
     5    12     6    1
     6     6     7   ar
     7     7     8   ar
     8     8     9   ar
     9     9    10   ar
    10    10    11   ar
    11    11     5    1
    12     5     1    1
    13     1     2    2
    14     1     3   am
    15     3     4    1
    16     3    18    1
    17    18    25    1
    18    25    26    1
    19    26    27    1
    20    27    28    1
    21    28    29    1
    22    29    30    1
    23    18    19    1
    24    19    20   ar
    25    20    21   ar
    26    21    22   ar
    27    22    23   ar
    28    23    24   ar
    29    11     6   ar
    30    30    26    1
    31    24    19   ar
    32    16    17    1
@<TRIPOS>MOLECULE
*****
 30 32 0 0 0
SMALL
GASTEIGER

@<TRIPOS>ATOM
      1 C          -9.0306  -19.1418   23.4763 C.2     1  UNL1        0.2303
      2 O          -9.3405  -20.6027   23.6176 O.2     1  UNL1       -0.2745
      3 N          -9.4754  -18.1751   24.5334 N.am    1  UNL1       -0.2740
      4 C         -10.2301  -18.6692   25.7319 C.3     1  UNL1        0.1152
      5 C          -8.2760  -18.6477   22.2778 C.3     1  UNL1        0.1113
      6 C          -7.3911  -19.6500   20.0501 C.ar    1  UNL1       -0.0061
      7 C          -7.6537  -20.2477   18.6997 C.ar    1  UNL1       -0.0029
      8 C          -9.0639  -20.4408   18.2264 C.ar    1  UNL1       -0.0003
      9 C         -10.2115  -20.0363   19.1036 C.ar    1  UNL1       -0.0003
     10 C          -9.9488  -19.4386   20.4540 C.ar    1  UNL1       -0.0040
     11 C          -8.5386  -19.2454   20.9273 C.ar    1  UNL1       -0.0154
     12 C          -5.9808  -19.4568   20.5234 C.3     1  UNL1        0.1160
     13 C          -2.6025  -18.0654   18.9739 C.3     1  UNL1        0.0946
     14 C          -3.5553  -18.9006   19.7768 C.2     1  UNL1        0.2232
     15 O          -3.0354  -20.0149   20.6358 O.2     1  UNL1       -0.2751
     16 N          -5.0281  -18.6216   19.7206 N.am    1  UNL1       -0.3004
     17 H          -5.3693  -17.8902   19.1567 H       1  UNL1        0.1497
     18 C          -9.1656  -16.7142   24.3922 C.3     1  UNL1        0.1138
     19 C          -7.8640  -16.1708   24.9026 C.ar    1  UNL1       -0.0029
     20 C          -6.7271  -15.9322   23.9537 C.ar    1  UNL1       -0.0026
     21 C          -5.4255  -15.3888   24.4642 C.ar    1  UNL1       -0.0003
     22 C          -5.2608  -15.0840   25.9236 C.ar    1  UNL1       -0.0000
     23 C          -6.3978  -15.3226   26.8726 C.ar    1  UNL1       -0.0003
     24 C          -7.6994  -15.8660   26.3620 C.ar    1  UNL1       -0.0026
     25 C         -10.1573  -15.7968   23.7404 C.3     1  UNL1        0.0967
     26 N         -11.0225  -16.2997   22.6231 N.3     1  UNL1       -0.2710
     27 C         -12.2132  -17.2007   22.7669 C.3     1  UNL1        0.0722
     28 C         -12.7756  -17.4477   21.3984 C.3     1  UNL1        0.0188
     29 C         -11.9324  -16.6994   20.4088 C.3     1  UNL1        0.0188
     30 C         -10.8491  -15.9899   21.1657 C.3     1  UNL1        0.0722
@<TRIPOS>BOND
     1    13    14    1
     2    14    15    2
     3    14    16   am
     4    16    12    1
     5    12     6    1
     6     6     7   ar
     7     7     8   ar
     8     8     9   ar
     9     9    10   ar
    10    10    11   ar
    11    11     5    1
    12     5     1    1
    13     1     2    2
    14     1     3   am
    15     3     4    1
    16     3    18    1
    17    18    25    1
    18    25    26    1
    19    26    27    1
    20    27    28    1
    21    28    29    1
    22    29    30    1
    23    18    19    1
    24    19    20   ar
    25    20    21   ar
    26    21    22   ar
    27    22    23   ar
    28    23    24   ar
    29    11     6   ar
    30    30    26    1
    31    24    19   ar
    32    16    17    1
@<TRIPOS>MOLECULE
*****
 30 32 0 0 0
SMALL
GASTEIGER

@<TRIPOS>ATOM
      1 C          -8.4555  -18.8891   23.0046 C.2     1  UNL1        0.2303
      2 O          -8.5573  -20.3681   22.7758 O.2     1  UNL1       -0.2745
      3 N          -9.2821  -18.2369   24.0730 N.am    1  UNL1       -0.2740
      4 C         -10.2103  -19.0636   24.9125 C.3     1  UNL1        0.1152
      5 C          -7.5273  -18.0624   22.1650 C.3     1  UNL1        0.1113
      6 C          -5.6608  -19.2635   20.8146 C.ar    1  UNL1       -0.0061
      7 C          -4.2252  -19.6703   20.6615 C.ar    1  UNL1       -0.0029
      8 C          -3.2204  -19.2828   21.7056 C.ar    1  UNL1       -0.0003
      9 C          -3.6512  -18.4885   22.9029 C.ar    1  UNL1       -0.0003
     10 C          -5.0868  -18.0817   23.0560 C.ar    1  UNL1       -0.0040
     11 C          -6.0916  -18.4692   22.0119 C.ar    1  UNL1       -0.0154
     12 C          -6.6656  -19.6510   19.7705 C.3     1  UNL1        0.1160
     13 C         -10.5904  -19.4138   19.2322 C.3     1  UNL1        0.0946
     14 C          -9.1691  -19.8789   19.1145 C.2     1  UNL1        0.2232
     15 O          -8.8302  -21.0368   18.2232 O.2     1  UNL1       -0.2751
     16 N          -8.0868  -19.1860   19.8881 N.am    1  UNL1       -0.3004
     17 H          -8.3092  -18.4261   20.4731 H       1  UNL1        0.1497
     18 C          -9.1804  -16.7579   24.3018 C.3     1  UNL1        0.1138
     19 C          -8.1017  -16.2085   25.1875 C.ar    1  UNL1       -0.0029
     20 C          -8.2372  -16.2988   26.6787 C.ar    1  UNL1       -0.0026
     21 C          -7.1586  -15.7493   27.5644 C.ar    1  UNL1       -0.0003
     22 C          -5.9444  -15.1095   26.9591 C.ar    1  UNL1       -0.0000
     23 C          -5.8089  -15.0192   25.4679 C.ar    1  UNL1       -0.0003
     24 C          -6.8876  -15.5687   24.5822 C.ar    1  UNL1       -0.0026
     25 C         -10.1573  -15.8284   23.6448 C.3     1  UNL1        0.0967
     26 N         -11.0756  -16.3397   22.5746 N.3     1  UNL1       -0.2710
     27 C         -12.2641  -17.2305   22.7842 C.3     1  UNL1        0.0722
     28 C         -12.8897  -17.4913   21.4460 C.3     1  UNL1        0.0188
     29 C         -12.0877  -16.7616   20.4094 C.3     1  UNL1        0.0188
     30 C         -10.9665  -16.0499   21.1069 C.3     1  UNL1        0.0722
@<TRIPOS>BOND
     1    13    14    1
     2    14    15    2
     3    14    16   am
     4    16    12    1
     5    12     6    1
     6     6     7   ar
     7     7     8   ar
     8     8     9   ar
     9     9    10   ar
    10    10    11   ar
    11    11     5    1
    12     5     1    1
    13     1     2    2
    14     1     3   am
    15     3     4    1
    16     3    18    1
    17    18    25    1
    18    25    26    1
    19    26    27    1
    20    27    28    1
    21    28    29    1
    22    29    30    1
    23    18    19    1
    24    19    20   ar
    25    20    21   ar
    26    21    22   ar
    27    22    23   ar
    28    23    24   ar
    29    11     6   ar
    30    30    26    1
    31    24    19   ar
    32    16    17    1
@<TRIPOS>MOLECULE
*****
 30 32 0 0 0
SMALL
GASTEIGER

@<TRIPOS>ATOM
      1 C          -6.9294  -17.7473   22.6961 C.2     1  UNL1        0.2303
      2 O          -5.5182  -17.5895   22.2125 O.2     1  UNL1       -0.2745
      3 N          -7.6406  -16.5865   23.3257 N.am    1  UNL1       -0.2740
      4 C          -6.9408  -15.2678   23.4719 C.3     1  UNL1        0.1152
      5 C          -7.6292  -19.0660   22.5499 C.3     1  UNL1        0.1113
      6 C          -7.3180  -19.9706   20.1344 C.ar    1  UNL1       -0.0061
      7 C          -7.9014  -20.3674   18.8107 C.ar    1  UNL1       -0.0029
      8 C          -9.3792  -20.2565   18.5788 C.ar    1  UNL1       -0.0003
      9 C         -10.2736  -19.7487   19.6706 C.ar    1  UNL1       -0.0003
     10 C          -9.6903  -19.3519   20.9943 C.ar    1  UNL1       -0.0040
     11 C          -8.2125  -19.4628   21.2262 C.ar    1  UNL1       -0.0154
     12 C          -5.8402  -20.0815   20.3663 C.3     1  UNL1        0.1160
     13 C          -2.4975  -18.1895   19.3677 C.3     1  UNL1        0.0946
     14 C          -3.4280  -19.2065   19.9596 C.2     1  UNL1        0.2232
     15 O          -2.8767  -20.3651   20.7364 O.2     1  UNL1       -0.2751
     16 N          -4.9098  -19.0646   19.7745 N.am    1  UNL1       -0.3004
     17 H          -5.2716  -18.3041   19.2646 H       1  UNL1        0.1497
     18 C          -9.0518  -16.7443   23.8093 C.3     1  UNL1        0.1138
     19 C         -10.1893  -16.6933   22.8329 C.ar    1  UNL1       -0.0029
     20 C         -10.0140  -16.0035   21.5125 C.ar    1  UNL1       -0.0026
     21 C         -11.1516  -15.9526   20.5361 C.ar    1  UNL1       -0.0003
     22 C         -12.4645  -16.5914   20.8801 C.ar    1  UNL1       -0.0000
     23 C         -12.6397  -17.2812   22.2005 C.ar    1  UNL1       -0.0003
     24 C         -11.5021  -17.3321   23.1769 C.ar    1  UNL1       -0.0026
     25 C          -9.3254  -16.9530   25.2693 C.3     1  UNL1        0.0967
     26 N          -8.4388  -16.3148   26.2972 N.3     1  UNL1       -0.2710
     27 C          -8.6969  -15.0146   26.9992 C.3     1  UNL1        0.0722
     28 C          -7.5561  -14.7610   27.9395 C.3     1  UNL1        0.0188
     29 C          -6.5928  -15.9045   27.8186 C.3     1  UNL1        0.0188
     30 C          -7.1384  -16.8648   26.8036 C.3     1  UNL1        0.0722
@<TRIPOS>BOND
     1    13    14    1
     2    14    15    2
     3    14    16   am
     4    16    12    1
     5    12     6    1
     6     6     7   ar
     7     7     8   ar
     8     8     9   ar
     9     9    10   ar
    10    10    11   ar
    11    11     5    1
    12     5     1    1
    13     1     2    2
    14     1     3   am
    15     3     4    1
    16     3    18    1
    17    18    25    1
    18    25    26    1
    19    26    27    1
    20    27    28    1
    21    28    29    1
    22    29    30    1
    23    18    19    1
    24    19    20   ar
    25    20    21   ar
    26    21    22   ar
    27    22    23   ar
    28    23    24   ar
    29    11     6   ar
    30    30    26    1
    31    24    19   ar
    32    16    17    1
@<TRIPOS>MOLECULE
*****
 30 32 0 0 0
SMALL
GASTEIGER

@<TRIPOS>ATOM
      1 C         -13.4242   -3.7537   20.0978 C.2     1  UNL1        0.2303
      2 O         -13.6866   -2.7984   21.2241 O.2     1  UNL1       -0.2745
      3 N         -12.4978   -3.3640   18.9843 N.am    1  UNL1       -0.2740
      4 C         -11.8338   -2.0190   18.9971 C.3     1  UNL1        0.1152
      5 C         -14.0881   -5.0987   20.0850 C.3     1  UNL1        0.1113
      6 C         -16.1750   -6.5143   19.4597 C.ar    1  UNL1       -0.0061
      7 C         -17.6544   -6.6182   19.2348 C.ar    1  UNL1       -0.0029
      8 C         -18.5263   -5.4104   19.4103 C.ar    1  UNL1       -0.0003
      9 C         -17.9189   -4.0986   19.8107 C.ar    1  UNL1       -0.0003
     10 C         -16.4395   -3.9947   20.0356 C.ar    1  UNL1       -0.0040
     11 C         -15.5676   -5.2026   19.8601 C.ar    1  UNL1       -0.0154
     12 C         -15.3030   -7.7222   19.2842 C.3     1  UNL1        0.1160
     13 C         -17.1026  -11.2325   18.8488 C.3     1  UNL1        0.0946
     14 C         -16.5644   -9.8673   18.5377 C.2     1  UNL1        0.2232
     15 O         -16.7494   -9.2822   17.1690 O.2     1  UNL1       -0.2751
     16 N         -15.8412   -9.0873   19.5953 N.am    1  UNL1       -0.3004
     17 H         -15.7198   -9.4713   20.4937 H       1  UNL1        0.1497
     18 C         -12.2353   -4.3193   17.8579 C.3     1  UNL1        0.1138
     19 C         -11.3086   -5.4812   18.0605 C.ar    1  UNL1       -0.0029
     20 C         -11.5332   -6.7596   17.3088 C.ar    1  UNL1       -0.0026
     21 C         -10.6064   -7.9215   17.5113 C.ar    1  UNL1       -0.0003
     22 C          -9.4550   -7.8050   18.4657 C.ar    1  UNL1       -0.0000
     23 C          -9.2304   -6.5265   19.2174 C.ar    1  UNL1       -0.0003
     24 C         -10.1572   -5.3646   19.0148 C.ar    1  UNL1       -0.0026
     25 C         -12.8997   -4.1126   16.5291 C.3     1  UNL1        0.0967
     26 N         -14.3632   -4.4000   16.3695 N.3     1  UNL1       -0.2710
     27 C         -15.4769   -3.4041   16.5030 C.3     1  UNL1        0.0722
     28 C         -16.7720   -4.1223   16.2644 C.3     1  UNL1        0.0188
     29 C         -16.4586   -5.5621   15.9833 C.3     1  UNL1        0.0188
     30 C         -14.9699   -5.7336   16.0483 C.3     1  UNL1        0.0722
@<TRIPOS>BOND
     1    13    14    1
     2    14    15    2
     3    14    16   am
     4    16    12    1
     5    12     6    1
     6     6     7   ar
     7     7     8   ar
     8     8     9   ar
     9     9    10   ar
    10    10    11   ar
    11    11     5    1
    12     5     1    1
    13     1     2    2
    14     1     3   am
    15     3     4    1
    16     3    18    1
    17    18    25    1
    18    25    26    1
    19    26    27    1
    20    27    28    1
    21    28    29    1
    22    29    30    1
    23    18    19    1
    24    19    20   ar
    25    20    21   ar
    26    21    22   ar
    27    22    23   ar
    28    23    24   ar
    29    11     6   ar
    30    30    26    1
    31    24    19   ar
    32    16    17    1
@<TRIPOS>MOLECULE
*****
 30 32 0 0 0
SMALL
GASTEIGER

@<TRIPOS>ATOM
      1 C          -8.1384  -17.9343   21.8545 C.2     1  UNL1        0.2303
      2 O          -7.9683  -17.5875   20.4051 O.2     1  UNL1       -0.2745
      3 N          -9.0844  -17.1437   22.7088 N.am    1  UNL1       -0.2740
      4 C          -9.8604  -16.0063   22.1137 C.3     1  UNL1        0.1152
      5 C          -7.3624  -19.0717   22.4496 C.3     1  UNL1        0.1113
      6 C          -4.8696  -19.4531   21.8246 C.ar    1  UNL1       -0.0061
      7 C          -3.8286  -20.1594   21.0077 C.ar    1  UNL1       -0.0029
      8 C          -4.2393  -21.1905   19.9987 C.ar    1  UNL1       -0.0003
      9 C          -5.6911  -21.5154   19.8067 C.ar    1  UNL1       -0.0003
     10 C          -6.7320  -20.8091   20.6236 C.ar    1  UNL1       -0.0040
     11 C          -6.3213  -19.7780   21.6326 C.ar    1  UNL1       -0.0154
     12 C          -4.4588  -18.4220   22.8336 C.3     1  UNL1        0.1160
     13 C          -1.6136  -15.9318   21.6278 C.3     1  UNL1        0.0946
     14 C          -2.3025  -17.1868   22.0757 C.2     1  UNL1        0.2232
     15 O          -1.5239  -18.4614   22.2136 O.2     1  UNL1       -0.2751
     16 N          -3.7700  -17.1671   22.3858 N.am    1  UNL1       -0.3004
     17 H          -4.2810  -16.3305   22.2953 H       1  UNL1        0.1497
     18 C          -9.2545  -17.4905   24.1583 C.3     1  UNL1        0.1138
     19 C          -8.4537  -16.7686   25.2012 C.ar    1  UNL1       -0.0029
     20 C          -7.2658  -15.9460   24.7983 C.ar    1  UNL1       -0.0026
     21 C          -6.4650  -15.2242   25.8412 C.ar    1  UNL1       -0.0003
     22 C          -6.8521  -15.3249   27.2869 C.ar    1  UNL1       -0.0000
     23 C          -8.0399  -16.1475   27.6897 C.ar    1  UNL1       -0.0003
     24 C          -8.8408  -16.8694   26.6468 C.ar    1  UNL1       -0.0026
     25 C         -10.2255  -18.5591   24.5649 C.3     1  UNL1        0.0967
     26 N         -11.6845  -18.4048   24.2531 N.3     1  UNL1       -0.2710
     27 C         -12.2672  -18.0321   22.9221 C.3     1  UNL1        0.0722
     28 C         -13.7599  -17.9930   23.0640 C.3     1  UNL1        0.0188
     29 C         -14.0999  -18.3416   24.4828 C.3     1  UNL1        0.0188
     30 C         -12.8172  -18.5961   25.2177 C.3     1  UNL1        0.0722
@<TRIPOS>BOND
     1    13    14    1
     2    14    15    2
     3    14    16   am
     4    16    12    1
     5    12     6    1
     6     6     7   ar
     7     7     8   ar
     8     8     9   ar
     9     9    10   ar
    10    10    11   ar
    11    11     5    1
    12     5     1    1
    13     1     2    2
    14     1     3   am
    15     3     4    1
    16     3    18    1
    17    18    25    1
    18    25    26    1
    19    26    27    1
    20    27    28    1
    21    28    29    1
    22    29    30    1
    23    18    19    1
    24    19    20   ar
    25    20    21   ar
    26    21    22   ar
    27    22    23   ar
    28    23    24   ar
    29    11     6   ar
    30    30    26    1
    31    24    19   ar
    32    16    17    1
@<TRIPOS>MOLECULE
*****
 30 32 0 0 0
SMALL
GASTEIGER

@<TRIPOS>ATOM
      1 C          -5.6851  -16.4467   23.8603 C.2     1  UNL1        0.2303
      2 O          -4.7245  -15.6120   24.6544 O.2     1  UNL1       -0.2745
      3 N          -7.1267  -16.0438   23.7639 N.am    1  UNL1       -0.2740
      4 C          -7.6078  -14.8061   24.4617 C.3     1  UNL1        0.1152
      5 C          -5.2040  -17.6843   23.1625 C.3     1  UNL1        0.1113
      6 C          -3.8779  -18.5751   21.1137 C.ar    1  UNL1       -0.0061
      7 C          -2.6788  -18.5112   20.2148 C.ar    1  UNL1       -0.0029
      8 C          -1.6067  -17.4925   20.4658 C.ar    1  UNL1       -0.0003
      9 C          -1.7338  -16.5377   21.6157 C.ar    1  UNL1       -0.0003
     10 C          -2.9329  -16.6017   22.5146 C.ar    1  UNL1       -0.0040
     11 C          -4.0049  -17.6204   22.2636 C.ar    1  UNL1       -0.0154
     12 C          -4.9499  -19.5938   20.8627 C.3     1  UNL1        0.1160
     13 C          -8.5012  -19.7558   19.0985 C.3     1  UNL1        0.0946
     14 C          -7.1796  -20.1820   19.6658 C.2     1  UNL1        0.2232
     15 O          -6.7662  -21.6226   19.6036 O.2     1  UNL1       -0.2751
     16 N          -6.2714  -19.1677   20.2954 N.am    1  UNL1       -0.3004
     17 H          -6.5428  -18.2222   20.3362 H       1  UNL1        0.1497
     18 C          -8.0873  -16.8784   22.9698 C.3     1  UNL1        0.1138
     19 C          -8.7434  -18.0709   23.6002 C.ar    1  UNL1       -0.0029
     20 C          -8.4849  -19.4445   23.0555 C.ar    1  UNL1       -0.0026
     21 C          -9.1410  -20.6370   23.6859 C.ar    1  UNL1       -0.0003
     22 C         -10.0557  -20.4560   24.8609 C.ar    1  UNL1       -0.0000
     23 C         -10.3142  -19.0825   25.4056 C.ar    1  UNL1       -0.0003
     24 C          -9.6580  -17.8900   24.7752 C.ar    1  UNL1       -0.0026
     25 C          -8.3918  -16.5205   21.5453 C.3     1  UNL1        0.0967
     26 N          -9.8020  -16.5918   21.0390 N.3     1  UNL1       -0.2710
     27 C         -10.7084  -17.7843   21.1195 C.3     1  UNL1        0.0722
     28 C         -12.0199  -17.4127   20.4936 C.3     1  UNL1        0.0188
     29 C         -11.9241  -15.9905   20.0263 C.3     1  UNL1        0.0188
     30 C         -10.5533  -15.4833   20.3634 C.3     1  UNL1        0.0722
@<TRIPOS>BOND
     1    13    14    1
     2    14    15    2
     3    14    16   am
     4    16    12    1
     5    12     6    1
     6     6     7   ar
     7     7     8   ar
     8     8     9   ar
     9     9    10   ar
    10    10    11   ar
    11    11     5    1
    12     5     1    1
    13     1     2    2
    14     1     3   am
    15     3     4    1
    16     3    18    1
    17    18    25    1
    18    25    26    1
    19    26    27    1
    20    27    28    1
    21    28    29    1
    22    29    30    1
    23    18    19    1
    24    19    20   ar
    25    20    21   ar
    26    21    22   ar
    27    22    23   ar
    28    23    24   ar
    29    11     6   ar
    30    30    26    1
    31    24    19   ar
    32    16    17    1
@<TRIPOS>MOLECULE
*****
 30 32 0 0 0
SMALL
GASTEIGER

@<TRIPOS>ATOM
      1 C          -8.5266  -19.6604   22.7980 C.2     1  UNL1        0.2303
      2 O          -9.3544  -20.8476   23.1921 O.2     1  UNL1       -0.2745
      3 N          -7.0635  -19.8275   22.5129 N.am    1  UNL1       -0.2740
      4 C          -6.4281  -21.1819   22.6220 C.3     1  UNL1        0.1152
      5 C          -9.1621  -18.3060   22.6890 C.3     1  UNL1        0.1113
      6 C         -11.4533  -18.0076   21.5009 C.ar    1  UNL1       -0.0061
      7 C         -12.9454  -17.8714   21.5720 C.ar    1  UNL1       -0.0029
      8 C         -13.6384  -17.8972   22.9020 C.ar    1  UNL1       -0.0003
      9 C         -12.8393  -18.0593   24.1611 C.ar    1  UNL1       -0.0003
     10 C         -11.3473  -18.1955   24.0900 C.ar    1  UNL1       -0.0040
     11 C         -10.6542  -18.1697   22.7600 C.ar    1  UNL1       -0.0154
     12 C         -10.7603  -17.9818   20.1709 C.3     1  UNL1        0.1160
     13 C          -9.0870  -20.9755   18.1739 C.3     1  UNL1        0.0946
     14 C          -9.2413  -19.7098   18.9639 C.2     1  UNL1        0.2232
     15 O          -8.0308  -18.9063   19.3370 O.2     1  UNL1       -0.2751
     16 N         -10.6060  -19.2475   19.3809 N.am    1  UNL1       -0.3004
     17 H         -11.4005  -19.7749   19.1360 H       1  UNL1        0.1497
     18 C          -6.2358  -18.6402   22.1188 C.3     1  UNL1        0.1138
     19 C          -4.8632  -18.8392   21.5475 C.ar    1  UNL1       -0.0029
     20 C          -4.6917  -19.0955   20.0795 C.ar    1  UNL1       -0.0026
     21 C          -3.3192  -19.2945   19.5082 C.ar    1  UNL1       -0.0003
     22 C          -2.1180  -19.2373   20.4049 C.ar    1  UNL1       -0.0000
     23 C          -2.2895  -18.9810   21.8729 C.ar    1  UNL1       -0.0003
     24 C          -3.6621  -18.7820   22.4442 C.ar    1  UNL1       -0.0026
     25 C          -6.7806  -17.2540   22.2960 C.3     1  UNL1        0.0967
     26 N          -6.4655  -16.4776   23.5401 N.3     1  UNL1       -0.2710
     27 C          -7.4591  -16.0033   24.5589 C.3     1  UNL1        0.0722
     28 C          -6.7091  -15.2718   25.6323 C.3     1  UNL1        0.0188
     29 C          -5.2519  -15.2939   25.2769 C.3     1  UNL1        0.0188
     30 C          -5.1014  -16.0391   23.9839 C.3     1  UNL1        0.0722
@<TRIPOS>BOND
     1    13    14    1
     2    14    15    2
     3    14    16   am
     4    16    12    1
     5    12     6    1
     6     6     7   ar
     7     7     8   ar
     8     8     9   ar
     9     9    10   ar
    10    10    11   ar
    11    11     5    1
    12     5     1    1
    13     1     2    2
    14     1     3   am
    15     3     4    1
    16     3    18    1
    17    18    25    1
    18    25    26    1
    19    26    27    1
    20    27    28    1
    21    28    29    1
    22    29    30    1
    23    18    19    1
    24    19    20   ar
    25    20    21   ar
    26    21    22   ar
    27    22    23   ar
    28    23    24   ar
    29    11     6   ar
    30    30    26    1
    31    24    19   ar
    32    16    17    1
