@<TRIPOS>MOLECULE
*****
 33 35 0 0 0
SMALL
GASTEIGER

@<TRIPOS>ATOM
      1 N           7.8623   -4.7620   28.4288 N.am    1  UNL1       -0.2560
      2 C           7.6026   -5.3393   29.7887 C.3     1  UNL1        0.1394
      3 C           7.0704   -4.2434   30.6637 C.ar    1  UNL1        0.0662
      4 C           6.5810   -3.9229   32.0449 C.ar    1  UNL1        0.0247
      5 C           6.2092   -2.4701   32.0794 C.ar    1  UNL1        0.0614
      6 C           6.4688   -1.8927   30.7196 C.ar    1  UNL1        0.0922
      7 N           7.0011   -2.9887   29.8446 N.ar    1  UNL1       -0.2624
      8 C           7.4904   -3.3092   28.4634 C.2     1  UNL1        0.3234
      9 O           7.5905   -2.3460   27.3178 O.2     1  UNL1       -0.2490
     10 C           5.6721   -1.7254   33.2656 C.1     1  UNL1       -0.0497
     11 C           5.1349   -0.9807   34.4517 C.1     1  UNL1       -0.0095
     12 C           4.5977   -0.2360   35.6379 C.1     1  UNL1       -0.0138
     13 C           4.0606    0.5086   36.8240 C.1     1  UNL1       -0.0788
     14 C           3.5234    1.2532   38.0101 C.3     1  UNL1        0.0676
     15 C           3.6889    2.3028   39.0689 C.3     1  UNL1        0.0165
     16 C           2.4276    1.4934   39.0059 C.3     1  UNL1        0.0423
     17 C           1.0667    1.1647   39.5444 C.3     1  UNL1        0.1381
     18 O          -0.1593    1.6748   38.8466 O.3     1  UNL1       -0.3820
     19 H          -0.1888    2.6423   38.9105 H       1  UNL1        0.2104
     20 C           8.3994   -5.5066   27.2427 C.3     1  UNL1        0.0977
     21 C           7.4978   -5.8280   26.0877 C.3     1  UNL1        0.0524
     22 C           8.5369   -7.4309   23.7745 C.3     1  UNL1        0.0331
     23 C           8.0173   -6.6294   24.9311 C.3     1  UNL1        0.1820
     24 C           8.1201   -7.8374   25.8143 C.2     1  UNL1        0.2640
     25 O           9.4546   -8.4781   26.0564 O.2     1  UNL1       -0.2713
     26 N           6.8885   -8.4048   26.4555 N.am    1  UNL1       -0.1956
     27 O           6.9913   -9.6128   27.3387 O.3     1  UNL1       -0.2951
     28 H           6.0126   -7.9843   26.2966 H       1  UNL1        0.1823
     29 H           7.9167   -9.8991   27.3886 H       1  UNL1        0.2414
     30 S           7.9145   -5.4215   24.0479 S.O2    1  UNL1       -0.0034
     31 C           7.8117   -4.2134   23.1646 C.3     1  UNL1        0.1765
     32 O           6.6662   -5.0023   24.7663 O.2     1  UNL1       -0.1726
     33 O           9.1627   -5.8405   23.3294 O.2     1  UNL1       -0.1726
@<TRIPOS>BOND
     1    23    22    1
     2    23    21    1
     3    21    20    1
     4    20     1    1
     5     1     2    1
     6     2     3    1
     7     3     4   ar
     8     4     5   ar
     9     5    10    1
    10    10    11    3
    11    11    12    1
    12    12    13    3
    13    14    13    1
    14    14    15    1
    15    15    16    1
    16    16    17    1
    17    17    18    1
    18     5     6   ar
    19     6     7   ar
    20     7     8   am
    21     8     9    2
    22    23    24    1
    23    24    25    2
    24    24    26   am
    25    26    27    1
    26    23    30    1
    27    30    31    1
    28    30    32    2
    29    30    33    2
    30     8     1   am
    31     7     3   ar
    32    16    14    1
    33    18    19    1
    34    26    28    1
    35    27    29    1
@<TRIPOS>MOLECULE
*****
 33 35 0 0 0
SMALL
GASTEIGER

@<TRIPOS>ATOM
      1 N           4.3970   -1.0709   29.6699 N.am    1  UNL1       -0.2560
      2 C           3.1686   -0.7438   30.4662 C.3     1  UNL1        0.1394
      3 C           2.2122   -0.0190   29.5663 C.ar    1  UNL1        0.0662
      4 C           0.8619    0.6311   29.5022 C.ar    1  UNL1        0.0247
      5 C           0.6647    1.1538   28.1102 C.ar    1  UNL1        0.0614
      6 C           1.8931    0.8268   27.3138 C.ar    1  UNL1        0.0922
      7 N           2.8495    0.1019   28.2138 N.ar    1  UNL1       -0.2624
      8 C           4.1998   -0.5482   28.2778 C.2     1  UNL1        0.3234
      9 O           5.1806   -0.6565   27.1481 O.2     1  UNL1       -0.2490
     10 C          -0.5480    1.8767   27.6034 C.1     1  UNL1       -0.0497
     11 C          -1.7607    2.5995   27.0965 C.1     1  UNL1       -0.0095
     12 C          -2.9735    3.3223   26.5898 C.1     1  UNL1       -0.0138
     13 C          -4.1862    4.0452   26.0830 C.1     1  UNL1       -0.0788
     14 C          -5.3989    4.7680   25.5763 C.3     1  UNL1        0.0676
     15 C          -6.4038    5.8732   25.7126 C.3     1  UNL1        0.0165
     16 C          -6.4945    4.9148   24.5624 C.3     1  UNL1        0.0423
     17 C          -7.1794    4.4462   23.3128 C.3     1  UNL1        0.1381
     18 O          -8.4883    3.7189   23.4027 O.3     1  UNL1       -0.3820
     19 H          -8.3545    2.8657   23.8442 H       1  UNL1        0.2104
     20 C           5.6097   -1.7937   30.1767 C.3     1  UNL1        0.0977
     21 C           5.7050   -2.1754   31.6242 C.3     1  UNL1        0.0524
     22 C           8.3720   -2.1953   32.9978 C.3     1  UNL1        0.0331
     23 C           7.0384   -2.1853   32.3110 C.3     1  UNL1        0.1820
     24 C           7.2214   -3.6259   31.9351 C.2     1  UNL1        0.2640
     25 O           8.2852   -4.0152   30.9520 O.2     1  UNL1       -0.2713
     26 N           6.3404   -4.6771   32.5424 N.am    1  UNL1       -0.1956
     27 O           6.5233   -6.1177   32.1665 O.3     1  UNL1       -0.2951
     28 H           5.6421   -4.4216   33.1876 H       1  UNL1        0.1823
     29 H           7.2473   -6.1953   31.5256 H       1  UNL1        0.2414
     30 S           6.8556   -0.7448   32.6869 S.O2    1  UNL1       -0.0034
     31 C           6.6727    0.6958   33.0629 C.3     1  UNL1        0.1765
     32 O           5.6106   -1.1004   33.4442 O.2     1  UNL1       -0.1726
     33 O           8.1005   -0.3891   31.9296 O.2     1  UNL1       -0.1726
@<TRIPOS>BOND
     1    23    22    1
     2    23    21    1
     3    21    20    1
     4    20     1    1
     5     1     2    1
     6     2     3    1
     7     3     4   ar
     8     4     5   ar
     9     5    10    1
    10    10    11    3
    11    11    12    1
    12    12    13    3
    13    14    13    1
    14    14    15    1
    15    15    16    1
    16    16    17    1
    17    17    18    1
    18     5     6   ar
    19     6     7   ar
    20     7     8   am
    21     8     9    2
    22    23    24    1
    23    24    25    2
    24    24    26   am
    25    26    27    1
    26    23    30    1
    27    30    31    1
    28    30    32    2
    29    30    33    2
    30     8     1   am
    31     7     3   ar
    32    16    14    1
    33    18    19    1
    34    26    28    1
    35    27    29    1
@<TRIPOS>MOLECULE
*****
 33 35 0 0 0
SMALL
GASTEIGER

@<TRIPOS>ATOM
      1 N           4.5818   -1.1642   29.6748 N.am    1  UNL1       -0.2560
      2 C           4.3500   -0.7034   28.2663 C.3     1  UNL1        0.1394
      3 C           3.0075   -0.0365   28.2116 C.ar    1  UNL1        0.0662
      4 C           2.0346    0.6604   27.3073 C.ar    1  UNL1        0.0247
      5 C           0.8353    1.0426   28.1233 C.ar    1  UNL1        0.0614
      6 C           1.0671    0.5818   29.5318 C.ar    1  UNL1        0.0922
      7 N           2.4095   -0.0851   29.5865 N.ar    1  UNL1       -0.2624
      8 C           3.3824   -0.7820   30.4908 C.2     1  UNL1        0.3234
      9 O           3.1899   -1.0497   31.9541 O.2     1  UNL1       -0.2490
     10 C          -0.3820    1.7596   27.6192 C.1     1  UNL1       -0.0497
     11 C          -1.5992    2.4766   27.1151 C.1     1  UNL1       -0.0095
     12 C          -2.8166    3.1936   26.6111 C.1     1  UNL1       -0.0138
     13 C          -4.0340    3.9106   26.1071 C.1     1  UNL1       -0.0788
     14 C          -5.2512    4.6275   25.6031 C.3     1  UNL1        0.0676
     15 C          -6.2889    5.6983   25.7665 C.3     1  UNL1        0.0165
     16 C          -6.3221    4.7987   24.5667 C.3     1  UNL1        0.0423
     17 C          -6.9595    4.3780   23.2757 C.3     1  UNL1        0.1381
     18 O          -8.3515    3.8189   23.2736 O.3     1  UNL1       -0.3820
     19 H          -8.3597    2.9700   23.7428 H       1  UNL1        0.2104
     20 C           5.7990   -1.8811   30.1789 C.3     1  UNL1        0.0977
     21 C           5.9490   -2.1655   31.6441 C.3     1  UNL1        0.0524
     22 C           8.6838   -2.3780   32.8587 C.3     1  UNL1        0.0331
     23 C           7.3163   -2.2717   32.2514 C.3     1  UNL1        0.1820
     24 C           7.3663   -3.7254   31.8847 C.2     1  UNL1        0.2640
     25 O           8.3810   -4.2146   30.8943 O.2     1  UNL1       -0.2713
     26 N           6.4015   -4.6898   32.5085 N.am    1  UNL1       -0.1956
     27 O           6.4515   -6.1434   32.1419 O.3     1  UNL1       -0.2951
     28 H           5.7355   -4.3687   33.1586 H       1  UNL1        0.1823
     29 H           7.1590   -6.2895   31.4947 H       1  UNL1        0.2414
     30 S           7.2665   -0.8181   32.6181 S.O2    1  UNL1       -0.0034
     31 C           7.2167    0.6355   32.9847 C.3     1  UNL1        0.1765
     32 O           8.4216   -0.5470   31.7002 O.2     1  UNL1       -0.1726
     33 O           6.1115   -1.0891   33.5358 O.2     1  UNL1       -0.1726
@<TRIPOS>BOND
     1    23    22    1
     2    23    21    1
     3    21    20    1
     4    20     1    1
     5     1     2    1
     6     2     3    1
     7     3     4   ar
     8     4     5   ar
     9     5    10    1
    10    10    11    3
    11    11    12    1
    12    12    13    3
    13    14    13    1
    14    14    15    1
    15    15    16    1
    16    16    17    1
    17    17    18    1
    18     5     6   ar
    19     6     7   ar
    20     7     8   am
    21     8     9    2
    22    23    24    1
    23    24    25    2
    24    24    26   am
    25    26    27    1
    26    23    30    1
    27    30    31    1
    28    30    32    2
    29    30    33    2
    30     8     1   am
    31     7     3   ar
    32    16    14    1
    33    18    19    1
    34    26    28    1
    35    27    29    1
@<TRIPOS>MOLECULE
*****
 33 35 0 0 0
SMALL
GASTEIGER

@<TRIPOS>ATOM
      1 N           4.2364   -0.4685   31.7256 N.am    1  UNL1       -0.2560
      2 C           5.3756   -1.0666   30.9545 C.3     1  UNL1        0.1394
      3 C           4.9522   -1.1869   29.5205 C.ar    1  UNL1        0.0662
      4 C           5.3946   -1.6309   28.1577 C.ar    1  UNL1        0.0247
      5 C           4.2672   -1.3816   27.2003 C.ar    1  UNL1        0.0614
      6 C           3.1279   -0.7835   27.9714 C.ar    1  UNL1        0.0922
      7 N           3.5513   -0.6632   29.4054 N.ar    1  UNL1       -0.2624
      8 C           3.1089   -0.2192   30.7681 C.2     1  UNL1        0.3234
      9 O           1.7735    0.3706   31.1129 O.2     1  UNL1       -0.2490
     10 C           4.2771   -1.6782   25.7300 C.1     1  UNL1       -0.0497
     11 C           4.2871   -1.9749   24.2597 C.1     1  UNL1       -0.0095
     12 C           4.2970   -2.2716   22.7893 C.1     1  UNL1       -0.0138
     13 C           4.3069   -2.5684   21.3190 C.1     1  UNL1       -0.0788
     14 C           4.3169   -2.8651   19.8487 C.3     1  UNL1        0.0676
     15 C           4.2905   -3.8564   18.7234 C.3     1  UNL1        0.0165
     16 C           4.3605   -2.3877   18.4273 C.3     1  UNL1        0.0423
     17 C           4.4262   -1.2640   17.4359 C.3     1  UNL1        0.1381
     18 O           3.6602   -1.3533   16.1492 O.3     1  UNL1       -0.3820
     19 H           4.0231   -2.0704   15.6060 H       1  UNL1        0.2104
     20 C           4.2265   -0.1719   33.1959 C.3     1  UNL1        0.0977
     21 C           4.7194    1.1533   33.6970 C.3     1  UNL1        0.0524
     22 C           3.1143    2.6846   35.7166 C.3     1  UNL1        0.0331
     23 C           3.9169    1.9189   34.7068 C.3     1  UNL1        0.1820
     24 C           2.9820    2.3682   33.6232 C.2     1  UNL1        0.2640
     25 O           3.4997    3.1868   32.4778 O.2     1  UNL1       -0.2713
     26 N           1.5295    1.9989   33.6849 N.am    1  UNL1       -0.1956
     27 O           0.5947    2.4483   32.6013 O.3     1  UNL1       -0.2951
     28 H           1.1897    1.4616   34.4367 H       1  UNL1        0.1823
     29 H           1.0867    2.9633   31.9428 H       1  UNL1        0.2414
     30 S           4.8516    1.4697   35.7904 S.O2    1  UNL1       -0.0034
     31 C           5.7863    1.0204   36.8742 C.3     1  UNL1        0.1765
     32 O           3.6972    0.8705   36.5377 O.2     1  UNL1       -0.1726
     33 O           6.0059    2.0688   35.0432 O.2     1  UNL1       -0.1726
@<TRIPOS>BOND
     1    23    22    1
     2    23    21    1
     3    21    20    1
     4    20     1    1
     5     1     2    1
     6     2     3    1
     7     3     4   ar
     8     4     5   ar
     9     5    10    1
    10    10    11    3
    11    11    12    1
    12    12    13    3
    13    14    13    1
    14    14    15    1
    15    15    16    1
    16    16    17    1
    17    17    18    1
    18     5     6   ar
    19     6     7   ar
    20     7     8   am
    21     8     9    2
    22    23    24    1
    23    24    25    2
    24    24    26   am
    25    26    27    1
    26    23    30    1
    27    30    31    1
    28    30    32    2
    29    30    33    2
    30     8     1   am
    31     7     3   ar
    32    16    14    1
    33    18    19    1
    34    26    28    1
    35    27    29    1
@<TRIPOS>MOLECULE
*****
 33 35 0 0 0
SMALL
GASTEIGER

@<TRIPOS>ATOM
      1 N           4.1500   -0.8328   29.0536 N.am    1  UNL1       -0.2560
      2 C           3.9421   -0.1317   27.7438 C.3     1  UNL1        0.1394
      3 C           2.5638    0.4600   27.7484 C.ar    1  UNL1        0.0662
      4 C           1.5835    1.2590   26.9417 C.ar    1  UNL1        0.0247
      5 C           0.3336    1.4175   27.7557 C.ar    1  UNL1        0.0614
      6 C           0.5414    0.7164   29.0655 C.ar    1  UNL1        0.0922
      7 N           1.9197    0.1247   29.0609 N.ar    1  UNL1       -0.2624
      8 C           2.9000   -0.6743   29.8676 C.2     1  UNL1        0.3234
      9 O           2.6706   -1.2191   31.2462 O.2     1  UNL1       -0.2490
     10 C          -0.9064    2.1486   27.3341 C.1     1  UNL1       -0.0497
     11 C          -2.1464    2.8798   26.9124 C.1     1  UNL1       -0.0095
     12 C          -3.3864    3.6110   26.4906 C.1     1  UNL1       -0.0138
     13 C          -4.6264    4.3421   26.0688 C.1     1  UNL1       -0.0788
     14 C          -5.8663    5.0732   25.6470 C.3     1  UNL1        0.0676
     15 C          -6.8756    6.1589   25.8764 C.3     1  UNL1        0.0165
     16 C          -7.0047    5.2540   24.6871 C.3     1  UNL1        0.0423
     17 C          -7.7364    4.8359   23.4462 C.3     1  UNL1        0.1381
     18 O          -8.6866    3.6761   23.4907 O.3     1  UNL1       -0.3820
     19 H          -8.1933    2.8606   23.6707 H       1  UNL1        0.2104
     20 C           5.3899   -1.5639   29.4752 C.3     1  UNL1        0.0977
     21 C           6.3207   -0.9465   30.4765 C.3     1  UNL1        0.0524
     22 C           7.7507   -2.6805   32.4635 C.3     1  UNL1        0.0331
     23 C           7.0357   -1.8135   31.4700 C.3     1  UNL1        0.1820
     24 C           5.8187   -1.8123   32.3469 C.2     1  UNL1        0.2640
     25 O           5.3758   -0.5437   33.0134 O.2     1  UNL1       -0.2713
     26 N           5.0447   -3.0799   32.5572 N.am    1  UNL1       -0.1956
     27 O           3.8277   -3.0788   33.4341 O.3     1  UNL1       -0.2951
     28 H           5.3354   -3.9125   32.1197 H       1  UNL1        0.1823
     29 H           3.6819   -2.1858   33.7837 H       1  UNL1        0.2414
     30 S           8.2527   -1.8147   30.5932 S.O2    1  UNL1       -0.0034
     31 C           9.4698   -1.8160   29.7164 C.3     1  UNL1        0.1765
     32 O           8.1624   -3.3069   30.4699 O.2     1  UNL1       -0.1726
     33 O           8.3431   -0.3226   30.7164 O.2     1  UNL1       -0.1726
@<TRIPOS>BOND
     1    23    22    1
     2    23    21    1
     3    21    20    1
     4    20     1    1
     5     1     2    1
     6     2     3    1
     7     3     4   ar
     8     4     5   ar
     9     5    10    1
    10    10    11    3
    11    11    12    1
    12    12    13    3
    13    14    13    1
    14    14    15    1
    15    15    16    1
    16    16    17    1
    17    17    18    1
    18     5     6   ar
    19     6     7   ar
    20     7     8   am
    21     8     9    2
    22    23    24    1
    23    24    25    2
    24    24    26   am
    25    26    27    1
    26    23    30    1
    27    30    31    1
    28    30    32    2
    29    30    33    2
    30     8     1   am
    31     7     3   ar
    32    16    14    1
    33    18    19    1
    34    26    28    1
    35    27    29    1
@<TRIPOS>MOLECULE
*****
 33 35 0 0 0
SMALL
GASTEIGER

@<TRIPOS>ATOM
      1 N           5.0812    0.0191   18.2752 N.am    1  UNL1       -0.2560
      2 C           4.7949    0.9294   19.4326 C.3     1  UNL1        0.1394
      3 C           3.3327    1.2635   19.4090 C.ar    1  UNL1        0.0662
      4 C           2.2522    2.0325   20.1098 C.ar    1  UNL1        0.0247
      5 C           0.9670    1.8040   19.3709 C.ar    1  UNL1        0.0614
      6 C           1.2532    0.8938   18.2134 C.ar    1  UNL1        0.0922
      7 N           2.7153    0.5597   18.2370 N.ar    1  UNL1       -0.2624
      8 C           3.7959   -0.2093   17.5363 C.2     1  UNL1        0.3234
      9 O           3.6217   -1.0579   16.3117 O.2     1  UNL1       -0.2490
     10 C          -0.3698    2.3839   19.7268 C.1     1  UNL1       -0.0497
     11 C          -1.7066    2.9638   20.0828 C.1     1  UNL1       -0.0095
     12 C          -3.0434    3.5437   20.4388 C.1     1  UNL1       -0.0138
     13 C          -4.3802    4.1235   20.7950 C.1     1  UNL1       -0.0788
     14 C          -5.7169    4.7033   21.1510 C.3     1  UNL1        0.0676
     15 C          -6.8906    5.5707   20.8046 C.3     1  UNL1        0.0165
     16 C          -6.8586    4.8403   22.1143 C.3     1  UNL1        0.0423
     17 C          -7.4993    4.4977   23.4266 C.3     1  UNL1        0.1381
     18 O          -8.6778    3.5704   23.4665 O.3     1  UNL1       -0.3820
     19 H          -9.4322    3.9871   23.0214 H       1  UNL1        0.2104
     20 C           6.4179   -0.5608   17.9192 C.3     1  UNL1        0.0977
     21 C           6.7539   -1.9684   18.3138 C.3     1  UNL1        0.0524
     22 C           6.7191   -2.7645   21.2060 C.3     1  UNL1        0.0331
     23 C           6.7366   -2.3665   19.7598 C.3     1  UNL1        0.1820
     24 C           5.3369   -2.8821   19.6011 C.2     1  UNL1        0.2640
     25 O           4.2707   -2.4682   20.5716 O.2     1  UNL1       -0.2713
     26 N           5.0035   -3.8115   18.4720 N.am    1  UNL1       -0.1956
     27 O           3.6039   -4.3270   18.3133 O.3     1  UNL1       -0.2951
     28 H           5.7033   -4.0831   17.8350 H       1  UNL1        0.1823
     29 H           3.0442   -3.9654   19.0182 H       1  UNL1        0.2414
     30 S           8.1361   -1.8509   19.9186 S.O2    1  UNL1       -0.0034
     31 C           9.5358   -1.3355   20.0773 C.3     1  UNL1        0.1765
     32 O           8.5991   -2.7722   18.8291 O.2     1  UNL1       -0.1726
     33 O           7.6733   -0.9298   21.0081 O.2     1  UNL1       -0.1726
@<TRIPOS>BOND
     1    23    22    1
     2    23    21    1
     3    21    20    1
     4    20     1    1
     5     1     2    1
     6     2     3    1
     7     3     4   ar
     8     4     5   ar
     9     5    10    1
    10    10    11    3
    11    11    12    1
    12    12    13    3
    13    14    13    1
    14    14    15    1
    15    15    16    1
    16    16    17    1
    17    17    18    1
    18     5     6   ar
    19     6     7   ar
    20     7     8   am
    21     8     9    2
    22    23    24    1
    23    24    25    2
    24    24    26   am
    25    26    27    1
    26    23    30    1
    27    30    31    1
    28    30    32    2
    29    30    33    2
    30     8     1   am
    31     7     3   ar
    32    16    14    1
    33    18    19    1
    34    26    28    1
    35    27    29    1
@<TRIPOS>MOLECULE
*****
 33 35 0 0 0
SMALL
GASTEIGER

@<TRIPOS>ATOM
      1 N           3.8991   -2.3543   20.4374 N.am    1  UNL1       -0.2560
      2 C           4.7696   -2.9750   21.4896 C.3     1  UNL1        0.1394
      3 C           4.4154   -2.3557   22.8090 C.ar    1  UNL1        0.0662
      4 C           4.7346   -2.3566   24.2747 C.ar    1  UNL1        0.0247
      5 C           3.8423   -1.3535   24.9439 C.ar    1  UNL1        0.0614
      6 C           2.9718   -0.7328   23.8918 C.ar    1  UNL1        0.0922
      7 N           3.3260   -1.3521   22.5724 N.ar    1  UNL1       -0.2624
      8 C           3.0068   -1.3512   21.1068 C.2     1  UNL1        0.3234
      9 O           1.9764   -0.4973   20.4293 O.2     1  UNL1       -0.2490
     10 C           3.8239   -1.0284   26.4081 C.1     1  UNL1       -0.0497
     11 C           3.8054   -0.7032   27.8723 C.1     1  UNL1       -0.0095
     12 C           3.7869   -0.3780   29.3366 C.1     1  UNL1       -0.0138
     13 C           3.7683   -0.0528   30.8008 C.1     1  UNL1       -0.0788
     14 C           3.7497    0.2724   32.2649 C.3     1  UNL1        0.0676
     15 C           4.2605    0.0344   33.6550 C.3     1  UNL1        0.0165
     16 C           3.2068    1.0736   33.4109 C.3     1  UNL1        0.0423
     17 C           2.2849    2.1362   33.9316 C.3     1  UNL1        0.1381
     18 O           2.2069    2.4053   35.4052 O.3     1  UNL1       -0.3820
     19 H           1.8337    1.6316   35.8559 H       1  UNL1        0.2104
     20 C           3.9175   -2.6794   18.9733 C.3     1  UNL1        0.0977
     21 C           5.1194   -2.3364   18.1439 C.3     1  UNL1        0.0524
     22 C           6.2002    0.4621   18.1546 C.3     1  UNL1        0.0331
     23 C           5.6598   -0.9372   18.1492 C.3     1  UNL1        0.1820
     24 C           4.3456   -0.4276   17.6362 C.2     1  UNL1        0.2640
     25 O           3.7811   -0.9656   16.3549 O.2     1  UNL1       -0.2713
     26 N           3.5959    0.6201   18.4046 N.am    1  UNL1       -0.1956
     27 O           2.2817    1.1297   17.8916 O.3     1  UNL1       -0.2951
     28 H           3.9664    0.9732   19.2456 H       1  UNL1        0.1823
     29 H           2.0636    0.6814   17.0595 H       1  UNL1        0.2414
     30 S           6.9740   -1.4467   18.6622 S.O2    1  UNL1       -0.0034
     31 C           8.2882   -1.9561   19.1753 C.3     1  UNL1        0.1765
     32 O           6.8254   -0.5954   19.8883 O.2     1  UNL1       -0.1726
     33 O           7.1226   -2.2979   17.4362 O.2     1  UNL1       -0.1726
@<TRIPOS>BOND
     1    23    22    1
     2    23    21    1
     3    21    20    1
     4    20     1    1
     5     1     2    1
     6     2     3    1
     7     3     4   ar
     8     4     5   ar
     9     5    10    1
    10    10    11    3
    11    11    12    1
    12    12    13    3
    13    14    13    1
    14    14    15    1
    15    15    16    1
    16    16    17    1
    17    17    18    1
    18     5     6   ar
    19     6     7   ar
    20     7     8   am
    21     8     9    2
    22    23    24    1
    23    24    25    2
    24    24    26   am
    25    26    27    1
    26    23    30    1
    27    30    31    1
    28    30    32    2
    29    30    33    2
    30     8     1   am
    31     7     3   ar
    32    16    14    1
    33    18    19    1
    34    26    28    1
    35    27    29    1
@<TRIPOS>MOLECULE
*****
 33 35 0 0 0
SMALL
GASTEIGER

@<TRIPOS>ATOM
      1 N         -13.9429   -4.3237   16.8718 N.am    1  UNL1       -0.2560
      2 C         -13.7428   -2.8428   16.7414 C.3     1  UNL1        0.1394
      3 C         -14.5427   -2.1704   17.8175 C.ar    1  UNL1        0.0662
      4 C         -14.9133   -0.8396   18.4019 C.ar    1  UNL1        0.0247
      5 C         -15.8369   -1.0824   19.5587 C.ar    1  UNL1        0.0614
      6 C         -16.0370   -2.5632   19.6892 C.ar    1  UNL1        0.0922
      7 N         -15.2372   -3.2357   18.6130 N.ar    1  UNL1       -0.2624
      8 C         -14.8665   -4.5665   18.0286 C.2     1  UNL1        0.3234
      9 O         -15.3369   -5.9051   18.5155 O.2     1  UNL1       -0.2490
     10 C         -16.4522   -0.0292   20.4317 C.1     1  UNL1       -0.0497
     11 C         -17.0676    1.0239   21.3047 C.1     1  UNL1       -0.0095
     12 C         -17.6830    2.0772   22.1777 C.1     1  UNL1       -0.0138
     13 C         -18.2983    3.1304   23.0507 C.1     1  UNL1       -0.0788
     14 C         -18.9136    4.1836   23.9236 C.3     1  UNL1        0.0676
     15 C         -20.0722    5.0725   24.2667 C.3     1  UNL1        0.0165
     16 C         -18.8210    5.1190   25.0926 C.3     1  UNL1        0.0423
     17 C         -18.0450    5.6858   26.2444 C.3     1  UNL1        0.1381
     18 O         -16.6729    5.1642   26.5535 O.3     1  UNL1       -0.3820
     19 H         -16.7355    4.2394   26.8394 H       1  UNL1        0.2104
     20 C         -13.3276   -5.3769   15.9989 C.3     1  UNL1        0.0977
     21 C         -11.8823   -5.7410   16.1681 C.3     1  UNL1        0.0524
     22 C         -10.7878   -6.3044   18.9039 C.3     1  UNL1        0.0331
     23 C         -11.3351   -6.0227   17.5360 C.3     1  UNL1        0.1820
     24 C         -12.1244   -7.2970   17.5894 C.2     1  UNL1        0.2640
     25 O         -12.0387   -8.2803   16.4598 O.2     1  UNL1       -0.2713
     26 N         -12.9995   -7.5882   18.7723 N.am    1  UNL1       -0.1956
     27 O         -13.7889   -8.8626   18.8257 O.3     1  UNL1       -0.2951
     28 H         -13.0558   -6.9429   19.5137 H       1  UNL1        0.1823
     29 H         -13.6209   -9.3809   18.0232 H       1  UNL1        0.2414
     30 S         -10.5457   -4.7484   17.4827 S.O2    1  UNL1       -0.0034
     31 C          -9.7563   -3.4740   17.4295 C.3     1  UNL1        0.1765
     32 O         -11.0760   -4.3634   18.8320 O.2     1  UNL1       -0.1726
     33 O         -10.0153   -5.1332   16.1335 O.2     1  UNL1       -0.1726
@<TRIPOS>BOND
     1    23    22    1
     2    23    21    1
     3    21    20    1
     4    20     1    1
     5     1     2    1
     6     2     3    1
     7     3     4   ar
     8     4     5   ar
     9     5    10    1
    10    10    11    3
    11    11    12    1
    12    12    13    3
    13    14    13    1
    14    14    15    1
    15    15    16    1
    16    16    17    1
    17    17    18    1
    18     5     6   ar
    19     6     7   ar
    20     7     8   am
    21     8     9    2
    22    23    24    1
    23    24    25    2
    24    24    26   am
    25    26    27    1
    26    23    30    1
    27    30    31    1
    28    30    32    2
    29    30    33    2
    30     8     1   am
    31     7     3   ar
    32    16    14    1
    33    18    19    1
    34    26    28    1
    35    27    29    1
@<TRIPOS>MOLECULE
*****
 33 35 0 0 0
SMALL
GASTEIGER

@<TRIPOS>ATOM
      1 N           3.8491   -1.4152   23.6024 N.am    1  UNL1       -0.2560
      2 C           3.1071   -0.4329   24.4595 C.3     1  UNL1        0.1394
      3 C           3.5745   -0.6062   25.8742 C.ar    1  UNL1        0.0662
      4 C           3.4048   -0.1062   27.2782 C.ar    1  UNL1        0.0247
      5 C           4.3309   -0.8867   28.1633 C.ar    1  UNL1        0.0614
      6 C           5.0729   -1.8691   27.3063 C.ar    1  UNL1        0.0922
      7 N           4.6054   -1.6957   25.8916 N.ar    1  UNL1       -0.2624
      8 C           4.7751   -2.1957   24.4876 C.2     1  UNL1        0.3234
      9 O           5.7072   -3.2849   24.0461 O.2     1  UNL1       -0.2490
     10 C           4.4874   -0.7150   29.6452 C.1     1  UNL1       -0.0497
     11 C           4.6440   -0.5433   31.1271 C.1     1  UNL1       -0.0095
     12 C           4.8006   -0.3716   32.6090 C.1     1  UNL1       -0.0138
     13 C           4.9570   -0.1997   34.0909 C.1     1  UNL1       -0.0788
     14 C           5.1135   -0.0280   35.5727 C.3     1  UNL1        0.0676
     15 C           5.9485   -0.1463   36.8131 C.3     1  UNL1        0.0165
     16 C           4.5496    0.3880   36.8990 C.3     1  UNL1        0.0423
     17 C           3.4163    0.9365   37.7143 C.3     1  UNL1        0.1381
     18 O           3.3335    0.6359   39.1816 O.3     1  UNL1       -0.3820
     19 H           3.1805   -0.3134   39.3090 H       1  UNL1        0.2104
     20 C           3.6925   -1.5869   22.1206 C.3     1  UNL1        0.0977
     21 C           4.8795   -1.4268   21.2175 C.3     1  UNL1        0.0524
     22 C           4.9575   -2.8480   18.5767 C.3     1  UNL1        0.0331
     23 C           4.9185   -2.1374   19.8971 C.3     1  UNL1        0.1820
     24 C           5.3338   -3.4015   20.5896 C.2     1  UNL1        0.2640
     25 O           4.4042   -4.5782   20.6236 O.2     1  UNL1       -0.2713
     26 N           6.6786   -3.4889   21.2481 N.am    1  UNL1       -0.1956
     27 O           7.0939   -4.7530   21.9406 O.3     1  UNL1       -0.2951
     28 H           7.2888   -2.7166   21.2258 H       1  UNL1        0.1823
     29 H           6.3828   -5.4090   21.8701 H       1  UNL1        0.2414
     30 S           4.5032   -0.8734   19.2045 S.O2    1  UNL1       -0.0034
     31 C           4.0881    0.3907   18.5119 C.3     1  UNL1        0.1765
     32 O           5.7501   -0.1967   19.6920 O.2     1  UNL1       -0.1726
     33 O           3.2565   -1.5499   18.7171 O.2     1  UNL1       -0.1726
@<TRIPOS>BOND
     1    23    22    1
     2    23    21    1
     3    21    20    1
     4    20     1    1
     5     1     2    1
     6     2     3    1
     7     3     4   ar
     8     4     5   ar
     9     5    10    1
    10    10    11    3
    11    11    12    1
    12    12    13    3
    13    14    13    1
    14    14    15    1
    15    15    16    1
    16    16    17    1
    17    17    18    1
    18     5     6   ar
    19     6     7   ar
    20     7     8   am
    21     8     9    2
    22    23    24    1
    23    24    25    2
    24    24    26   am
    25    26    27    1
    26    23    30    1
    27    30    31    1
    28    30    32    2
    29    30    33    2
    30     8     1   am
    31     7     3   ar
    32    16    14    1
    33    18    19    1
    34    26    28    1
    35    27    29    1
