@<TRIPOS>MOLECULE
*****
 21 23 0 0 0
SMALL
GASTEIGER

@<TRIPOS>ATOM
      1 C          -7.9963  -18.9534   21.7990 C.ar    1  UNL1        0.0024
      2 C          -8.6049  -19.3426   20.4845 C.ar    1  UNL1        0.0065
      3 S          -7.4890  -19.6266   19.5231 S.2     1  UNL1       -0.0915
      4 C          -6.1908  -19.4129   20.2435 C.ar    1  UNL1        0.0289
      5 C          -4.7637  -19.5434   19.8005 C.ar    1  UNL1        0.0065
      6 C          -3.6502  -19.2578   20.7640 C.ar    1  UNL1        0.0005
      7 C          -3.9637  -18.8417   22.1706 C.ar    1  UNL1        0.0000
      8 C          -5.3908  -18.7112   22.6137 C.ar    1  UNL1        0.0002
      9 C          -6.5043  -18.9968   21.6502 C.ar    1  UNL1        0.0040
     10 C          -9.7319  -19.5488   23.6385 C.3     1  UNL1        0.0312
     11 C          -8.7478  -18.5853   23.0440 C.3     1  UNL1        0.1276
     12 N          -8.5152  -17.2540   23.6945 N.ar    1  UNL1       -0.2472
     13 C          -9.0179  -16.8317   25.0431 C.ar    1  UNL1        0.0970
     14 C          -8.5524  -15.4278   25.2927 C.ar    1  UNL1        0.0427
     15 C          -7.7619  -14.9823   24.0983 C.ar    1  UNL1        0.1217
     16 N          -7.7389  -16.1110   23.1105 N.ar    1  UNL1       -0.1674
     17 C         -10.0718  -19.4321   20.1840 C.3     1  UNL1        0.0500
     18 C         -10.8330  -18.2013   19.7895 C.3     1  UNL1        0.0774
     19 N         -11.4175  -17.3104   20.8453 N.3     1  UNL1       -0.2700
     20 C         -12.6321  -17.7491   21.6086 C.3     1  UNL1        0.0897
     21 C         -10.7876  -15.9810   21.1379 C.3     1  UNL1        0.0897
@<TRIPOS>BOND
     1    11    10    1
     2    11     1    1
     3     1     2   ar
     4     2    17    1
     5    17    18    1
     6    18    19    1
     7    19    20    1
     8    19    21    1
     9     2     3   ar
    10     3     4   ar
    11     4     5   ar
    12     5     6   ar
    13     6     7   ar
    14     7     8   ar
    15     8     9   ar
    16    11    12    1
    17    12    13   ar
    18    13    14   ar
    19    14    15   ar
    20    15    16   ar
    21     9     1   ar
    22    16    12   ar
    23     9     4   ar
@<TRIPOS>MOLECULE
*****
 21 23 0 0 0
SMALL
GASTEIGER

@<TRIPOS>ATOM
      1 C          -8.5336  -17.0580   22.7894 C.ar    1  UNL1        0.0024
      2 C          -7.8938  -18.2738   22.1871 C.ar    1  UNL1        0.0065
      3 S          -8.9715  -19.0920   21.5397 S.2     1  UNL1       -0.0915
      4 C         -10.2772  -18.3820   21.7418 C.ar    1  UNL1        0.0289
      5 C         -11.6777  -18.7177   21.3224 C.ar    1  UNL1        0.0065
      6 C         -12.8075  -17.7963   21.6753 C.ar    1  UNL1        0.0005
      7 C         -12.5369  -16.5393   22.4476 C.ar    1  UNL1        0.0000
      8 C         -11.1364  -16.2035   22.8671 C.ar    1  UNL1        0.0002
      9 C         -10.0066  -17.1249   22.5142 C.ar    1  UNL1        0.0040
     10 C          -7.2006  -14.8279   22.7853 C.3     1  UNL1        0.0312
     11 C          -7.8247  -15.9669   23.5358 C.3     1  UNL1        0.1276
     12 N          -7.7400  -16.0148   25.0325 N.ar    1  UNL1       -0.2472
     13 C          -6.6091  -15.4937   25.8688 C.ar    1  UNL1        0.0970
     14 C          -6.9415  -15.7490   27.3090 C.ar    1  UNL1        0.0427
     15 C          -8.2780  -16.4278   27.3629 C.ar    1  UNL1        0.1217
     16 N          -8.7715  -16.5921   25.9560 N.ar    1  UNL1       -0.1674
     17 C          -6.4329  -18.6119   22.2255 C.3     1  UNL1        0.0500
     18 C          -5.7352  -19.0662   20.9779 C.3     1  UNL1        0.0774
     19 N          -4.2629  -18.8308   20.8138 N.3     1  UNL1       -0.2700
     20 C          -3.6340  -18.9313   19.4557 C.3     1  UNL1        0.0897
     21 C          -3.4195  -18.4949   22.0078 C.3     1  UNL1        0.0897
@<TRIPOS>BOND
     1    11    10    1
     2    11     1    1
     3     1     2   ar
     4     2    17    1
     5    17    18    1
     6    18    19    1
     7    19    20    1
     8    19    21    1
     9     2     3   ar
    10     3     4   ar
    11     4     5   ar
    12     5     6   ar
    13     6     7   ar
    14     7     8   ar
    15     8     9   ar
    16    11    12    1
    17    12    13   ar
    18    13    14   ar
    19    14    15   ar
    20    15    16   ar
    21     9     1   ar
    22    16    12   ar
    23     9     4   ar
@<TRIPOS>MOLECULE
*****
 21 23 0 0 0
SMALL
GASTEIGER

@<TRIPOS>ATOM
      1 C          -7.3490  -18.7387   21.6825 C.ar    1  UNL1        0.0024
      2 C          -7.9921  -19.4212   20.5118 C.ar    1  UNL1        0.0065
      3 S          -6.9152  -20.1137   19.7302 S.2     1  UNL1       -0.0915
      4 C          -5.6067  -19.8591   20.4178 C.ar    1  UNL1        0.0289
      5 C          -4.2057  -20.2913   20.1011 C.ar    1  UNL1        0.0065
      6 C          -3.0727  -19.8737   20.9910 C.ar    1  UNL1        0.0005
      7 C          -3.3408  -19.0238   22.1976 C.ar    1  UNL1        0.0000
      8 C          -4.7418  -18.5916   22.5143 C.ar    1  UNL1        0.0002
      9 C          -5.8747  -19.0093   21.6244 C.ar    1  UNL1        0.0040
     10 C          -7.6554  -16.5025   22.9694 C.3     1  UNL1        0.0312
     11 C          -8.0560  -17.9278   22.7278 C.3     1  UNL1        0.1276
     12 N          -9.1634  -18.5421   23.5315 N.ar    1  UNL1       -0.2472
     13 C          -9.3261  -20.0014   23.8376 C.ar    1  UNL1        0.0970
     14 C         -10.5660  -20.1661   24.6656 C.ar    1  UNL1        0.0427
     15 C         -11.1697  -18.8085   24.8713 C.ar    1  UNL1        0.1217
     16 N         -10.3029  -17.8047   24.1703 N.ar    1  UNL1       -0.1674
     17 C          -9.4551  -19.4128   20.1809 C.3     1  UNL1        0.0500
     18 C         -10.1186  -18.1394   19.7471 C.3     1  UNL1        0.0774
     19 N         -11.0518  -17.4248   20.6790 N.3     1  UNL1       -0.2700
     20 C         -12.2250  -18.1507   21.2681 C.3     1  UNL1        0.0897
     21 C         -10.8120  -15.9844   21.0219 C.3     1  UNL1        0.0897
@<TRIPOS>BOND
     1    11    10    1
     2    11     1    1
     3     1     2   ar
     4     2    17    1
     5    17    18    1
     6    18    19    1
     7    19    20    1
     8    19    21    1
     9     2     3   ar
    10     3     4   ar
    11     4     5   ar
    12     5     6   ar
    13     6     7   ar
    14     7     8   ar
    15     8     9   ar
    16    11    12    1
    17    12    13   ar
    18    13    14   ar
    19    14    15   ar
    20    15    16   ar
    21     9     1   ar
    22    16    12   ar
    23     9     4   ar
@<TRIPOS>MOLECULE
*****
 21 23 0 0 0
SMALL
GASTEIGER

@<TRIPOS>ATOM
      1 C          -8.5739  -17.2307   24.0927 C.ar    1  UNL1        0.0024
      2 C          -7.5449  -17.1154   23.0074 C.ar    1  UNL1        0.0065
      3 S          -6.4158  -16.2753   23.5266 S.2     1  UNL1       -0.0915
      4 C          -6.7471  -15.8714   24.9327 C.ar    1  UNL1        0.0289
      5 C          -6.0065  -15.0423   25.9397 C.ar    1  UNL1        0.0065
      6 C          -6.5997  -14.8036   27.2966 C.ar    1  UNL1        0.0005
      7 C          -7.9335  -15.3941   27.6464 C.ar    1  UNL1        0.0000
      8 C          -8.6740  -16.2232   26.6395 C.ar    1  UNL1        0.0002
      9 C          -8.0808  -16.4619   25.2826 C.ar    1  UNL1        0.0040
     10 C         -10.1276  -19.1413   24.9208 C.3     1  UNL1        0.0312
     11 C          -9.8686  -17.9828   24.0038 C.3     1  UNL1        0.1276
     12 N         -10.9045  -17.5765   22.9979 N.ar    1  UNL1       -0.2472
     13 C         -12.0464  -18.4221   22.5174 C.ar    1  UNL1        0.0970
     14 C         -12.8279  -17.6214   21.5184 C.ar    1  UNL1        0.0427
     15 C         -12.1691  -16.2808   21.3814 C.ar    1  UNL1        0.1217
     16 N         -10.9803  -16.2530   22.2958 N.ar    1  UNL1       -0.1674
     17 C          -7.6299  -17.7319   21.6426 C.3     1  UNL1        0.0500
     18 C          -6.9465  -19.0381   21.3658 C.3     1  UNL1        0.0774
     19 N          -5.4594  -19.0806   21.1738 N.3     1  UNL1       -0.2700
     20 C          -4.8766  -18.9439   19.7984 C.3     1  UNL1        0.0897
     21 C          -4.5553  -19.2599   22.3571 C.3     1  UNL1        0.0897
@<TRIPOS>BOND
     1    11    10    1
     2    11     1    1
     3     1     2   ar
     4     2    17    1
     5    17    18    1
     6    18    19    1
     7    19    20    1
     8    19    21    1
     9     2     3   ar
    10     3     4   ar
    11     4     5   ar
    12     5     6   ar
    13     6     7   ar
    14     7     8   ar
    15     8     9   ar
    16    11    12    1
    17    12    13   ar
    18    13    14   ar
    19    14    15   ar
    20    15    16   ar
    21     9     1   ar
    22    16    12   ar
    23     9     4   ar
@<TRIPOS>MOLECULE
*****
 21 23 0 0 0
SMALL
GASTEIGER

@<TRIPOS>ATOM
      1 C          -8.2975  -18.4142   22.3410 C.ar    1  UNL1        0.0024
      2 C          -7.7400  -17.3106   23.1903 C.ar    1  UNL1        0.0065
      3 S          -6.2446  -17.3514   23.0804 S.2     1  UNL1       -0.0915
      4 C          -5.8779  -18.4802   22.1632 C.ar    1  UNL1        0.0289
      5 C          -4.5525  -18.9949   21.6850 C.ar    1  UNL1        0.0065
      6 C          -4.4960  -20.1663   20.7499 C.ar    1  UNL1        0.0005
      7 C          -5.7648  -20.8232   20.2930 C.ar    1  UNL1        0.0000
      8 C          -7.0901  -20.3085   20.7711 C.ar    1  UNL1        0.0002
      9 C          -7.1466  -19.1371   21.7062 C.ar    1  UNL1        0.0040
     10 C         -10.3076  -20.0198   22.7036 C.3     1  UNL1        0.0312
     11 C          -9.7507  -18.7380   22.1586 C.3     1  UNL1        0.1276
     12 N         -10.6470  -17.7803   21.4311 N.ar    1  UNL1       -0.2472
     13 C         -11.9905  -17.3029   21.8970 C.ar    1  UNL1        0.0970
     14 C         -12.5310  -16.3593   20.8638 C.ar    1  UNL1        0.0427
     15 C         -11.5216  -16.2535   19.7594 C.ar    1  UNL1        0.1217
     16 N         -10.3571  -17.1318   20.1100 N.ar    1  UNL1       -0.1674
     17 C          -8.5378  -16.3371   24.0063 C.3     1  UNL1        0.0500
     18 C          -7.8494  -15.2006   24.7023 C.3     1  UNL1        0.0774
     19 N          -7.2932  -15.3927   26.0820 N.3     1  UNL1       -0.2700
     20 C          -5.8101  -15.3574   26.3044 C.3     1  UNL1        0.0897
     21 C          -8.2199  -15.6200   27.2394 C.3     1  UNL1        0.0897
@<TRIPOS>BOND
     1    11    10    1
     2    11     1    1
     3     1     2   ar
     4     2    17    1
     5    17    18    1
     6    18    19    1
     7    19    20    1
     8    19    21    1
     9     2     3   ar
    10     3     4   ar
    11     4     5   ar
    12     5     6   ar
    13     6     7   ar
    14     7     8   ar
    15     8     9   ar
    16    11    12    1
    17    12    13   ar
    18    13    14   ar
    19    14    15   ar
    20    15    16   ar
    21     9     1   ar
    22    16    12   ar
    23     9     4   ar
@<TRIPOS>MOLECULE
*****
 21 23 0 0 0
SMALL
GASTEIGER

@<TRIPOS>ATOM
      1 C          -8.3294  -17.6416   22.5090 C.ar    1  UNL1        0.0024
      2 C          -8.4780  -18.9510   21.7926 C.ar    1  UNL1        0.0065
      3 S          -7.1207  -19.5817   21.6933 S.2     1  UNL1       -0.0915
      4 C          -6.1332  -18.6620   22.3483 C.ar    1  UNL1        0.0289
      5 C          -4.6503  -18.7616   22.5508 C.ar    1  UNL1        0.0065
      6 C          -3.9144  -17.6620   23.2574 C.ar    1  UNL1        0.0005
      7 C          -4.6614  -16.4629   23.7615 C.ar    1  UNL1        0.0000
      8 C          -6.1443  -16.3633   23.5590 C.ar    1  UNL1        0.0002
      9 C          -6.8802  -17.4629   22.8524 C.ar    1  UNL1        0.0040
     10 C          -9.4703  -15.9889   24.1574 C.3     1  UNL1        0.0312
     11 C          -9.4357  -16.6795   22.8262 C.3     1  UNL1        0.1276
     12 N         -10.5073  -16.4081   21.8124 N.ar    1  UNL1       -0.2472
     13 C         -11.9854  -16.5244   22.0392 C.ar    1  UNL1        0.0970
     14 C         -12.6806  -16.1608   20.7607 C.ar    1  UNL1        0.0427
     15 C         -11.6321  -15.8198   19.7438 C.ar    1  UNL1        0.1217
     16 N         -10.2889  -15.9726   20.3938 N.ar    1  UNL1       -0.1674
     17 C          -9.7591  -19.5284   21.2678 C.3     1  UNL1        0.0500
     18 C         -10.7983  -20.0383   22.2217 C.3     1  UNL1        0.0774
     19 N         -10.5442  -19.9979   23.6994 N.3     1  UNL1       -0.2700
     20 C         -11.3594  -19.0941   24.5762 C.3     1  UNL1        0.0897
     21 C          -9.4750  -20.8613   24.3005 C.3     1  UNL1        0.0897
@<TRIPOS>BOND
     1    11    10    1
     2    11     1    1
     3     1     2   ar
     4     2    17    1
     5    17    18    1
     6    18    19    1
     7    19    20    1
     8    19    21    1
     9     2     3   ar
    10     3     4   ar
    11     4     5   ar
    12     5     6   ar
    13     6     7   ar
    14     7     8   ar
    15     8     9   ar
    16    11    12    1
    17    12    13   ar
    18    13    14   ar
    19    14    15   ar
    20    15    16   ar
    21     9     1   ar
    22    16    12   ar
    23     9     4   ar
@<TRIPOS>MOLECULE
*****
 21 23 0 0 0
SMALL
GASTEIGER

@<TRIPOS>ATOM
      1 C          -9.6394  -18.5249   23.0278 C.ar    1  UNL1        0.0024
      2 C          -8.6726  -19.1151   22.0444 C.ar    1  UNL1        0.0065
      3 S          -9.0947  -18.6921   20.6686 S.2     1  UNL1       -0.0915
      4 C         -10.3224  -17.8405   20.8016 C.ar    1  UNL1        0.0289
      5 C         -11.1772  -17.1458   19.7835 C.ar    1  UNL1        0.0065
      6 C         -12.3686  -16.3478   20.2234 C.ar    1  UNL1        0.0005
      7 C         -12.7052  -16.2444   21.6815 C.ar    1  UNL1        0.0000
      8 C         -11.8504  -16.9391   22.6996 C.ar    1  UNL1        0.0002
      9 C         -10.6590  -17.7371   22.2597 C.ar    1  UNL1        0.0040
     10 C         -10.0491  -19.9791   25.1414 C.3     1  UNL1        0.0312
     11 C          -9.5945  -18.6929   24.5176 C.3     1  UNL1        0.1276
     12 N          -9.0950  -17.5748   25.3838 N.ar    1  UNL1       -0.2472
     13 C          -8.7122  -16.2015   24.9173 C.ar    1  UNL1        0.0970
     14 C          -8.2713  -15.4117   26.1138 C.ar    1  UNL1        0.0427
     15 C          -8.3815  -16.2967   27.3198 C.ar    1  UNL1        0.1217
     16 N          -8.8906  -17.6336   26.8687 N.ar    1  UNL1       -0.1674
     17 C          -7.4912  -19.9769   22.3783 C.3     1  UNL1        0.0500
     18 C          -6.5227  -20.3712   21.3029 C.3     1  UNL1        0.0774
     19 N          -5.1181  -19.8455   21.3289 N.3     1  UNL1       -0.2700
     20 C          -4.1560  -20.2223   20.2414 C.3     1  UNL1        0.0897
     21 C          -4.6756  -18.9430   22.4423 C.3     1  UNL1        0.0897
@<TRIPOS>BOND
     1    11    10    1
     2    11     1    1
     3     1     2   ar
     4     2    17    1
     5    17    18    1
     6    18    19    1
     7    19    20    1
     8    19    21    1
     9     2     3   ar
    10     3     4   ar
    11     4     5   ar
    12     5     6   ar
    13     6     7   ar
    14     7     8   ar
    15     8     9   ar
    16    11    12    1
    17    12    13   ar
    18    13    14   ar
    19    14    15   ar
    20    15    16   ar
    21     9     1   ar
    22    16    12   ar
    23     9     4   ar
@<TRIPOS>MOLECULE
*****
 21 23 0 0 0
SMALL
GASTEIGER

@<TRIPOS>ATOM
      1 C          -6.6803  -17.5034   22.8788 C.ar    1  UNL1        0.0024
      2 C          -7.4325  -18.6950   22.3647 C.ar    1  UNL1        0.0065
      3 S          -6.4307  -19.7132   21.9069 S.2     1  UNL1       -0.0915
      4 C          -5.0594  -19.1510   22.1380 C.ar    1  UNL1        0.0289
      5 C          -3.6903  -19.7062   21.8791 C.ar    1  UNL1        0.0065
      6 C          -2.4753  -18.8956   22.2208 C.ar    1  UNL1        0.0005
      7 C          -2.6295  -17.5298   22.8215 C.ar    1  UNL1        0.0000
      8 C          -3.9987  -16.9746   23.0805 C.ar    1  UNL1        0.0002
      9 C          -5.2136  -17.7852   22.7387 C.ar    1  UNL1        0.0040
     10 C          -7.8382  -15.2073   22.5078 C.3     1  UNL1        0.0312
     11 C          -7.2879  -16.2500   23.4353 C.3     1  UNL1        0.1276
     12 N          -7.3454  -16.0391   24.9192 N.ar    1  UNL1       -0.2472
     13 C          -6.2358  -15.5092   25.7782 C.ar    1  UNL1        0.0970
     14 C          -6.7273  -15.4637   27.1946 C.ar    1  UNL1        0.0427
     15 C          -8.1407  -15.9655   27.2112 C.ar    1  UNL1        0.1217
     16 N          -8.5228  -16.3211   25.8048 N.ar    1  UNL1       -0.1674
     17 C          -8.9244  -18.8424   22.3169 C.3     1  UNL1        0.0500
     18 C          -9.7074  -18.1923   21.2149 C.3     1  UNL1        0.0774
     19 N         -10.6980  -17.1124   21.5350 N.3     1  UNL1       -0.2700
     20 C         -11.1366  -16.8931   22.9526 C.3     1  UNL1        0.0897
     21 C         -11.2500  -16.2517   20.4375 C.3     1  UNL1        0.0897
@<TRIPOS>BOND
     1    11    10    1
     2    11     1    1
     3     1     2   ar
     4     2    17    1
     5    17    18    1
     6    18    19    1
     7    19    20    1
     8    19    21    1
     9     2     3   ar
    10     3     4   ar
    11     4     5   ar
    12     5     6   ar
    13     6     7   ar
    14     7     8   ar
    15     8     9   ar
    16    11    12    1
    17    12    13   ar
    18    13    14   ar
    19    14    15   ar
    20    15    16   ar
    21     9     1   ar
    22    16    12   ar
    23     9     4   ar
@<TRIPOS>MOLECULE
*****
 21 23 0 0 0
SMALL
GASTEIGER

@<TRIPOS>ATOM
      1 C          -7.4129  -18.2949   21.8609 C.ar    1  UNL1        0.0024
      2 C          -7.3987  -17.0303   22.6674 C.ar    1  UNL1        0.0065
      3 S          -8.6925  -16.3112   22.4246 S.2     1  UNL1       -0.0915
      4 C          -9.5064  -17.1314   21.4681 C.ar    1  UNL1        0.0289
      5 C         -10.8654  -16.9203   20.8694 C.ar    1  UNL1        0.0065
      6 C         -11.4335  -17.9353   19.9223 C.ar    1  UNL1        0.0005
      7 C         -10.6427  -19.1613   19.5739 C.ar    1  UNL1        0.0000
      8 C          -9.2837  -19.3724   20.1726 C.ar    1  UNL1        0.0002
      9 C          -8.7155  -18.3575   21.1197 C.ar    1  UNL1        0.0040
     10 C          -6.5462  -20.6934   22.3573 C.3     1  UNL1        0.0312
     11 C          -6.3170  -19.3176   21.8053 C.3     1  UNL1        0.1276
     12 N          -4.9918  -18.9645   21.1978 N.ar    1  UNL1       -0.2472
     13 C          -3.7020  -18.7808   21.9410 C.ar    1  UNL1        0.0970
     14 C          -2.6368  -18.4360   20.9429 C.ar    1  UNL1        0.0427
     15 C          -3.2682  -18.4065   19.5827 C.ar    1  UNL1        0.1217
     16 N          -4.7238  -18.7332   19.7402 N.ar    1  UNL1       -0.1674
     17 C          -6.2860  -16.5662   23.5599 C.3     1  UNL1        0.0500
     18 C          -6.4676  -15.3450   24.4117 C.3     1  UNL1        0.0774
     19 N          -7.0802  -15.4663   25.7756 N.3     1  UNL1       -0.2700
     20 C          -8.5722  -15.4958   25.9277 C.3     1  UNL1        0.0897
     21 C          -6.2008  -15.5579   26.9873 C.3     1  UNL1        0.0897
@<TRIPOS>BOND
     1    11    10    1
     2    11     1    1
     3     1     2   ar
     4     2    17    1
     5    17    18    1
     6    18    19    1
     7    19    20    1
     8    19    21    1
     9     2     3   ar
    10     3     4   ar
    11     4     5   ar
    12     5     6   ar
    13     6     7   ar
    14     7     8   ar
    15     8     9   ar
    16    11    12    1
    17    12    13   ar
    18    13    14   ar
    19    14    15   ar
    20    15    16   ar
    21     9     1   ar
    22    16    12   ar
    23     9     4   ar
