@<TRIPOS>MOLECULE
*****
 37 40 0 0 0
SMALL
GASTEIGER

@<TRIPOS>ATOM
      1 C           3.8555   -1.4286   24.3153 C.2     1  UNL1        0.0334
      2 C           3.4713   -1.3006   22.8710 C.2     1  UNL1        0.0122
      3 C           4.1574   -2.1409   21.8351 C.2     1  UNL1        0.0216
      4 C           5.2278   -3.1092   22.2435 C.2     1  UNL1        0.1008
      5 N           6.0736   -4.0627   21.4526 N.2     1  UNL1       -0.1483
      6 N           6.9805   -4.7800   22.4081 N.2     1  UNL1       -0.1483
      7 C           6.6952   -4.2698   23.7895 C.2     1  UNL1        0.1007
      8 C           5.6120   -3.2372   23.6878 C.2     1  UNL1        0.0223
      9 C           4.9258   -2.3969   24.7237 C.3     1  UNL1        0.0707
     10 N           3.1718    1.4601   26.9493 N.am    1  UNL1       -0.2686
     11 C           3.8580    0.6198   25.9134 C.2     1  UNL1        0.3079
     12 O           5.2328    0.9877   25.4396 O.2     1  UNL1       -0.2522
     13 N           3.1693   -0.5883   25.3512 N.am    1  UNL1       -0.2714
     14 H           3.6238    2.2531   27.3183 H       1  UNL1        0.1564
     15 H           2.2669   -0.8298   25.6622 H       1  UNL1        0.1561
     16 C           0.5900    1.6346   26.7165 C.ar    1  UNL1       -0.0090
     17 C          -0.7848    1.2667   27.1902 C.ar    1  UNL1       -0.0031
     18 C          -0.9527    0.3564   28.3706 C.ar    1  UNL1       -0.0006
     19 C           0.2541   -0.1860   29.0771 C.ar    1  UNL1       -0.0031
     20 C           1.6290    0.1819   28.6034 C.ar    1  UNL1       -0.0090
     21 C           1.7970    1.0922   27.4231 C.ar    1  UNL1        0.0435
     22 C           0.4659    2.0418   24.1535 C.3     1  UNL1        0.0051
     23 C           0.7580    2.5449   25.5362 C.3     1  UNL1        0.0276
     24 C           2.8359   -0.3604   29.3099 C.3     1  UNL1        0.0276
     25 C           2.7595   -0.7054   30.7677 C.3     1  UNL1        0.0051
     26 C           7.3739   -4.7142   25.0512 C.ar    1  UNL1        0.0205
     27 C           8.1152   -3.7194   25.8945 C.ar    1  UNL1        0.0016
     28 C           8.7939   -4.1638   27.1561 C.ar    1  UNL1        0.0014
     29 C           8.7315   -5.6029   27.5746 C.ar    1  UNL1        0.0199
     30 C           7.9903   -6.5976   26.7313 C.ar    1  UNL1        0.1217
     31 C           7.3115   -6.1532   25.4697 C.ar    1  UNL1        0.0214
     32 S           7.9278   -8.0368   27.1497 S.O2    1  UNL1        0.0572
     33 N           7.8654   -9.4758   27.5682 N.3     1  UNL1       -0.2035
     34 O           8.9289   -7.7651   28.2333 O.2     1  UNL1       -0.1532
     35 O           6.9267   -8.3083   26.0662 O.2     1  UNL1       -0.1532
     36 H           8.4931   -9.6279   28.3577 H       1  UNL1        0.1442
     37 H           8.1496  -10.0692   26.7888 H       1  UNL1        0.1442
@<TRIPOS>BOND
     1    22    23    1
     2    23    16    1
     3    16    17   ar
     4    17    18   ar
     5    18    19   ar
     6    19    20   ar
     7    20    24    1
     8    24    25    1
     9    20    21   ar
    10    21    10    1
    11    10    11   am
    12    11    12    2
    13    11    13   am
    14    13     1    1
    15     1     2    2
    16     2     3    1
    17     3     4    2
    18     4     5    1
    19     5     6    2
    20     6     7    1
    21     7    26    1
    22    26    27   ar
    23    27    28   ar
    24    28    29   ar
    25    29    30   ar
    26    30    32    1
    27    32    33    1
    28    32    34    2
    29    32    35    2
    30    30    31   ar
    31     7     8    2
    32     8     9    1
    33    21    16   ar
    34     9     1    1
    35     8     4    1
    36    31    26   ar
    37    10    14    1
    38    13    15    1
    39    33    36    1
    40    33    37    1
@<TRIPOS>MOLECULE
*****
 37 40 0 0 0
SMALL
GASTEIGER

@<TRIPOS>ATOM
      1 C           3.9040   -1.4433   24.1621 C.2     1  UNL1        0.0334
      2 C           3.5021   -1.3382   22.7208 C.2     1  UNL1        0.0122
      3 C           4.1773   -2.1931   21.6897 C.2     1  UNL1        0.0216
      4 C           5.2544   -3.1530   22.0999 C.2     1  UNL1        0.1008
      5 N           6.0925   -4.1171   21.3135 N.2     1  UNL1       -0.1483
      6 N           7.0123   -4.8179   22.2688 N.2     1  UNL1       -0.1483
      7 C           6.7428   -4.2870   23.6456 C.2     1  UNL1        0.1007
      8 C           5.6564   -3.2581   23.5412 C.2     1  UNL1        0.0223
      9 C           4.9812   -2.4032   24.5723 C.3     1  UNL1        0.0707
     10 N           3.0077    1.6795   26.4414 N.am    1  UNL1       -0.2686
     11 C           3.6830    0.8246   25.4102 C.2     1  UNL1        0.3079
     12 O           4.8123    1.3828   24.5960 O.2     1  UNL1       -0.2522
     13 N           3.2288   -0.5884   25.1933 N.am    1  UNL1       -0.2714
     14 H           3.3058    2.6070   26.5838 H       1  UNL1        0.1564
     15 H           2.4876   -0.9547   25.7277 H       1  UNL1        0.1561
     16 C           2.1657    0.3808   28.5281 C.ar    1  UNL1       -0.0090
     17 C           1.0363   -0.1774   29.3423 C.ar    1  UNL1       -0.0031
     18 C          -0.3803    0.0050   28.8841 C.ar    1  UNL1       -0.0006
     19 C          -0.6676    0.7456   27.6117 C.ar    1  UNL1       -0.0031
     20 C           0.4618    1.3037   26.7975 C.ar    1  UNL1       -0.0090
     21 C           1.8784    1.1214   27.2557 C.ar    1  UNL1        0.0435
     22 C           4.3378   -1.0422   28.6119 C.3     1  UNL1        0.0051
     23 C           3.5823    0.1984   28.9863 C.3     1  UNL1        0.0276
     24 C           0.1746    2.0443   25.5251 C.3     1  UNL1        0.0276
     25 C           0.2576    1.3320   24.2076 C.3     1  UNL1        0.0051
     26 C           7.4377   -4.7107   24.9055 C.ar    1  UNL1        0.0205
     27 C           8.2236   -3.7110   25.7012 C.ar    1  UNL1        0.0016
     28 C           8.9185   -4.1346   26.9611 C.ar    1  UNL1        0.0014
     29 C           8.8276   -5.5580   27.4256 C.ar    1  UNL1        0.0199
     30 C           8.0418   -6.5577   26.6300 C.ar    1  UNL1        0.1217
     31 C           7.3469   -6.1340   25.3700 C.ar    1  UNL1        0.0214
     32 S           7.9509   -7.9812   27.0944 S.O2    1  UNL1        0.0572
     33 N           7.8599   -9.4046   27.5587 N.3     1  UNL1       -0.2035
     34 O           6.9351   -8.2643   26.0276 O.2     1  UNL1       -0.1532
     35 O           8.9666   -7.6980   28.1612 O.2     1  UNL1       -0.1532
     36 H           7.1880   -9.9087   26.9800 H       1  UNL1        0.1442
     37 H           7.5541   -9.4260   28.5316 H       1  UNL1        0.1442
@<TRIPOS>BOND
     1    22    23    1
     2    23    16    1
     3    16    17   ar
     4    17    18   ar
     5    18    19   ar
     6    19    20   ar
     7    20    24    1
     8    24    25    1
     9    20    21   ar
    10    21    10    1
    11    10    11   am
    12    11    12    2
    13    11    13   am
    14    13     1    1
    15     1     2    2
    16     2     3    1
    17     3     4    2
    18     4     5    1
    19     5     6    2
    20     6     7    1
    21     7    26    1
    22    26    27   ar
    23    27    28   ar
    24    28    29   ar
    25    29    30   ar
    26    30    32    1
    27    32    33    1
    28    32    34    2
    29    32    35    2
    30    30    31   ar
    31     7     8    2
    32     8     9    1
    33    21    16   ar
    34     9     1    1
    35     8     4    1
    36    31    26   ar
    37    10    14    1
    38    13    15    1
    39    33    36    1
    40    33    37    1
@<TRIPOS>MOLECULE
*****
 37 40 0 0 0
SMALL
GASTEIGER

@<TRIPOS>ATOM
      1 C         -15.6402   -4.1796   18.9673 C.2     1  UNL1        0.0334
      2 C         -16.6725   -5.2466   19.1814 C.2     1  UNL1        0.0122
      3 C         -18.0232   -4.8853   19.7246 C.2     1  UNL1        0.0216
      4 C         -18.3415   -3.4569   20.0538 C.2     1  UNL1        0.1008
      5 N         -19.5771   -2.8039   20.5989 N.2     1  UNL1       -0.1483
      6 N         -19.3083   -1.3333   20.7218 N.2     1  UNL1       -0.1483
      7 C         -17.9067   -1.0774   20.2526 C.2     1  UNL1        0.1007
      8 C         -17.3092   -2.3899   19.8397 C.2     1  UNL1        0.0223
      9 C         -15.9586   -2.7513   19.2965 C.3     1  UNL1        0.0707
     10 N         -12.6397   -4.7075   16.4240 N.am    1  UNL1       -0.2686
     11 C         -13.9904   -4.3461   16.9672 C.2     1  UNL1        0.3079
     12 O         -15.0419   -3.7899   16.0535 O.2     1  UNL1       -0.2522
     13 N         -14.2895   -4.5410   18.4241 N.am    1  UNL1       -0.2714
     14 H         -12.4433   -4.5796   15.4678 H       1  UNL1        0.1564
     15 H         -13.5993   -4.9061   19.0238 H       1  UNL1        0.1561
     16 C         -10.6878   -4.3354   18.0979 C.ar    1  UNL1       -0.0090
     17 C          -9.6362   -4.8917   19.0116 C.ar    1  UNL1       -0.0031
     18 C          -9.4850   -6.3762   19.1651 C.ar    1  UNL1       -0.0006
     19 C         -10.3853   -7.3043   18.4050 C.ar    1  UNL1       -0.0031
     20 C         -11.4369   -6.7481   17.4913 C.ar    1  UNL1       -0.0090
     21 C         -11.5881   -5.2637   17.3377 C.ar    1  UNL1        0.0435
     22 C         -11.6832   -2.0788   18.9145 C.3     1  UNL1        0.0051
     23 C         -10.8390   -2.8510   17.9443 C.3     1  UNL1        0.0276
     24 C         -12.3372   -7.6763   16.7311 C.3     1  UNL1        0.0276
     25 C         -13.6496   -8.0990   17.3217 C.3     1  UNL1        0.0051
     26 C         -17.2227    0.2567   20.2046 C.ar    1  UNL1        0.0205
     27 C         -17.5083    1.2843   21.2594 C.ar    1  UNL1        0.0016
     28 C         -16.8242    2.6184   21.2114 C.ar    1  UNL1        0.0014
     29 C         -15.8547    2.9249   20.1088 C.ar    1  UNL1        0.0199
     30 C         -15.5691    1.8973   19.0540 C.ar    1  UNL1        0.1217
     31 C         -16.2531    0.5632   19.1020 C.ar    1  UNL1        0.0214
     32 S         -14.5995    2.2039   17.9513 S.O2    1  UNL1        0.0572
     33 N         -13.6299    2.5103   16.8486 N.3     1  UNL1       -0.2035
     34 O         -13.5655    1.3499   18.6231 O.2     1  UNL1       -0.1532
     35 O         -15.6336    3.0579   17.2794 O.2     1  UNL1       -0.1532
     36 H         -12.7472    2.0323   17.0294 H       1  UNL1        0.1442
     37 H         -13.4692    3.5167   16.8071 H       1  UNL1        0.1442
@<TRIPOS>BOND
     1    22    23    1
     2    23    16    1
     3    16    17   ar
     4    17    18   ar
     5    18    19   ar
     6    19    20   ar
     7    20    24    1
     8    24    25    1
     9    20    21   ar
    10    21    10    1
    11    10    11   am
    12    11    12    2
    13    11    13   am
    14    13     1    1
    15     1     2    2
    16     2     3    1
    17     3     4    2
    18     4     5    1
    19     5     6    2
    20     6     7    1
    21     7    26    1
    22    26    27   ar
    23    27    28   ar
    24    28    29   ar
    25    29    30   ar
    26    30    32    1
    27    32    33    1
    28    32    34    2
    29    32    35    2
    30    30    31   ar
    31     7     8    2
    32     8     9    1
    33    21    16   ar
    34     9     1    1
    35     8     4    1
    36    31    26   ar
    37    10    14    1
    38    13    15    1
    39    33    36    1
    40    33    37    1
@<TRIPOS>MOLECULE
*****
 37 40 0 0 0
SMALL
GASTEIGER

@<TRIPOS>ATOM
      1 C         -15.6777   -4.1755   18.9609 C.2     1  UNL1        0.0334
      2 C         -16.7080   -5.2457   19.1683 C.2     1  UNL1        0.0122
      3 C         -18.0601   -4.8899   19.7115 C.2     1  UNL1        0.0216
      4 C         -18.3819   -3.4638   20.0472 C.2     1  UNL1        0.1008
      5 N         -19.6196   -2.8161   20.5939 N.2     1  UNL1       -0.1483
      6 N         -19.3541   -1.3456   20.7244 N.2     1  UNL1       -0.1483
      7 C         -17.9524   -1.0845   20.2583 C.2     1  UNL1        0.1007
      8 C         -17.3516   -2.3936   19.8398 C.2     1  UNL1        0.0223
      9 C         -15.9995   -2.7494   19.2967 C.3     1  UNL1        0.0707
     10 N         -12.6671   -4.6689   16.4225 N.am    1  UNL1       -0.2686
     11 C         -14.0193   -4.3131   16.9656 C.2     1  UNL1        0.3079
     12 O         -15.0653   -3.7390   16.0567 O.2     1  UNL1       -0.2522
     13 N         -14.3254   -4.5314   18.4177 N.am    1  UNL1       -0.2714
     14 H         -12.4662   -4.5256   15.4694 H       1  UNL1        0.1564
     15 H         -13.6389   -4.9082   19.0143 H       1  UNL1        0.1561
     16 C         -11.4849   -6.7301   17.4731 C.ar    1  UNL1       -0.0090
     17 C         -10.4389   -7.3043   18.3821 C.ar    1  UNL1       -0.0031
     18 C          -9.5290   -6.3912   19.1494 C.ar    1  UNL1       -0.0006
     19 C          -9.6652   -4.9042   19.0076 C.ar    1  UNL1       -0.0031
     20 C         -10.7112   -4.3301   18.0987 C.ar    1  UNL1       -0.0090
     21 C         -11.6211   -5.2430   17.3314 C.ar    1  UNL1        0.0435
     22 C         -13.6994   -8.0785   17.3047 C.3     1  UNL1        0.0051
     23 C         -12.3948   -7.6431   16.7059 C.3     1  UNL1        0.0276
     24 C         -10.8474   -2.8431   17.9569 C.3     1  UNL1        0.0276
     25 C         -11.6854   -2.0703   18.9320 C.3     1  UNL1        0.0051
     26 C         -17.2712    0.2513   20.2178 C.ar    1  UNL1        0.0205
     27 C         -17.5566    1.2713   21.2800 C.ar    1  UNL1        0.0016
     28 C         -16.8753    2.6070   21.2396 C.ar    1  UNL1        0.0014
     29 C         -15.9087    2.9229   20.1370 C.ar    1  UNL1        0.0199
     30 C         -15.6233    1.9029   19.0748 C.ar    1  UNL1        0.1217
     31 C         -16.3045    0.5672   19.1152 C.ar    1  UNL1        0.0214
     32 S         -14.6566    2.2187   17.9721 S.O2    1  UNL1        0.0572
     33 N         -13.6899    2.5345   16.8695 N.3     1  UNL1       -0.2035
     34 O         -13.5981    1.4180   18.6708 O.2     1  UNL1       -0.1532
     35 O         -15.7152    3.0195   17.2734 O.2     1  UNL1       -0.1532
     36 H         -12.7921    2.0927   17.0675 H       1  UNL1        0.1442
     37 H         -13.5649    3.5448   16.8058 H       1  UNL1        0.1442
@<TRIPOS>BOND
     1    22    23    1
     2    23    16    1
     3    16    17   ar
     4    17    18   ar
     5    18    19   ar
     6    19    20   ar
     7    20    24    1
     8    24    25    1
     9    20    21   ar
    10    21    10    1
    11    10    11   am
    12    11    12    2
    13    11    13   am
    14    13     1    1
    15     1     2    2
    16     2     3    1
    17     3     4    2
    18     4     5    1
    19     5     6    2
    20     6     7    1
    21     7    26    1
    22    26    27   ar
    23    27    28   ar
    24    28    29   ar
    25    29    30   ar
    26    30    32    1
    27    32    33    1
    28    32    34    2
    29    32    35    2
    30    30    31   ar
    31     7     8    2
    32     8     9    1
    33    21    16   ar
    34     9     1    1
    35     8     4    1
    36    31    26   ar
    37    10    14    1
    38    13    15    1
    39    33    36    1
    40    33    37    1
@<TRIPOS>MOLECULE
*****
 37 40 0 0 0
SMALL
GASTEIGER

@<TRIPOS>ATOM
      1 C           0.0699    5.0041   32.3965 C.2     1  UNL1        0.0334
      2 C          -0.9482    6.0964   32.2541 C.2     1  UNL1        0.0122
      3 C          -1.2768    6.9728   33.4262 C.2     1  UNL1        0.0216
      4 C          -0.5873    6.7569   34.7407 C.2     1  UNL1        0.1008
      5 N          -0.7038    7.4573   36.0621 N.2     1  UNL1       -0.1483
      6 N           0.2424    6.7978   37.0212 N.2     1  UNL1       -0.1483
      7 C           0.9436    5.6899   36.2925 C.2     1  UNL1        0.1007
      8 C           0.4308    5.6647   34.8831 C.2     1  UNL1        0.0223
      9 C           0.7594    4.7883   33.7110 C.3     1  UNL1        0.0707
     10 N           1.8197    3.6462   29.1034 N.am    1  UNL1       -0.2686
     11 C           1.4911    4.5226   30.2755 C.2     1  UNL1        0.3079
     12 O           2.2550    5.7941   30.4987 O.2     1  UNL1       -0.2522
     13 N           0.3986    4.1276   31.2244 N.am    1  UNL1       -0.2714
     14 H           2.5368    3.9054   28.4806 H       1  UNL1        0.1564
     15 H          -0.1028    3.2931   31.0778 H       1  UNL1        0.1561
     16 C           1.4913    1.1093   29.5578 C.ar    1  UNL1       -0.0090
     17 C           0.7274   -0.1622   29.3346 C.ar    1  UNL1       -0.0031
     18 C          -0.4720   -0.1682   28.4337 C.ar    1  UNL1       -0.0006
     19 C          -0.9074    1.0971   27.7561 C.ar    1  UNL1       -0.0031
     20 C          -0.1435    2.3686   27.9793 C.ar    1  UNL1       -0.0090
     21 C           1.0558    2.3747   28.8801 C.ar    1  UNL1        0.0435
     22 C           2.5103    1.1383   31.9476 C.3     1  UNL1        0.0051
     23 C           2.6907    1.1154   30.4586 C.3     1  UNL1        0.0276
     24 C          -0.5789    3.6340   27.3018 C.3     1  UNL1        0.0276
     25 C          -1.8740    3.6726   26.5459 C.3     1  UNL1        0.0051
     26 C           1.9763    4.7689   36.8716 C.ar    1  UNL1        0.0205
     27 C           3.4346    5.0808   36.7097 C.ar    1  UNL1        0.0016
     28 C           4.4673    4.1598   37.2888 C.ar    1  UNL1        0.0014
     29 C           4.0418    2.9270   38.0297 C.ar    1  UNL1        0.0199
     30 C           2.5835    2.6151   38.1916 C.ar    1  UNL1        0.1217
     31 C           1.5508    3.5361   37.6125 C.ar    1  UNL1        0.0214
     32 S           2.1579    1.3822   38.9325 S.O2    1  UNL1        0.0572
     33 N           1.7325    0.1493   39.6734 N.3     1  UNL1       -0.2035
     34 O           3.5915    1.0817   39.2557 O.2     1  UNL1       -0.1532
     35 O           0.7244    1.6828   38.6092 O.2     1  UNL1       -0.1532
     36 H           2.5551   -0.3228   40.0486 H       1  UNL1        0.1442
     37 H           1.2416   -0.4779   39.0362 H       1  UNL1        0.1442
@<TRIPOS>BOND
     1    22    23    1
     2    23    16    1
     3    16    17   ar
     4    17    18   ar
     5    18    19   ar
     6    19    20   ar
     7    20    24    1
     8    24    25    1
     9    20    21   ar
    10    21    10    1
    11    10    11   am
    12    11    12    2
    13    11    13   am
    14    13     1    1
    15     1     2    2
    16     2     3    1
    17     3     4    2
    18     4     5    1
    19     5     6    2
    20     6     7    1
    21     7    26    1
    22    26    27   ar
    23    27    28   ar
    24    28    29   ar
    25    29    30   ar
    26    30    32    1
    27    32    33    1
    28    32    34    2
    29    32    35    2
    30    30    31   ar
    31     7     8    2
    32     8     9    1
    33    21    16   ar
    34     9     1    1
    35     8     4    1
    36    31    26   ar
    37    10    14    1
    38    13    15    1
    39    33    36    1
    40    33    37    1
@<TRIPOS>MOLECULE
*****
 37 40 0 0 0
SMALL
GASTEIGER

@<TRIPOS>ATOM
      1 C           5.0300   -2.0847   25.3368 C.2     1  UNL1        0.0334
      2 C           4.3892   -1.3542   26.4794 C.2     1  UNL1        0.0122
      3 C           3.2978   -0.3595   26.2158 C.2     1  UNL1        0.0216
      4 C           2.8473   -0.0953   24.8097 C.2     1  UNL1        0.1008
      5 N           1.8026    0.8218   24.2460 N.2     1  UNL1       -0.1483
      6 N           1.7978    0.6580   22.7550 N.2     1  UNL1       -0.1483
      7 C           2.8395   -0.3603   22.3972 C.2     1  UNL1        0.1007
      8 C           3.4881   -0.8258   23.6671 C.2     1  UNL1        0.0223
      9 C           4.5795   -1.8205   23.9306 C.3     1  UNL1        0.0707
     10 N           8.6019   -3.5996   26.1719 N.am    1  UNL1       -0.2686
     11 C           7.5105   -2.6048   25.9084 C.2     1  UNL1        0.3079
     12 O           7.8083   -1.1353   25.9532 O.2     1  UNL1       -0.2522
     13 N           6.1214   -3.0795   25.6003 N.am    1  UNL1       -0.2714
     14 H           9.5136   -3.2880   26.3742 H       1  UNL1        0.1564
     15 H           5.9260   -4.0440   25.5709 H       1  UNL1        0.1561
     16 C           8.3826   -5.8109   24.8258 C.ar    1  UNL1       -0.0090
     17 C           8.0848   -7.2804   24.7811 C.ar    1  UNL1       -0.0031
     18 C           7.7085   -8.0079   26.0378 C.ar    1  UNL1       -0.0006
     19 C           7.6300   -7.2661   27.3391 C.ar    1  UNL1       -0.0031
     20 C           7.9278   -5.7966   27.3838 C.ar    1  UNL1       -0.0090
     21 C           8.3041   -5.0690   26.1272 C.ar    1  UNL1        0.0435
     22 C           7.6899   -4.5289   22.6749 C.3     1  UNL1        0.0051
     23 C           8.7589   -5.0833   23.5693 C.3     1  UNL1        0.0276
     24 C           7.8493   -5.0547   28.6851 C.3     1  UNL1        0.0276
     25 C           6.8912   -5.5043   29.7481 C.3     1  UNL1        0.0051
     26 C           3.1739   -0.8305   21.0126 C.ar    1  UNL1        0.0205
     27 C           3.0882    0.1210   19.8563 C.ar    1  UNL1        0.0016
     28 C           3.4226   -0.3492   18.4717 C.ar    1  UNL1        0.0014
     29 C           3.8427   -1.7709   18.2434 C.ar    1  UNL1        0.0199
     30 C           3.9284   -2.7224   19.3998 C.ar    1  UNL1        0.1217
     31 C           3.5940   -2.2522   20.7844 C.ar    1  UNL1        0.0214
     32 S           4.3486   -4.1443   19.1716 S.O2    1  UNL1        0.0572
     33 N           4.7688   -5.5660   18.9434 N.3     1  UNL1       -0.2035
     34 O           5.7823   -3.7532   19.3748 O.2     1  UNL1       -0.1532
     35 O           2.9148   -4.5353   18.9683 O.2     1  UNL1       -0.1532
     36 H           5.7832   -5.6375   19.0219 H       1  UNL1        0.1442
     37 H           4.4783   -5.8609   18.0111 H       1  UNL1        0.1442
@<TRIPOS>BOND
     1    22    23    1
     2    23    16    1
     3    16    17   ar
     4    17    18   ar
     5    18    19   ar
     6    19    20   ar
     7    20    24    1
     8    24    25    1
     9    20    21   ar
    10    21    10    1
    11    10    11   am
    12    11    12    2
    13    11    13   am
    14    13     1    1
    15     1     2    2
    16     2     3    1
    17     3     4    2
    18     4     5    1
    19     5     6    2
    20     6     7    1
    21     7    26    1
    22    26    27   ar
    23    27    28   ar
    24    28    29   ar
    25    29    30   ar
    26    30    32    1
    27    32    33    1
    28    32    34    2
    29    32    35    2
    30    30    31   ar
    31     7     8    2
    32     8     9    1
    33    21    16   ar
    34     9     1    1
    35     8     4    1
    36    31    26   ar
    37    10    14    1
    38    13    15    1
    39    33    36    1
    40    33    37    1
@<TRIPOS>MOLECULE
*****
 37 40 0 0 0
SMALL
GASTEIGER

@<TRIPOS>ATOM
      1 C           5.5525   -2.7003   23.0445 C.2     1  UNL1        0.0334
      2 C           6.5474   -3.8170   23.1587 C.2     1  UNL1        0.0122
      3 C           7.1051   -4.1903   24.5001 C.2     1  UNL1        0.0216
      4 C           6.6679   -3.4470   25.7274 C.2     1  UNL1        0.1008
      5 N           7.0415   -3.5890   27.1732 N.2     1  UNL1       -0.1483
      6 N           6.2775   -2.5600   27.9526 N.2     1  UNL1       -0.1483
      7 C           5.4317   -1.7821   26.9885 C.2     1  UNL1        0.1007
      8 C           5.6729   -2.3303   25.6133 C.2     1  UNL1        0.0223
      9 C           5.1152   -1.9570   24.2718 C.3     1  UNL1        0.0707
     10 N           3.7429   -2.9863   19.5239 N.am    1  UNL1       -0.2686
     11 C           4.3007   -3.3597   20.8654 C.2     1  UNL1        0.3079
     12 O           4.1643   -4.7660   21.3693 O.2     1  UNL1       -0.2522
     13 N           4.9947   -2.3269   21.7030 N.am    1  UNL1       -0.2714
     14 H           3.2874   -3.6642   18.9742 H       1  UNL1        0.1564
     15 H           5.0842   -1.4039   21.3723 H       1  UNL1        0.1561
     16 C           2.8005   -0.5756   19.2988 C.ar    1  UNL1       -0.0090
     17 C           2.9369    0.8306   18.7949 C.ar    1  UNL1       -0.0031
     18 C           4.1519    1.2324   18.0123 C.ar    1  UNL1       -0.0006
     19 C           5.2305    0.2280   17.7336 C.ar    1  UNL1       -0.0031
     20 C           5.0942   -1.1783   18.2375 C.ar    1  UNL1       -0.0090
     21 C           3.8792   -1.5801   19.0201 C.ar    1  UNL1        0.0435
     22 C           0.5269    0.0374   20.3964 C.3     1  UNL1        0.0051
     23 C           1.5856   -0.9775   20.0813 C.3     1  UNL1        0.0276
     24 C           6.1728   -2.1827   17.9588 C.3     1  UNL1        0.0276
     25 C           7.4091   -2.2106   18.8077 C.3     1  UNL1        0.0051
     26 C           4.5069   -0.6540   27.3382 C.ar    1  UNL1        0.0205
     27 C           4.9147    0.7630   27.0626 C.ar    1  UNL1        0.0016
     28 C           3.9899    1.8910   27.4123 C.ar    1  UNL1        0.0014
     29 C           2.6574    1.6022   28.0376 C.ar    1  UNL1        0.0199
     30 C           2.2497    0.1852   28.3131 C.ar    1  UNL1        0.1217
     31 C           3.1744   -0.9429   27.9634 C.ar    1  UNL1        0.0214
     32 S           0.9171   -0.1037   28.9384 S.O2    1  UNL1        0.0572
     33 N          -0.4155   -0.3926   29.5635 N.3     1  UNL1       -0.2035
     34 O           0.2284    0.4718   27.7365 O.2     1  UNL1       -0.1532
     35 O           1.6058   -0.6792   30.1402 O.2     1  UNL1       -0.1532
     36 H          -1.1590   -0.0891   28.9347 H       1  UNL1        0.1442
     37 H          -0.4921    0.1096   30.4480 H       1  UNL1        0.1442
@<TRIPOS>BOND
     1    22    23    1
     2    23    16    1
     3    16    17   ar
     4    17    18   ar
     5    18    19   ar
     6    19    20   ar
     7    20    24    1
     8    24    25    1
     9    20    21   ar
    10    21    10    1
    11    10    11   am
    12    11    12    2
    13    11    13   am
    14    13     1    1
    15     1     2    2
    16     2     3    1
    17     3     4    2
    18     4     5    1
    19     5     6    2
    20     6     7    1
    21     7    26    1
    22    26    27   ar
    23    27    28   ar
    24    28    29   ar
    25    29    30   ar
    26    30    32    1
    27    32    33    1
    28    32    34    2
    29    32    35    2
    30    30    31   ar
    31     7     8    2
    32     8     9    1
    33    21    16   ar
    34     9     1    1
    35     8     4    1
    36    31    26   ar
    37    10    14    1
    38    13    15    1
    39    33    36    1
    40    33    37    1
@<TRIPOS>MOLECULE
*****
 37 40 0 0 0
SMALL
GASTEIGER

@<TRIPOS>ATOM
      1 C           4.4782   -1.7612   24.5792 C.2     1  UNL1        0.0334
      2 C           5.4204   -2.7998   25.1114 C.2     1  UNL1        0.0122
      3 C           6.1657   -3.6923   24.1639 C.2     1  UNL1        0.0216
      4 C           5.9687   -3.5462   22.6841 C.2     1  UNL1        0.1008
      5 N           6.5610   -4.2771   21.5157 N.2     1  UNL1       -0.1483
      6 N           5.9847   -3.6902   20.2613 N.2     1  UNL1       -0.1483
      7 C           5.0363   -2.5966   20.6545 C.2     1  UNL1        0.1007
      8 C           5.0264   -2.5076   22.1518 C.2     1  UNL1        0.0223
      9 C           4.2811   -1.6151   23.0994 C.3     1  UNL1        0.0707
     10 N           3.6821    1.1937   27.1062 N.am    1  UNL1       -0.2686
     11 C           4.4275    0.3011   26.1586 C.2     1  UNL1        0.3079
     12 O           5.8674    0.5782   25.8430 O.2     1  UNL1       -0.2522
     13 N           3.7328   -0.8686   25.5267 N.am    1  UNL1       -0.2714
     14 H           4.1380    1.9614   27.5209 H       1  UNL1        0.1564
     15 H           2.7877   -1.0505   25.7339 H       1  UNL1        0.1561
     16 C           1.8848    0.0346   28.5814 C.ar    1  UNL1       -0.0090
     17 C           0.4448   -0.2426   28.8970 C.ar    1  UNL1       -0.0031
     18 C          -0.6378    0.3623   28.0531 C.ar    1  UNL1       -0.0006
     19 C          -0.2805    1.2442   26.8936 C.ar    1  UNL1       -0.0031
     20 C           1.1595    1.5213   26.5780 C.ar    1  UNL1       -0.0090
     21 C           2.2421    0.9165   27.4218 C.ar    1  UNL1        0.0435
     22 C           2.8244   -0.6035   30.9181 C.3     1  UNL1        0.0051
     23 C           2.9674   -0.5702   29.4252 C.3     1  UNL1        0.0276
     24 C           1.5169    2.4033   25.4185 C.3     1  UNL1        0.0276
     25 C           1.6653    1.8151   24.0466 C.3     1  UNL1        0.0051
     26 C           4.2380   -1.7419   19.7152 C.ar    1  UNL1        0.0205
     27 C           4.6984   -1.5501   18.3006 C.ar    1  UNL1        0.0016
     28 C           3.9001   -0.6955   17.3613 C.ar    1  UNL1        0.0014
     29 C           2.6412   -0.0326   17.8366 C.ar    1  UNL1        0.0199
     30 C           2.1808   -0.2245   19.2513 C.ar    1  UNL1        0.1217
     31 C           2.9791   -1.0791   20.1905 C.ar    1  UNL1        0.0214
     32 S           0.9218    0.4384   19.7266 S.O2    1  UNL1        0.0572
     33 N          -0.3370    1.1012   20.2019 N.3     1  UNL1       -0.2035
     34 O           0.6463    0.9155   18.3315 O.2     1  UNL1       -0.1532
     35 O           1.1974   -0.0388   21.1218 O.2     1  UNL1       -0.1532
     36 H          -0.7990    1.5573   19.4152 H       1  UNL1        0.1442
     37 H          -0.1078    1.7970   20.9116 H       1  UNL1        0.1442
@<TRIPOS>BOND
     1    22    23    1
     2    23    16    1
     3    16    17   ar
     4    17    18   ar
     5    18    19   ar
     6    19    20   ar
     7    20    24    1
     8    24    25    1
     9    20    21   ar
    10    21    10    1
    11    10    11   am
    12    11    12    2
    13    11    13   am
    14    13     1    1
    15     1     2    2
    16     2     3    1
    17     3     4    2
    18     4     5    1
    19     5     6    2
    20     6     7    1
    21     7    26    1
    22    26    27   ar
    23    27    28   ar
    24    28    29   ar
    25    29    30   ar
    26    30    32    1
    27    32    33    1
    28    32    34    2
    29    32    35    2
    30    30    31   ar
    31     7     8    2
    32     8     9    1
    33    21    16   ar
    34     9     1    1
    35     8     4    1
    36    31    26   ar
    37    10    14    1
    38    13    15    1
    39    33    36    1
    40    33    37    1
@<TRIPOS>MOLECULE
*****
 37 40 0 0 0
SMALL
GASTEIGER

@<TRIPOS>ATOM
      1 C           5.4673   -2.4712   23.2289 C.2     1  UNL1        0.0334
      2 C           6.5214   -3.5121   23.4643 C.2     1  UNL1        0.0122
      3 C           7.0047   -3.7885   24.8571 C.2     1  UNL1        0.0216
      4 C           6.4339   -3.0241   26.0146 C.2     1  UNL1        0.1008
      5 N           6.7116   -3.0778   27.4877 N.2     1  UNL1       -0.1483
      6 N           5.8291   -2.0701   28.1628 N.2     1  UNL1       -0.1483
      7 C           5.0060   -1.3937   27.1069 C.2     1  UNL1        0.1007
      8 C           5.3798   -1.9832   25.7793 C.2     1  UNL1        0.0223
      9 C           4.8965   -1.7068   24.3864 C.3     1  UNL1        0.0707
     10 N           3.9011   -3.0228   19.6243 N.am    1  UNL1       -0.2686
     11 C           4.3845   -3.2993   21.0172 C.2     1  UNL1        0.3079
     12 O           4.2683   -4.6803   21.5911 O.2     1  UNL1       -0.2522
     13 N           4.9840   -2.1948   21.8361 N.am    1  UNL1       -0.2714
     14 H           3.5077   -3.7477   19.0868 H       1  UNL1        0.1564
     15 H           5.0602   -1.2884   21.4594 H       1  UNL1        0.1561
     16 C           5.2195   -1.2671   18.2351 C.ar    1  UNL1       -0.0090
     17 C           5.3356    0.1139   17.6613 C.ar    1  UNL1       -0.0031
     18 C           4.2497    1.1202   17.9026 C.ar    1  UNL1       -0.0006
     19 C           3.0477    0.7455   18.7178 C.ar    1  UNL1       -0.0031
     20 C           2.9315   -0.6355   19.2917 C.ar    1  UNL1       -0.0090
     21 C           4.0173   -1.6418   19.0504 C.ar    1  UNL1        0.0435
     22 C           7.5410   -2.2618   18.8441 C.3     1  UNL1        0.0051
     23 C           6.3053   -2.2734   17.9938 C.3     1  UNL1        0.0276
     24 C           1.7294   -1.0103   20.1069 C.3     1  UNL1        0.0276
     25 C           0.6344   -0.0101   20.3320 C.3     1  UNL1        0.0051
     26 C           3.9878   -0.3167   27.3381 C.ar    1  UNL1        0.0205
     27 C           4.2770    1.0925   26.9131 C.ar    1  UNL1        0.0016
     28 C           3.2588    2.1695   27.1443 C.ar    1  UNL1        0.0014
     29 C           1.9515    1.8374   27.8004 C.ar    1  UNL1        0.0199
     30 C           1.6624    0.4282   28.2254 C.ar    1  UNL1        0.1217
     31 C           2.6805   -0.6488   27.9942 C.ar    1  UNL1        0.0214
     32 S           0.3550    0.0960   28.8816 S.O2    1  UNL1        0.0572
     33 N          -0.9524   -0.2362   29.5377 N.3     1  UNL1       -0.2035
     34 O          -0.3768    0.5513   27.6540 O.2     1  UNL1       -0.1532
     35 O           1.0868   -0.3593   30.1092 O.2     1  UNL1       -0.1532
     36 H          -1.7179   -0.0196   28.8993 H       1  UNL1        0.1442
     37 H          -1.0545    0.3144   30.3902 H       1  UNL1        0.1442
@<TRIPOS>BOND
     1    22    23    1
     2    23    16    1
     3    16    17   ar
     4    17    18   ar
     5    18    19   ar
     6    19    20   ar
     7    20    24    1
     8    24    25    1
     9    20    21   ar
    10    21    10    1
    11    10    11   am
    12    11    12    2
    13    11    13   am
    14    13     1    1
    15     1     2    2
    16     2     3    1
    17     3     4    2
    18     4     5    1
    19     5     6    2
    20     6     7    1
    21     7    26    1
    22    26    27   ar
    23    27    28   ar
    24    28    29   ar
    25    29    30   ar
    26    30    32    1
    27    32    33    1
    28    32    34    2
    29    32    35    2
    30    30    31   ar
    31     7     8    2
    32     8     9    1
    33    21    16   ar
    34     9     1    1
    35     8     4    1
    36    31    26   ar
    37    10    14    1
    38    13    15    1
    39    33    36    1
    40    33    37    1
