@<TRIPOS>MOLECULE
*****
 28 29 0 0 0
SMALL
GASTEIGER

@<TRIPOS>ATOM
      1 C         -13.1355   -6.4095   18.5134 C.ar    1  UNL1        0.1552
      2 N         -11.7816   -6.9852   18.8061 N.ar    1  UNL1       -0.1930
      3 C         -10.6133   -6.0736   19.0382 C.ar    1  UNL1        0.2594
      4 O          -9.2594   -6.6493   19.3309 O.3     1  UNL1       -0.4899
      5 C         -10.7987   -4.5864   18.9778 C.ar    1  UNL1        0.2098
      6 O          -9.6304   -3.6748   19.2100 O.3     1  UNL1       -0.5007
      7 C         -12.1526   -4.0107   18.6851 C.ar    1  UNL1        0.1740
      8 N         -13.3210   -4.9223   18.4529 N.ar    1  UNL1       -0.2215
      9 H          -9.1435   -7.5783   19.3687 H       1  UNL1        0.2938
     10 H          -8.7846   -4.0344   19.3928 H       1  UNL1        0.2924
     11 C         -12.3381   -2.5234   18.6246 C.2     1  UNL1        0.2671
     12 O         -11.3446   -1.6161   19.2877 O.2     1  UNL1       -0.2684
     13 N         -13.5172   -1.9435   17.9011 N.am    1  UNL1       -0.2956
     14 H         -14.1692   -2.5390   17.4659 H       1  UNL1        0.1501
     15 C         -13.7027   -0.4562   17.8406 C.3     1  UNL1        0.1166
     16 C         -14.7190    0.2092   18.7206 C.ar    1  UNL1       -0.0024
     17 C         -14.8329    1.7048   18.7365 C.ar    1  UNL1       -0.0003
     18 C         -15.8492    2.3702   19.6164 C.ar    1  UNL1        0.0294
     19 C         -16.7516    1.5401   20.4805 C.ar    1  UNL1        0.1401
     20 F         -17.7679    2.2055   21.3604 F       1  UNL1       -0.2042
     21 C         -16.6377    0.0445   20.4646 C.ar    1  UNL1        0.0294
     22 C         -15.6213   -0.6209   19.5846 C.ar    1  UNL1       -0.0003
     23 C         -14.3038   -7.3211   18.2812 C.3     1  UNL1        0.0981
     24 C         -13.5290   -8.0439   17.2195 C.3     1  UNL1        0.0238
     25 C         -15.0787   -6.5984   19.3429 C.3     1  UNL1        0.0238
     26 C         -16.8406   -7.6578   17.8323 C.3     1  UNL1        0.0899
     27 N         -15.4722   -8.2327   18.0490 N.3     1  UNL1       -0.2667
     28 C         -15.2722   -9.7192   18.0336 C.3     1  UNL1        0.0899
@<TRIPOS>BOND
     1    26    27    1
     2    27    28    1
     3    27    23    1
     4    23    24    1
     5    23    25    1
     6    23     1    1
     7     1     2   ar
     8     2     3   ar
     9     3     4    1
    10     3     5   ar
    11     5     6    1
    12     5     7   ar
    13     7    11    1
    14    11    12    2
    15    11    13   am
    16    13    15    1
    17    15    16    1
    18    16    17   ar
    19    17    18   ar
    20    18    19   ar
    21    19    20    1
    22    19    21   ar
    23    21    22   ar
    24     7     8   ar
    25     8     1   ar
    26    22    16   ar
    27     4     9    1
    28     6    10    1
    29    13    14    1
@<TRIPOS>MOLECULE
*****
 28 29 0 0 0
SMALL
GASTEIGER

@<TRIPOS>ATOM
      1 C           3.4570   -0.4891   20.1091 C.ar    1  UNL1        0.1552
      2 N           3.1775   -0.5610   18.6371 N.ar    1  UNL1       -0.1930
      3 C           4.1737   -1.1991   17.7148 C.ar    1  UNL1        0.2594
      4 O           3.8941   -1.2710   16.2428 O.3     1  UNL1       -0.4899
      5 C           5.4493   -1.7652   18.2645 C.ar    1  UNL1        0.2098
      6 O           6.4455   -2.4033   17.3422 O.3     1  UNL1       -0.5007
      7 C           5.7288   -1.6933   19.7365 C.ar    1  UNL1        0.1740
      8 N           4.7327   -1.0552   20.6587 N.ar    1  UNL1       -0.2215
      9 H           3.0972   -0.9174   15.8995 H       1  UNL1        0.2938
     10 H           6.2709   -2.4482   16.4228 H       1  UNL1        0.2924
     11 C           7.0045   -2.2594   20.2862 C.2     1  UNL1        0.2671
     12 O           8.3252   -1.7863   19.7552 O.2     1  UNL1       -0.2684
     13 N           6.9595   -3.2987   21.3669 N.am    1  UNL1       -0.2956
     14 H           6.0927   -3.6092   21.7154 H       1  UNL1        0.1501
     15 C           8.2352   -3.8648   21.9166 C.3     1  UNL1        0.1166
     16 C           8.1905   -4.9849   22.9133 C.ar    1  UNL1       -0.0024
     17 C           7.5040   -4.7882   24.2323 C.ar    1  UNL1       -0.0003
     18 C           7.4593   -5.9083   25.2290 C.ar    1  UNL1        0.0294
     19 C           8.1012   -7.2252   24.9065 C.ar    1  UNL1        0.1401
     20 F           8.0565   -8.3453   25.9032 F       1  UNL1       -0.2042
     21 C           8.7877   -7.4219   23.5874 C.ar    1  UNL1        0.0294
     22 C           8.8324   -6.3017   22.5908 C.ar    1  UNL1       -0.0003
     23 C           2.4609    0.1490   21.0313 C.3     1  UNL1        0.0981
     24 C           1.3463   -0.5513   20.3120 C.3     1  UNL1        0.0238
     25 C           3.5754    0.8492   21.7507 C.3     1  UNL1        0.0238
     26 C           0.2454    1.4570   21.3929 C.3     1  UNL1        0.0899
     27 N           1.4647    0.7870   21.9536 N.3     1  UNL1       -0.2667
     28 C           1.6879    0.7551   23.4365 C.3     1  UNL1        0.0899
@<TRIPOS>BOND
     1    26    27    1
     2    27    28    1
     3    27    23    1
     4    23    24    1
     5    23    25    1
     6    23     1    1
     7     1     2   ar
     8     2     3   ar
     9     3     4    1
    10     3     5   ar
    11     5     6    1
    12     5     7   ar
    13     7    11    1
    14    11    12    2
    15    11    13   am
    16    13    15    1
    17    15    16    1
    18    16    17   ar
    19    17    18   ar
    20    18    19   ar
    21    19    20    1
    22    19    21   ar
    23    21    22   ar
    24     7     8   ar
    25     8     1   ar
    26    22    16   ar
    27     4     9    1
    28     6    10    1
    29    13    14    1
@<TRIPOS>MOLECULE
*****
 28 29 0 0 0
SMALL
GASTEIGER

@<TRIPOS>ATOM
      1 C         -13.2782   -5.7756   18.7239 C.ar    1  UNL1        0.1552
      2 N         -11.8362   -5.8888   19.1210 N.ar    1  UNL1       -0.1930
      3 C         -10.9619   -4.6699   19.1272 C.ar    1  UNL1        0.2594
      4 O          -9.5199   -4.7833   19.5244 O.3     1  UNL1       -0.4899
      5 C         -11.5297   -3.3378   18.7363 C.ar    1  UNL1        0.2098
      6 O         -10.6555   -2.1189   18.7425 O.3     1  UNL1       -0.5007
      7 C         -12.9717   -3.2245   18.3391 C.ar    1  UNL1        0.1740
      8 N         -13.8459   -4.4434   18.3329 N.ar    1  UNL1       -0.2215
      9 H          -9.1652   -5.6155   19.7686 H       1  UNL1        0.2938
     10 H          -9.7547   -2.1896   18.9906 H       1  UNL1        0.2924
     11 C         -13.5396   -1.8923   17.9482 C.2     1  UNL1        0.2671
     12 O         -14.4166   -1.7771   16.7367 O.2     1  UNL1       -0.2684
     13 N         -13.2304   -0.6752   18.7686 N.am    1  UNL1       -0.2956
     14 H         -12.6548   -0.7508   19.5638 H       1  UNL1        0.1501
     15 C         -13.7983    0.6570   18.3777 C.3     1  UNL1        0.1166
     16 C         -15.0058    1.1948   19.0866 C.ar    1  UNL1       -0.0024
     17 C         -15.2632    2.6723   19.1142 C.ar    1  UNL1       -0.0003
     18 C         -16.4707    3.2101   19.8231 C.ar    1  UNL1        0.0294
     19 C         -17.4210    2.2704   20.5044 C.ar    1  UNL1        0.1401
     20 F         -18.6285    2.8082   21.2133 F       1  UNL1       -0.2042
     21 C         -17.1636    0.7929   20.4767 C.ar    1  UNL1        0.0294
     22 C         -15.9560    0.2551   19.7678 C.ar    1  UNL1       -0.0003
     23 C         -14.1524   -6.9945   18.7177 C.3     1  UNL1        0.0981
     24 C         -15.2361   -6.2207   19.4081 C.3     1  UNL1        0.0238
     25 C         -13.0686   -7.7682   18.0272 C.3     1  UNL1        0.0238
     26 C         -14.7311   -9.3435   17.7705 C.3     1  UNL1        0.0899
     27 N         -15.0266   -8.2134   18.7115 N.3     1  UNL1       -0.2667
     28 C         -16.1963   -8.3021   19.6463 C.3     1  UNL1        0.0899
@<TRIPOS>BOND
     1    26    27    1
     2    27    28    1
     3    27    23    1
     4    23    24    1
     5    23    25    1
     6    23     1    1
     7     1     2   ar
     8     2     3   ar
     9     3     4    1
    10     3     5   ar
    11     5     6    1
    12     5     7   ar
    13     7    11    1
    14    11    12    2
    15    11    13   am
    16    13    15    1
    17    15    16    1
    18    16    17   ar
    19    17    18   ar
    20    18    19   ar
    21    19    20    1
    22    19    21   ar
    23    21    22   ar
    24     7     8   ar
    25     8     1   ar
    26    22    16   ar
    27     4     9    1
    28     6    10    1
    29    13    14    1
@<TRIPOS>MOLECULE
*****
 28 29 0 0 0
SMALL
GASTEIGER

@<TRIPOS>ATOM
      1 C           3.7660   -1.4525   21.1713 C.ar    1  UNL1        0.1552
      2 N           4.6273   -2.6779   21.0917 N.ar    1  UNL1       -0.1930
      3 C           5.1937   -3.2792   22.3437 C.ar    1  UNL1        0.2594
      4 O           6.0550   -4.5047   22.2641 O.3     1  UNL1       -0.4899
      5 C           4.8987   -2.6551   23.6754 C.ar    1  UNL1        0.2098
      6 O           5.4651   -3.2564   24.9275 O.3     1  UNL1       -0.5007
      7 C           4.0374   -1.4297   23.7550 C.ar    1  UNL1        0.1740
      8 N           3.4710   -0.8284   22.5030 N.ar    1  UNL1       -0.2215
      9 H           6.2393   -4.8946   21.4322 H       1  UNL1        0.2938
     10 H           6.0031   -4.0219   24.8777 H       1  UNL1        0.2924
     11 C           3.7424   -0.8055   25.0868 C.2     1  UNL1        0.2671
     12 O           3.8449   -1.6255   26.3386 O.2     1  UNL1       -0.2684
     13 N           3.3448    0.6386   25.1666 N.am    1  UNL1       -0.2956
     14 H           3.2775    1.1768   24.3450 H       1  UNL1        0.1501
     15 C           3.0498    1.2628   26.4984 C.3     1  UNL1        0.1166
     16 C           1.7373    1.0003   27.1755 C.ar    1  UNL1       -0.0024
     17 C           1.6767    0.0910   28.3669 C.ar    1  UNL1       -0.0003
     18 C           0.3643   -0.1715   29.0440 C.ar    1  UNL1        0.0294
     19 C          -0.8877    0.4752   28.5297 C.ar    1  UNL1        0.1401
     20 F          -2.2001    0.2127   29.2067 F       1  UNL1       -0.2042
     21 C          -0.8270    1.3845   27.3382 C.ar    1  UNL1        0.0294
     22 C           0.4855    1.6470   26.6611 C.ar    1  UNL1       -0.0003
     23 C           3.1996   -0.8512   19.9192 C.3     1  UNL1        0.0981
     24 C           4.5702   -0.8284   19.3102 C.3     1  UNL1        0.0238
     25 C           1.8290   -0.8739   20.5283 C.3     1  UNL1        0.0238
     26 C           3.3695   -0.3907   17.3680 C.3     1  UNL1        0.0899
     27 N           2.6332   -0.2498   18.6672 N.3     1  UNL1       -0.2667
     28 C           1.3306    0.4924   18.7143 C.3     1  UNL1        0.0899
@<TRIPOS>BOND
     1    26    27    1
     2    27    28    1
     3    27    23    1
     4    23    24    1
     5    23    25    1
     6    23     1    1
     7     1     2   ar
     8     2     3   ar
     9     3     4    1
    10     3     5   ar
    11     5     6    1
    12     5     7   ar
    13     7    11    1
    14    11    12    2
    15    11    13   am
    16    13    15    1
    17    15    16    1
    18    16    17   ar
    19    17    18   ar
    20    18    19   ar
    21    19    20    1
    22    19    21   ar
    23    21    22   ar
    24     7     8   ar
    25     8     1   ar
    26    22    16   ar
    27     4     9    1
    28     6    10    1
    29    13    14    1
@<TRIPOS>MOLECULE
*****
 28 29 0 0 0
SMALL
GASTEIGER

@<TRIPOS>ATOM
      1 C           6.1496   -2.8570   31.1890 C.ar    1  UNL1        0.1552
      2 N           6.3953   -4.0711   32.0350 N.ar    1  UNL1       -0.1930
      3 C           6.8785   -5.3417   31.4010 C.ar    1  UNL1        0.2594
      4 O           7.1242   -6.5558   32.2470 O.3     1  UNL1       -0.4899
      5 C           7.1159   -5.3984   29.9210 C.ar    1  UNL1        0.2098
      6 O           7.5991   -6.6690   29.2870 O.3     1  UNL1       -0.5007
      7 C           6.8702   -4.1843   29.0750 C.ar    1  UNL1        0.1740
      8 N           6.3870   -2.9137   29.7090 N.ar    1  UNL1       -0.2215
      9 H           6.9759   -6.5204   33.1715 H       1  UNL1        0.2938
     10 H           7.7526   -7.4274   29.8155 H       1  UNL1        0.2924
     11 C           7.1076   -4.2409   27.5950 C.2     1  UNL1        0.2671
     12 O           8.2936   -4.9828   27.0535 O.2     1  UNL1       -0.2684
     13 N           6.1591   -3.5557   26.6565 N.am    1  UNL1       -0.2956
     14 H           5.3808   -3.0688   27.0119 H       1  UNL1        0.1501
     15 C           6.3966   -3.6123   25.1764 C.3     1  UNL1        0.1166
     16 C           5.4296   -2.9560   24.2361 C.ar    1  UNL1       -0.0024
     17 C           5.2150   -3.5236   22.8643 C.ar    1  UNL1       -0.0003
     18 C           4.2481   -2.8673   21.9240 C.ar    1  UNL1        0.0294
     19 C           3.4957   -1.6435   22.3554 C.ar    1  UNL1        0.1401
     20 F           2.5287   -0.9872   21.4151 F       1  UNL1       -0.2042
     21 C           3.7103   -1.0759   23.7272 C.ar    1  UNL1        0.0294
     22 C           4.6773   -1.7322   24.6676 C.ar    1  UNL1       -0.0003
     23 C           5.6664   -1.5864   31.8230 C.3     1  UNL1        0.0981
     24 C           6.3019   -0.7940   30.7193 C.3     1  UNL1        0.0238
     25 C           5.0309   -2.3788   32.9268 C.3     1  UNL1        0.0238
     26 C           3.9494   -0.3251   33.3100 C.3     1  UNL1        0.0899
     27 N           5.1832   -0.3157   32.4570 N.3     1  UNL1       -0.2667
     28 C           5.9338    0.9643   32.2380 C.3     1  UNL1        0.0899
@<TRIPOS>BOND
     1    26    27    1
     2    27    28    1
     3    27    23    1
     4    23    24    1
     5    23    25    1
     6    23     1    1
     7     1     2   ar
     8     2     3   ar
     9     3     4    1
    10     3     5   ar
    11     5     6    1
    12     5     7   ar
    13     7    11    1
    14    11    12    2
    15    11    13   am
    16    13    15    1
    17    15    16    1
    18    16    17   ar
    19    17    18   ar
    20    18    19   ar
    21    19    20    1
    22    19    21   ar
    23    21    22   ar
    24     7     8   ar
    25     8     1   ar
    26    22    16   ar
    27     4     9    1
    28     6    10    1
    29    13    14    1
@<TRIPOS>MOLECULE
*****
 28 29 0 0 0
SMALL
GASTEIGER

@<TRIPOS>ATOM
      1 C          -5.3448    4.2665   21.8448 C.ar    1  UNL1        0.1552
      2 N          -6.5572    4.1494   20.9694 N.ar    1  UNL1       -0.1930
      3 C          -6.3986    3.9363   19.4931 C.ar    1  UNL1        0.2594
      4 O          -7.6110    3.8192   18.6178 O.3     1  UNL1       -0.4899
      5 C          -5.0276    3.8404   18.8922 C.ar    1  UNL1        0.2098
      6 O          -4.8690    3.6274   17.4159 O.3     1  UNL1       -0.5007
      7 C          -3.8152    3.9576   19.7676 C.ar    1  UNL1        0.1740
      8 N          -3.9738    4.1706   21.2439 N.ar    1  UNL1       -0.2215
      9 H          -8.4675    3.8791   18.9931 H       1  UNL1        0.2938
     10 H          -5.6263    3.5542   16.8691 H       1  UNL1        0.2924
     11 C          -2.4441    3.8617   19.1667 C.2     1  UNL1        0.2671
     12 O          -2.1645    4.4878   17.8326 O.2     1  UNL1       -0.2684
     13 N          -1.3527    3.1397   19.8999 N.am    1  UNL1       -0.2956
     14 H          -1.5363    2.7288   20.7755 H       1  UNL1        0.1501
     15 C           0.0184    3.0438   19.2990 C.3     1  UNL1        0.1166
     16 C           0.7803    1.7538   19.3711 C.ar    1  UNL1       -0.0024
     17 C           2.0169    1.5658   18.5432 C.ar    1  UNL1       -0.0003
     18 C           2.7788    0.2758   18.6153 C.ar    1  UNL1        0.0294
     19 C           2.3041   -0.8264   19.5154 C.ar    1  UNL1        0.1401
     20 F           3.0660   -2.1164   19.5875 F       1  UNL1       -0.2042
     21 C           1.0675   -0.6384   20.3433 C.ar    1  UNL1        0.0294
     22 C           0.3056    0.6517   20.2711 C.ar    1  UNL1       -0.0003
     23 C          -5.5034    4.4795   23.3211 C.3     1  UNL1        0.0981
     24 C          -4.8151    3.1729   23.5836 C.3     1  UNL1        0.0238
     25 C          -6.1917    5.7862   23.0586 C.3     1  UNL1        0.0238
     26 C          -6.6989    5.6474   25.3103 C.3     1  UNL1        0.0899
     27 N          -5.6620    4.6926   24.7974 N.3     1  UNL1       -0.2667
     28 C          -4.7837    3.9508   25.7609 C.3     1  UNL1        0.0899
@<TRIPOS>BOND
     1    26    27    1
     2    27    28    1
     3    27    23    1
     4    23    24    1
     5    23    25    1
     6    23     1    1
     7     1     2   ar
     8     2     3   ar
     9     3     4    1
    10     3     5   ar
    11     5     6    1
    12     5     7   ar
    13     7    11    1
    14    11    12    2
    15    11    13   am
    16    13    15    1
    17    15    16    1
    18    16    17   ar
    19    17    18   ar
    20    18    19   ar
    21    19    20    1
    22    19    21   ar
    23    21    22   ar
    24     7     8   ar
    25     8     1   ar
    26    22    16   ar
    27     4     9    1
    28     6    10    1
    29    13    14    1
@<TRIPOS>MOLECULE
*****
 28 29 0 0 0
SMALL
GASTEIGER

@<TRIPOS>ATOM
      1 C          -3.8751    3.7028   23.0200 C.ar    1  UNL1        0.1552
      2 N          -5.2755    3.8573   22.5053 N.ar    1  UNL1       -0.1930
      3 C          -5.5374    3.8453   21.0284 C.ar    1  UNL1        0.2594
      4 O          -6.9379    3.9998   20.5138 O.3     1  UNL1       -0.4899
      5 C          -4.3988    3.6787   20.0662 C.ar    1  UNL1        0.2098
      6 O          -4.6607    3.6666   18.5893 O.3     1  UNL1       -0.5007
      7 C          -2.9984    3.5242   20.5809 C.ar    1  UNL1        0.1740
      8 N          -2.7366    3.5362   22.0578 N.ar    1  UNL1       -0.2215
      9 H          -7.6491    4.1038   21.1148 H       1  UNL1        0.2938
     10 H          -5.5355    3.7631   18.2678 H       1  UNL1        0.2924
     11 C          -1.8598    3.3576   19.6186 C.2     1  UNL1        0.2671
     12 O          -1.9059    4.0299   18.2785 O.2     1  UNL1       -0.2684
     13 N          -0.6752    2.5187   19.9965 N.am    1  UNL1       -0.2956
     14 H          -0.6449    2.0774   20.8760 H       1  UNL1        0.1501
     15 C           0.4635    2.3521   19.0342 C.3     1  UNL1        0.1166
     16 C           1.3557    1.1500   19.1289 C.ar    1  UNL1       -0.0024
     17 C           1.0307    0.0490   20.0944 C.ar    1  UNL1       -0.0003
     18 C           1.9229   -1.1530   20.1891 C.ar    1  UNL1        0.0294
     19 C           3.1401   -1.2541   19.3182 C.ar    1  UNL1        0.1401
     20 F           4.0323   -2.4562   19.4129 F       1  UNL1       -0.2042
     21 C           3.4651   -0.1531   18.3527 C.ar    1  UNL1        0.0294
     22 C           2.5728    1.0490   18.2581 C.ar    1  UNL1       -0.0003
     23 C          -3.6132    3.7149   24.4969 C.3     1  UNL1        0.0981
     24 C          -5.0867    3.8198   24.7573 C.3     1  UNL1        0.0238
     25 C          -2.1397    3.6099   24.2365 C.3     1  UNL1        0.0238
     26 C          -2.0600    3.1850   26.5110 C.3     1  UNL1        0.0899
     27 N          -3.3513    3.7269   25.9738 N.3     1  UNL1       -0.2667
     28 C          -4.3809    4.2809   26.9136 C.3     1  UNL1        0.0899
@<TRIPOS>BOND
     1    26    27    1
     2    27    28    1
     3    27    23    1
     4    23    24    1
     5    23    25    1
     6    23     1    1
     7     1     2   ar
     8     2     3   ar
     9     3     4    1
    10     3     5   ar
    11     5     6    1
    12     5     7   ar
    13     7    11    1
    14    11    12    2
    15    11    13   am
    16    13    15    1
    17    15    16    1
    18    16    17   ar
    19    17    18   ar
    20    18    19   ar
    21    19    20    1
    22    19    21   ar
    23    21    22   ar
    24     7     8   ar
    25     8     1   ar
    26    22    16   ar
    27     4     9    1
    28     6    10    1
    29    13    14    1
@<TRIPOS>MOLECULE
*****
 28 29 0 0 0
SMALL
GASTEIGER

@<TRIPOS>ATOM
      1 C           4.7469   -2.3101   20.2172 C.ar    1  UNL1        0.1552
      2 N           4.8189   -2.1722   18.7253 N.ar    1  UNL1       -0.1930
      3 C           3.8143   -1.3260   18.0009 C.ar    1  UNL1        0.2594
      4 O           3.8864   -1.1882   16.5089 O.3     1  UNL1       -0.4899
      5 C           2.7377   -0.6177   18.7684 C.ar    1  UNL1        0.2098
      6 O           1.7332    0.2285   18.0440 O.3     1  UNL1       -0.5007
      7 C           2.6657   -0.7555   20.2602 C.ar    1  UNL1        0.1740
      8 N           3.6703   -1.6017   20.9846 N.ar    1  UNL1       -0.2215
      9 H           4.5589   -1.6307   16.0295 H       1  UNL1        0.2938
     10 H           1.7782    0.3146   17.1120 H       1  UNL1        0.2924
     11 C           1.5891   -0.0471   21.0278 C.2     1  UNL1        0.2671
     12 O           0.1789   -0.0481   20.5165 O.2     1  UNL1       -0.2684
     13 N           1.9226    0.6623   22.3067 N.am    1  UNL1       -0.2956
     14 H           2.8481    0.6629   22.6423 H       1  UNL1        0.1501
     15 C           0.8460    1.3707   23.0742 C.3     1  UNL1        0.1166
     16 C           0.8325    1.3143   24.5731 C.ar    1  UNL1       -0.0024
     17 C          -0.4186    1.6589   25.3254 C.ar    1  UNL1       -0.0003
     18 C          -0.4320    1.6026   26.8243 C.ar    1  UNL1        0.0294
     19 C           0.8057    1.2016   27.5709 C.ar    1  UNL1        0.1401
     20 F           0.7923    1.1453   29.0697 F       1  UNL1       -0.2042
     21 C           2.0568    0.8570   26.8186 C.ar    1  UNL1        0.0294
     22 C           2.0702    0.9134   25.3196 C.ar    1  UNL1       -0.0003
     23 C           5.7515   -3.1563   20.9415 C.3     1  UNL1        0.0981
     24 C           6.8470   -2.5822   20.0928 C.3     1  UNL1        0.0238
     25 C           4.6560   -3.7303   21.7903 C.3     1  UNL1        0.0238
     26 C           7.9073   -4.6060   20.9174 C.3     1  UNL1        0.0899
     27 N           6.7561   -4.0025   21.6659 N.3     1  UNL1       -0.2667
     28 C           6.6095   -4.2451   23.1389 C.3     1  UNL1        0.0899
@<TRIPOS>BOND
     1    26    27    1
     2    27    28    1
     3    27    23    1
     4    23    24    1
     5    23    25    1
     6    23     1    1
     7     1     2   ar
     8     2     3   ar
     9     3     4    1
    10     3     5   ar
    11     5     6    1
    12     5     7   ar
    13     7    11    1
    14    11    12    2
    15    11    13   am
    16    13    15    1
    17    15    16    1
    18    16    17   ar
    19    17    18   ar
    20    18    19   ar
    21    19    20    1
    22    19    21   ar
    23    21    22   ar
    24     7     8   ar
    25     8     1   ar
    26    22    16   ar
    27     4     9    1
    28     6    10    1
    29    13    14    1
@<TRIPOS>MOLECULE
*****
 28 29 0 0 0
SMALL
GASTEIGER

@<TRIPOS>ATOM
      1 C         -11.8672   -3.5778   18.3823 C.ar    1  UNL1        0.1552
      2 N         -10.7795   -2.6739   17.8826 N.ar    1  UNL1       -0.1930
      3 C         -11.0030   -1.1917   17.8260 C.ar    1  UNL1        0.2594
      4 O          -9.9151   -0.2878   17.3263 O.3     1  UNL1       -0.4899
      5 C         -12.3142   -0.6134   18.2690 C.ar    1  UNL1        0.2098
      6 O         -12.5376    0.8687   18.2123 O.3     1  UNL1       -0.5007
      7 C         -13.4019   -1.5174   18.7686 C.ar    1  UNL1        0.1740
      8 N         -13.1784   -2.9995   18.8253 N.ar    1  UNL1       -0.2215
      9 H          -9.0960   -0.6490   17.0496 H       1  UNL1        0.2938
     10 H         -11.8581    1.4334   17.9002 H       1  UNL1        0.2924
     11 C         -14.7132   -0.9391   19.2117 C.2     1  UNL1        0.2671
     12 O         -15.4837   -1.5911   20.3213 O.2     1  UNL1       -0.2684
     13 N         -15.2539    0.2910   18.5451 N.am    1  UNL1       -0.2956
     14 H         -14.7482    0.7189   17.8168 H       1  UNL1        0.1501
     15 C         -16.5652    0.8692   18.9881 C.3     1  UNL1        0.1166
     16 C         -16.6230    1.7605   20.1932 C.ar    1  UNL1       -0.0024
     17 C         -17.3887    1.3293   21.4089 C.ar    1  UNL1       -0.0003
     18 C         -17.4465    2.2206   22.6140 C.ar    1  UNL1        0.0294
     19 C         -16.7386    3.5431   22.6034 C.ar    1  UNL1        0.1401
     20 F         -16.7964    4.4343   23.8085 F       1  UNL1       -0.2042
     21 C         -15.9729    3.9742   21.3877 C.ar    1  UNL1        0.0294
     22 C         -15.9152    3.0829   20.1826 C.ar    1  UNL1       -0.0003
     23 C         -11.6437   -5.0600   18.4389 C.3     1  UNL1        0.0981
     24 C         -10.2635   -4.8312   18.9797 C.3     1  UNL1        0.0238
     25 C         -13.0240   -5.2888   17.8981 C.3     1  UNL1        0.0238
     26 C         -10.0557   -7.0837   18.8032 C.3     1  UNL1        0.0899
     27 N         -11.4203   -6.5422   18.4956 N.3     1  UNL1       -0.2667
     28 C         -12.5614   -7.4828   18.2446 C.3     1  UNL1        0.0899
@<TRIPOS>BOND
     1    26    27    1
     2    27    28    1
     3    27    23    1
     4    23    24    1
     5    23    25    1
     6    23     1    1
     7     1     2   ar
     8     2     3   ar
     9     3     4    1
    10     3     5   ar
    11     5     6    1
    12     5     7   ar
    13     7    11    1
    14    11    12    2
    15    11    13   am
    16    13    15    1
    17    15    16    1
    18    16    17   ar
    19    17    18   ar
    20    18    19   ar
    21    19    20    1
    22    19    21   ar
    23    21    22   ar
    24     7     8   ar
    25     8     1   ar
    26    22    16   ar
    27     4     9    1
    28     6    10    1
    29    13    14    1
