@<TRIPOS>MOLECULE
*****
 30 34 0 0 0
SMALL
GASTEIGER

@<TRIPOS>ATOM
      1 O         -14.0862   -3.9278   18.8764 O.2     1  UNL1       -0.2698
      2 C         -12.7008   -3.8927   18.3022 C.2     1  UNL1        0.2506
      3 N         -12.0854   -2.5829   17.9080 N.am    1  UNL1       -0.2556
      4 C         -10.7170   -2.3919   17.3240 C.3     1  UNL1        0.1172
      5 C         -10.5161   -0.9250   17.0836 C.3     1  UNL1        0.1172
      6 N         -11.7604   -0.2093   17.5189 N.am    1  UNL1       -0.2556
      7 C         -12.4054    1.1396   17.6393 C.2     1  UNL1        0.2504
      8 O         -11.7899    2.4495   17.2451 O.2     1  UNL1       -0.2699
      9 C         -13.7738    0.9487   18.2233 C.ar    1  UNL1        0.0530
     10 C         -14.8629    1.9211   18.5671 C.ar    1  UNL1        0.0043
     11 C         -16.1528    1.4266   19.1514 C.ar    1  UNL1        0.0001
     12 C         -16.3537   -0.0404   19.3918 C.ar    1  UNL1       -0.0002
     13 C         -15.2646   -1.0127   19.0480 C.ar    1  UNL1       -0.0006
     14 C         -13.9746   -0.5182   18.4637 C.ar    1  UNL1        0.0199
     15 C         -12.7303   -1.2339   18.0284 C.3     1  UNL1        0.1626
     16 C         -11.9310   -5.1675   18.1224 C.ar    1  UNL1        0.0560
     17 C         -12.2972   -6.1154   17.0191 C.ar    1  UNL1        0.0070
     18 C         -11.5273   -7.3902   16.8393 C.ar    1  UNL1        0.0321
     19 C         -10.3913   -7.7170   17.7628 C.ar    1  UNL1        0.1674
     20 F          -9.6214   -8.9917   17.5830 F       1  UNL1       -0.2018
     21 C         -10.0252   -6.7689   18.8661 C.ar    1  UNL1        0.1675
     22 F          -8.8892   -7.0957   19.7896 F       1  UNL1       -0.2018
     23 C         -10.7950   -5.4942   19.0459 C.ar    1  UNL1        0.0365
     24 C         -13.7002   -2.2585   18.5379 C.ar    1  UNL1        0.0155
     25 C         -13.6797   -2.6569   19.9839 C.ar    1  UNL1        0.0001
     26 C         -14.6495   -3.6814   20.4934 C.ar    1  UNL1        0.0112
     27 C         -15.6398   -4.3077   19.5569 C.ar    1  UNL1        0.0577
     28 CL        -16.6097   -5.3323   20.0663 Cl      1  UNL1       -0.0822
     29 C         -15.6603   -3.9094   18.1109 C.ar    1  UNL1        0.0112
     30 C         -14.6904   -2.8848   17.6014 C.ar    1  UNL1        0.0001
@<TRIPOS>BOND
     1     1     2    2
     2     2    16    1
     3    16    17   ar
     4    17    18   ar
     5    18    19   ar
     6    19    20    1
     7    19    21   ar
     8    21    22    1
     9    21    23   ar
    10     2     3   am
    11     3     4    1
    12     4     5    1
    13     5     6    1
    14     6     7   am
    15     7     8    2
    16     7     9    1
    17     9    10   ar
    18    10    11   ar
    19    11    12   ar
    20    12    13   ar
    21    13    14   ar
    22    14    15    1
    23    15    24    1
    24    24    25   ar
    25    25    26   ar
    26    26    27   ar
    27    27    28    1
    28    27    29   ar
    29    29    30   ar
    30    23    16   ar
    31    15     3    1
    32    30    24   ar
    33    15     6    1
    34    14     9   ar
@<TRIPOS>MOLECULE
*****
 30 34 0 0 0
SMALL
GASTEIGER

@<TRIPOS>ATOM
      1 O          -9.0716  -17.0928   23.1435 O.2     1  UNL1       -0.2698
      2 C          -7.6687  -17.0292   23.6706 C.2     1  UNL1        0.2506
      3 N          -6.5758  -17.7972   22.9885 N.am    1  UNL1       -0.2556
      4 C          -5.1332  -17.8306   23.3985 C.3     1  UNL1        0.1172
      5 C          -4.3993  -18.7208   22.4399 C.3     1  UNL1        0.1172
      6 N          -5.3882  -19.2377   21.4375 N.am    1  UNL1       -0.2556
      7 C          -5.5457  -20.1073   20.2255 C.2     1  UNL1        0.2504
      8 O          -4.4527  -20.8754   19.5433 O.2     1  UNL1       -0.2699
      9 C          -6.9882  -20.0740   19.8154 C.ar    1  UNL1        0.0530
     10 C          -7.7282  -20.7393   18.6930 C.ar    1  UNL1        0.0043
     11 C          -9.2021  -20.5144   18.5292 C.ar    1  UNL1        0.0001
     12 C          -9.9361  -19.6242   19.4877 C.ar    1  UNL1       -0.0002
     13 C          -9.1961  -18.9589   20.6101 C.ar    1  UNL1       -0.0006
     14 C          -7.7222  -19.1838   20.7739 C.ar    1  UNL1        0.0199
     15 C          -6.7333  -18.6669   21.7764 C.3     1  UNL1        0.1626
     16 C          -7.3589  -16.1975   24.8799 C.ar    1  UNL1        0.0560
     17 C          -5.9930  -15.6015   25.0503 C.ar    1  UNL1        0.0070
     18 C          -5.6832  -14.7698   26.2596 C.ar    1  UNL1        0.0321
     19 C          -6.7394  -14.5341   27.2984 C.ar    1  UNL1        0.1674
     20 F          -6.4296  -13.7024   28.5077 F       1  UNL1       -0.2018
     21 C          -8.1053  -15.1301   27.1279 C.ar    1  UNL1        0.1675
     22 F          -9.1614  -14.8945   28.1666 F       1  UNL1       -0.2018
     23 C          -8.4150  -15.9618   25.9186 C.ar    1  UNL1        0.0365
     24 C          -8.0784  -18.0961   22.1154 C.ar    1  UNL1        0.0155
     25 C          -8.5003  -16.7771   21.5391 C.ar    1  UNL1        0.0001
     26 C          -9.8454  -16.2063   21.8781 C.ar    1  UNL1        0.0112
     27 C         -10.7686  -16.9546   22.7934 C.ar    1  UNL1        0.0577
     28 CL        -12.1137  -16.3839   23.1324 Cl      1  UNL1       -0.0822
     29 C         -10.3467  -18.2736   23.3697 C.ar    1  UNL1        0.0112
     30 C          -9.0016  -18.8444   23.0307 C.ar    1  UNL1        0.0001
@<TRIPOS>BOND
     1     1     2    2
     2     2    16    1
     3    16    17   ar
     4    17    18   ar
     5    18    19   ar
     6    19    20    1
     7    19    21   ar
     8    21    22    1
     9    21    23   ar
    10     2     3   am
    11     3     4    1
    12     4     5    1
    13     5     6    1
    14     6     7   am
    15     7     8    2
    16     7     9    1
    17     9    10   ar
    18    10    11   ar
    19    11    12   ar
    20    12    13   ar
    21    13    14   ar
    22    14    15    1
    23    15    24    1
    24    24    25   ar
    25    25    26   ar
    26    26    27   ar
    27    27    28    1
    28    27    29   ar
    29    29    30   ar
    30    23    16   ar
    31    15     3    1
    32    30    24   ar
    33    15     6    1
    34    14     9   ar
@<TRIPOS>MOLECULE
*****
 30 34 0 0 0
SMALL
GASTEIGER

@<TRIPOS>ATOM
      1 O         -15.0640   -4.5763   18.6201 O.2     1  UNL1       -0.2698
      2 C         -14.1764   -5.7066   18.1905 C.2     1  UNL1        0.2506
      3 N         -14.7245   -7.1002   18.1056 N.am    1  UNL1       -0.2556
      4 C         -13.9614   -8.3243   17.6940 C.3     1  UNL1        0.1172
      5 C         -14.8973   -9.4951   17.7514 C.3     1  UNL1        0.1172
      6 N         -16.2388   -8.9946   18.1985 N.am    1  UNL1       -0.2556
      7 C         -17.6463   -9.4089   18.5103 C.2     1  UNL1        0.2504
      8 O         -18.1945  -10.8026   18.4254 O.2     1  UNL1       -0.2699
      9 C         -18.4095   -8.1849   18.9219 C.ar    1  UNL1        0.0530
     10 C         -19.8356   -7.9852   19.3416 C.ar    1  UNL1        0.0043
     11 C         -20.3259   -6.6147   19.7038 C.ar    1  UNL1        0.0001
     12 C         -19.3900   -5.4438   19.6464 C.ar    1  UNL1       -0.0002
     13 C         -17.9638   -5.6435   19.2267 C.ar    1  UNL1       -0.0006
     14 C         -17.4736   -7.0141   18.8645 C.ar    1  UNL1        0.0199
     15 C         -16.1321   -7.5145   18.4174 C.3     1  UNL1        0.1626
     16 C         -12.7404   -5.4431   17.8457 C.ar    1  UNL1        0.0560
     17 C         -12.3455   -5.1898   16.4210 C.ar    1  UNL1        0.0070
     18 C         -10.9096   -4.9263   16.0762 C.ar    1  UNL1        0.0321
     19 C          -9.8687   -4.9161   17.1563 C.ar    1  UNL1        0.1674
     20 F          -8.4328   -4.6526   16.8117 F       1  UNL1       -0.2018
     21 C         -10.2637   -5.1693   18.5811 C.ar    1  UNL1        0.1675
     22 F          -9.2229   -5.1590   19.6611 F       1  UNL1       -0.2018
     23 C         -11.6996   -5.4328   18.9257 C.ar    1  UNL1        0.0365
     24 C         -16.0253   -6.0344   18.6363 C.ar    1  UNL1        0.0155
     25 C         -15.6248   -5.5019   19.9802 C.ar    1  UNL1        0.0001
     26 C         -15.5180   -4.0219   20.1991 C.ar    1  UNL1        0.0112
     27 C         -15.8116   -3.0742   19.0740 C.ar    1  UNL1        0.0577
     28 CL        -15.7048   -1.5941   19.2929 Cl      1  UNL1       -0.0822
     29 C         -16.2121   -3.6067   17.7301 C.ar    1  UNL1        0.0112
     30 C         -16.3189   -5.0868   17.5113 C.ar    1  UNL1        0.0001
@<TRIPOS>BOND
     1     1     2    2
     2     2    16    1
     3    16    17   ar
     4    17    18   ar
     5    18    19   ar
     6    19    20    1
     7    19    21   ar
     8    21    22    1
     9    21    23   ar
    10     2     3   am
    11     3     4    1
    12     4     5    1
    13     5     6    1
    14     6     7   am
    15     7     8    2
    16     7     9    1
    17     9    10   ar
    18    10    11   ar
    19    11    12   ar
    20    12    13   ar
    21    13    14   ar
    22    14    15    1
    23    15    24    1
    24    24    25   ar
    25    25    26   ar
    26    26    27   ar
    27    27    28    1
    28    27    29   ar
    29    29    30   ar
    30    23    16   ar
    31    15     3    1
    32    30    24   ar
    33    15     6    1
    34    14     9   ar
@<TRIPOS>MOLECULE
*****
 30 34 0 0 0
SMALL
GASTEIGER

@<TRIPOS>ATOM
      1 O         -12.6330   -2.7815   18.0849 O.2     1  UNL1       -0.2698
      2 C         -13.1507   -4.1545   18.3961 C.2     1  UNL1        0.2506
      3 N         -14.5315   -4.3263   18.9562 N.am    1  UNL1       -0.2556
      4 C         -15.1819   -5.6296   19.3146 C.3     1  UNL1        0.1172
      5 C         -16.5568   -5.3337   19.8361 C.3     1  UNL1        0.1172
      6 N         -16.7562   -3.8474   19.8001 N.am    1  UNL1       -0.2556
      7 C         -17.7292   -2.7460   20.1002 C.2     1  UNL1        0.2504
      8 O         -19.1101   -2.9177   20.6603 O.2     1  UNL1       -0.2699
      9 C         -17.0789   -1.4426   19.7419 C.ar    1  UNL1        0.0530
     10 C         -17.5611   -0.0246   19.8232 C.ar    1  UNL1        0.0043
     11 C         -16.6684    1.0975   19.3829 C.ar    1  UNL1        0.0001
     12 C         -15.2935    0.8016   18.8613 C.ar    1  UNL1       -0.0002
     13 C         -14.8113   -0.6164   18.7801 C.ar    1  UNL1       -0.0006
     14 C         -15.7040   -1.7385   19.2204 C.ar    1  UNL1        0.0199
     15 C         -15.5046   -3.2248   19.2563 C.3     1  UNL1        0.1626
     16 C         -12.2875   -5.3558   18.1472 C.ar    1  UNL1        0.0560
     17 C         -12.6056   -6.2861   17.0145 C.ar    1  UNL1        0.0070
     18 C         -11.7423   -7.4874   16.7656 C.ar    1  UNL1        0.0321
     19 C         -10.5610   -7.7582   17.6495 C.ar    1  UNL1        0.1674
     20 F          -9.6978   -8.9594   17.4007 F       1  UNL1       -0.2018
     21 C         -10.2430   -6.8277   18.7823 C.ar    1  UNL1        0.1675
     22 F          -9.0617   -7.0985   19.6662 F       1  UNL1       -0.2018
     23 C         -11.1062   -5.6265   19.0311 C.ar    1  UNL1        0.0365
     24 C         -14.2529   -2.6022   18.7125 C.ar    1  UNL1        0.0155
     25 C         -14.1119   -2.3666   17.2379 C.ar    1  UNL1        0.0001
     26 C         -12.8603   -1.7440   16.6941 C.ar    1  UNL1        0.0112
     27 C         -11.7496   -1.3570   17.6250 C.ar    1  UNL1        0.0577
     28 CL        -10.4979   -0.7344   17.0812 Cl      1  UNL1       -0.0822
     29 C         -11.8906   -1.5925   19.0996 C.ar    1  UNL1        0.0112
     30 C         -13.1422   -2.2151   19.6434 C.ar    1  UNL1        0.0001
@<TRIPOS>BOND
     1     1     2    2
     2     2    16    1
     3    16    17   ar
     4    17    18   ar
     5    18    19   ar
     6    19    20    1
     7    19    21   ar
     8    21    22    1
     9    21    23   ar
    10     2     3   am
    11     3     4    1
    12     4     5    1
    13     5     6    1
    14     6     7   am
    15     7     8    2
    16     7     9    1
    17     9    10   ar
    18    10    11   ar
    19    11    12   ar
    20    12    13   ar
    21    13    14   ar
    22    14    15    1
    23    15    24    1
    24    24    25   ar
    25    25    26   ar
    26    26    27   ar
    27    27    28    1
    28    27    29   ar
    29    29    30   ar
    30    23    16   ar
    31    15     3    1
    32    30    24   ar
    33    15     6    1
    34    14     9   ar
@<TRIPOS>MOLECULE
*****
 30 34 0 0 0
SMALL
GASTEIGER

@<TRIPOS>ATOM
      1 O         -13.1128   -6.6408   18.1779 O.2     1  UNL1       -0.2698
      2 C         -14.5534   -6.6285   18.5954 C.2     1  UNL1        0.2506
      3 N         -15.2221   -5.3321   18.9444 N.am    1  UNL1       -0.2556
      4 C         -16.6487   -5.1641   19.3765 C.3     1  UNL1        0.1172
      5 C         -16.8899   -3.7041   19.6218 C.3     1  UNL1        0.1172
      6 N         -15.6124   -2.9697   19.3412 N.am    1  UNL1       -0.2556
      7 C         -14.9720   -1.6135   19.3193 C.2     1  UNL1        0.2504
      8 O         -15.6407   -0.3169   19.6684 O.2     1  UNL1       -0.2699
      9 C         -13.5454   -1.7814   18.8872 C.ar    1  UNL1        0.0530
     10 C         -12.4350   -0.7934   18.6853 C.ar    1  UNL1        0.0043
     11 C         -11.0832   -1.2655   18.2382 C.ar    1  UNL1        0.0001
     12 C         -10.8420   -2.7255   17.9930 C.ar    1  UNL1       -0.0002
     13 C         -11.9525   -3.7135   18.1949 C.ar    1  UNL1       -0.0006
     14 C         -13.3042   -3.2414   18.6420 C.ar    1  UNL1        0.0199
     15 C         -14.5817   -3.9758   18.9225 C.3     1  UNL1        0.1626
     16 C         -15.3254   -7.9129   18.6638 C.ar    1  UNL1        0.0560
     17 C         -14.8229   -9.1291   17.9439 C.ar    1  UNL1        0.0070
     18 C         -15.5949  -10.4135   18.0124 C.ar    1  UNL1        0.0321
     19 C         -16.8693  -10.4815   18.8008 C.ar    1  UNL1        0.1674
     20 F         -17.6412  -11.7657   18.8693 F       1  UNL1       -0.2018
     21 C         -17.3716   -9.2651   19.5207 C.ar    1  UNL1        0.1675
     22 F         -18.6459   -9.3331   20.3090 F       1  UNL1       -0.2018
     23 C         -16.5997   -7.9809   19.4522 C.ar    1  UNL1        0.0365
     24 C         -13.5509   -4.9820   18.5039 C.ar    1  UNL1        0.0155
     25 C         -13.3858   -5.3276   17.0536 C.ar    1  UNL1        0.0001
     26 C         -12.3551   -6.3337   16.6350 C.ar    1  UNL1        0.0112
     27 C         -11.4895   -6.9942   17.6667 C.ar    1  UNL1        0.0577
     28 CL        -10.4587   -8.0004   17.2481 Cl      1  UNL1       -0.0822
     29 C         -11.6545   -6.6486   19.1169 C.ar    1  UNL1        0.0112
     30 C         -12.6853   -5.6424   19.5355 C.ar    1  UNL1        0.0001
@<TRIPOS>BOND
     1     1     2    2
     2     2    16    1
     3    16    17   ar
     4    17    18   ar
     5    18    19   ar
     6    19    20    1
     7    19    21   ar
     8    21    22    1
     9    21    23   ar
    10     2     3   am
    11     3     4    1
    12     4     5    1
    13     5     6    1
    14     6     7   am
    15     7     8    2
    16     7     9    1
    17     9    10   ar
    18    10    11   ar
    19    11    12   ar
    20    12    13   ar
    21    13    14   ar
    22    14    15    1
    23    15    24    1
    24    24    25   ar
    25    25    26   ar
    26    26    27   ar
    27    27    28    1
    28    27    29   ar
    29    29    30   ar
    30    23    16   ar
    31    15     3    1
    32    30    24   ar
    33    15     6    1
    34    14     9   ar
@<TRIPOS>MOLECULE
*****
 30 34 0 0 0
SMALL
GASTEIGER

@<TRIPOS>ATOM
      1 O         -15.8282   -5.0848   18.9332 O.2     1  UNL1       -0.2698
      2 C         -15.3242   -6.4238   18.4826 C.2     1  UNL1        0.2506
      3 N         -13.8907   -6.5863   18.0722 N.am    1  UNL1       -0.2556
      4 C         -13.2468   -7.8568   17.6017 C.3     1  UNL1        0.1172
      5 C         -11.8075   -7.5625   17.2988 C.3     1  UNL1        0.1172
      6 N         -11.5618   -6.1101   17.5821 N.am    1  UNL1       -0.2556
      7 C         -10.5204   -5.0306   17.5701 C.2     1  UNL1        0.2504
      8 O          -9.0868   -5.1931   17.1596 O.2     1  UNL1       -0.2699
      9 C         -11.1642   -3.7601   18.0405 C.ar    1  UNL1        0.0530
     10 C         -10.6258   -2.3733   18.2323 C.ar    1  UNL1        0.0043
     11 C         -11.5267   -1.2808   18.7269 C.ar    1  UNL1        0.0001
     12 C         -12.9661   -1.5751   19.0297 C.ar    1  UNL1       -0.0002
     13 C         -13.5045   -2.9619   18.8380 C.ar    1  UNL1       -0.0006
     14 C         -12.6035   -4.0544   18.3434 C.ar    1  UNL1        0.0199
     15 C         -12.8492   -5.5068   18.0601 C.3     1  UNL1        0.1626
     16 C         -16.2539   -7.6004   18.4425 C.ar    1  UNL1        0.0560
     17 C         -16.3302   -8.5361   19.6124 C.ar    1  UNL1        0.0070
     18 C         -17.2599   -9.7126   19.5723 C.ar    1  UNL1        0.0321
     19 C         -18.1132   -9.9534   18.3623 C.ar    1  UNL1        0.1674
     20 F         -19.0428  -11.1299   18.3221 F       1  UNL1       -0.2018
     21 C         -18.0367   -9.0176   17.1924 C.ar    1  UNL1        0.1675
     22 F         -18.8900   -9.2583   15.9825 F       1  UNL1       -0.2018
     23 C         -17.1071   -7.8411   17.2326 C.ar    1  UNL1        0.0365
     24 C         -14.1368   -4.9034   18.5380 C.ar    1  UNL1        0.0155
     25 C         -14.4570   -4.8829   20.0033 C.ar    1  UNL1        0.0001
     26 C         -15.7445   -4.2796   20.4812 C.ar    1  UNL1        0.0112
     27 C         -16.7117   -3.6969   19.4938 C.ar    1  UNL1        0.0577
     28 CL        -17.9992   -3.0935   19.9717 Cl      1  UNL1       -0.0822
     29 C         -16.3914   -3.7174   18.0286 C.ar    1  UNL1        0.0112
     30 C         -15.1039   -4.3207   17.5507 C.ar    1  UNL1        0.0001
@<TRIPOS>BOND
     1     1     2    2
     2     2    16    1
     3    16    17   ar
     4    17    18   ar
     5    18    19   ar
     6    19    20    1
     7    19    21   ar
     8    21    22    1
     9    21    23   ar
    10     2     3   am
    11     3     4    1
    12     4     5    1
    13     5     6    1
    14     6     7   am
    15     7     8    2
    16     7     9    1
    17     9    10   ar
    18    10    11   ar
    19    11    12   ar
    20    12    13   ar
    21    13    14   ar
    22    14    15    1
    23    15    24    1
    24    24    25   ar
    25    25    26   ar
    26    26    27   ar
    27    27    28    1
    28    27    29   ar
    29    29    30   ar
    30    23    16   ar
    31    15     3    1
    32    30    24   ar
    33    15     6    1
    34    14     9   ar
@<TRIPOS>MOLECULE
*****
 30 34 0 0 0
SMALL
GASTEIGER

@<TRIPOS>ATOM
      1 O         -15.3215   -5.1836   18.9796 O.2     1  UNL1       -0.2698
      2 C         -14.5740   -6.4166   18.5662 C.2     1  UNL1        0.2506
      3 N         -13.1575   -6.3090   18.0850 N.am    1  UNL1       -0.2556
      4 C         -12.2882   -7.4478   17.6406 C.3     1  UNL1        0.1172
      5 C         -10.9549   -6.8862   17.2447 C.3     1  UNL1        0.1172
      6 N         -11.0000   -5.4002   17.4443 N.am    1  UNL1       -0.2556
      7 C         -10.2039   -4.1347   17.3229 C.2     1  UNL1        0.2504
      8 O          -8.7873   -4.0270   16.8417 O.2     1  UNL1       -0.2699
      9 C         -11.0731   -2.9958   17.7673 C.ar    1  UNL1        0.0530
     10 C         -10.8228   -1.5200   17.8624 C.ar    1  UNL1        0.0043
     11 C         -11.9057   -0.6057   18.3536 C.ar    1  UNL1        0.0001
     12 C         -13.2391   -1.1674   18.7496 C.ar    1  UNL1       -0.0002
     13 C         -13.4894   -2.6432   18.6544 C.ar    1  UNL1       -0.0006
     14 C         -12.4065   -3.5575   18.1632 C.ar    1  UNL1        0.0199
     15 C         -12.3613   -5.0434   17.9636 C.3     1  UNL1        0.1626
     16 C         -15.2433   -7.7574   18.6339 C.ar    1  UNL1        0.0560
     17 C         -14.6623   -8.9240   17.8914 C.ar    1  UNL1        0.0070
     18 C         -15.3316  -10.2648   17.9592 C.ar    1  UNL1        0.0321
     19 C         -16.5819  -10.4388   18.7695 C.ar    1  UNL1        0.1674
     20 F         -17.2512  -11.7795   18.8373 F       1  UNL1       -0.2018
     21 C         -17.1628   -9.2721   19.5120 C.ar    1  UNL1        0.1675
     22 F         -18.4130   -9.4461   20.3224 F       1  UNL1       -0.2018
     23 C         -16.4935   -7.9314   19.4442 C.ar    1  UNL1        0.0365
     24 C         -13.7226   -4.6867   18.4830 C.ar    1  UNL1        0.0155
     25 C         -14.8308   -4.3661   17.5243 C.ar    1  UNL1        0.0001
     26 C         -16.1920   -4.0094   18.0436 C.ar    1  UNL1        0.0112
     27 C         -16.4450   -3.9732   19.5217 C.ar    1  UNL1        0.0577
     28 CL        -17.8063   -3.6165   20.0410 Cl      1  UNL1       -0.0822
     29 C         -15.3368   -4.2938   20.4803 C.ar    1  UNL1        0.0112
     30 C         -13.9756   -4.6505   19.9610 C.ar    1  UNL1        0.0001
@<TRIPOS>BOND
     1     1     2    2
     2     2    16    1
     3    16    17   ar
     4    17    18   ar
     5    18    19   ar
     6    19    20    1
     7    19    21   ar
     8    21    22    1
     9    21    23   ar
    10     2     3   am
    11     3     4    1
    12     4     5    1
    13     5     6    1
    14     6     7   am
    15     7     8    2
    16     7     9    1
    17     9    10   ar
    18    10    11   ar
    19    11    12   ar
    20    12    13   ar
    21    13    14   ar
    22    14    15    1
    23    15    24    1
    24    24    25   ar
    25    25    26   ar
    26    26    27   ar
    27    27    28    1
    28    27    29   ar
    29    29    30   ar
    30    23    16   ar
    31    15     3    1
    32    30    24   ar
    33    15     6    1
    34    14     9   ar
@<TRIPOS>MOLECULE
*****
 30 34 0 0 0
SMALL
GASTEIGER

@<TRIPOS>ATOM
      1 O          -6.2172  -19.6094   20.8113 O.2     1  UNL1       -0.2698
      2 C          -5.2769  -18.6210   21.4350 C.2     1  UNL1        0.2506
      3 N          -5.7744  -17.6716   22.4842 N.am    1  UNL1       -0.2556
      4 C          -4.9561  -16.6337   23.1935 C.3     1  UNL1        0.1172
      5 C          -5.8536  -15.9140   24.1562 C.3     1  UNL1        0.1172
      6 N          -7.2266  -16.5072   24.0418 N.am    1  UNL1       -0.2556
      7 C          -8.6298  -16.4290   24.5661 C.2     1  UNL1        0.2504
      8 O          -9.1273  -15.4796   25.6154 O.2     1  UNL1       -0.2699
      9 C          -9.4481  -17.4669   23.8569 C.ar    1  UNL1        0.0530
     10 C         -10.8945  -17.8497   23.9632 C.ar    1  UNL1        0.0043
     11 C         -11.4435  -18.9521   23.1070 C.ar    1  UNL1        0.0001
     12 C         -10.5460  -19.6718   22.1443 C.ar    1  UNL1       -0.0002
     13 C          -9.0996  -19.2890   22.0380 C.ar    1  UNL1       -0.0006
     14 C          -8.5507  -18.1866   22.8942 C.ar    1  UNL1        0.0199
     15 C          -7.1777  -17.5934   23.0086 C.3     1  UNL1        0.1626
     16 C          -3.8391  -18.5821   21.0093 C.ar    1  UNL1        0.0560
     17 C          -2.7569  -18.9215   21.9909 C.ar    1  UNL1        0.0070
     18 C          -1.3190  -18.8826   21.5651 C.ar    1  UNL1        0.0321
     19 C          -0.9635  -18.5042   20.1578 C.ar    1  UNL1        0.1674
     20 F           0.4743  -18.4652   19.7320 F       1  UNL1       -0.2018
     21 C          -2.0458  -18.1648   19.1762 C.ar    1  UNL1        0.1675
     22 F          -1.6904  -17.7864   17.7690 F       1  UNL1       -0.2018
     23 C          -3.4836  -18.2037   19.6020 C.ar    1  UNL1        0.0365
     24 C          -7.1288  -18.6797   21.9752 C.ar    1  UNL1        0.0155
     25 C          -6.6772  -20.0582   22.3570 C.ar    1  UNL1        0.0001
     26 C          -6.6283  -21.1444   21.3238 C.ar    1  UNL1        0.0112
     27 C          -7.0309  -20.8521   19.9087 C.ar    1  UNL1        0.0577
     28 CL         -6.9820  -21.9383   18.8754 Cl      1  UNL1       -0.0822
     29 C          -7.4825  -19.4736   19.5269 C.ar    1  UNL1        0.0112
     30 C          -7.5314  -18.3874   20.5603 C.ar    1  UNL1        0.0001
@<TRIPOS>BOND
     1     1     2    2
     2     2    16    1
     3    16    17   ar
     4    17    18   ar
     5    18    19   ar
     6    19    20    1
     7    19    21   ar
     8    21    22    1
     9    21    23   ar
    10     2     3   am
    11     3     4    1
    12     4     5    1
    13     5     6    1
    14     6     7   am
    15     7     8    2
    16     7     9    1
    17     9    10   ar
    18    10    11   ar
    19    11    12   ar
    20    12    13   ar
    21    13    14   ar
    22    14    15    1
    23    15    24    1
    24    24    25   ar
    25    25    26   ar
    26    26    27   ar
    27    27    28    1
    28    27    29   ar
    29    29    30   ar
    30    23    16   ar
    31    15     3    1
    32    30    24   ar
    33    15     6    1
    34    14     9   ar
@<TRIPOS>MOLECULE
*****
 30 34 0 0 0
SMALL
GASTEIGER

@<TRIPOS>ATOM
      1 O         -13.6690   -6.4288   18.0235 O.2     1  UNL1       -0.2698
      2 C         -15.1130   -6.2639   18.3946 C.2     1  UNL1        0.2506
      3 N         -15.6435   -4.9093   18.7599 N.am    1  UNL1       -0.2556
      4 C         -17.0565   -4.5917   19.1507 C.3     1  UNL1        0.1172
      5 C         -17.1405   -3.1205   19.4309 C.3     1  UNL1        0.1172
      6 N         -15.7794   -2.5288   19.2132 N.am    1  UNL1       -0.2556
      7 C         -14.9901   -1.2539   19.2519 C.2     1  UNL1        0.2504
      8 O         -15.5206    0.1008   19.6172 O.2     1  UNL1       -0.2699
      9 C         -13.5771   -1.5714   18.8611 C.ar    1  UNL1        0.0530
     10 C         -12.3561   -0.7109   18.7242 C.ar    1  UNL1        0.0043
     11 C         -11.0512   -1.3217   18.3071 C.ar    1  UNL1        0.0001
     12 C         -10.9672   -2.7929   18.0269 C.ar    1  UNL1       -0.0002
     13 C         -12.1882   -3.6533   18.1638 C.ar    1  UNL1       -0.0006
     14 C         -13.4931   -3.0426   18.5809 C.ar    1  UNL1        0.0199
     15 C         -14.8542   -3.6343   18.7986 C.3     1  UNL1        0.1626
     16 C         -16.0264   -7.4538   18.4004 C.ar    1  UNL1        0.0560
     17 C         -16.0590   -8.3684   19.5887 C.ar    1  UNL1        0.0070
     18 C         -16.9724   -9.5583   19.5945 C.ar    1  UNL1        0.0321
     19 C         -17.8533   -9.8333   18.4118 C.ar    1  UNL1        0.1674
     20 F         -18.7667  -11.0231   18.4176 F       1  UNL1       -0.2018
     21 C         -17.8207   -8.9185   17.2235 C.ar    1  UNL1        0.1675
     22 F         -18.7015   -9.1935   16.0409 F       1  UNL1       -0.2018
     23 C         -16.9073   -7.7287   17.2178 C.ar    1  UNL1        0.0365
     24 C         -13.9290   -4.7398   18.3839 C.ar    1  UNL1        0.0155
     25 C         -13.1758   -5.5168   19.4226 C.ar    1  UNL1        0.0001
     26 C         -12.2507   -6.6223   19.0080 C.ar    1  UNL1        0.0112
     27 C         -12.0788   -6.9508   17.5545 C.ar    1  UNL1        0.0577
     28 CL        -11.1537   -8.0563   17.1398 Cl      1  UNL1       -0.0822
     29 C         -12.8320   -6.1738   16.5158 C.ar    1  UNL1        0.0112
     30 C         -13.7571   -5.0684   16.9305 C.ar    1  UNL1        0.0001
@<TRIPOS>BOND
     1     1     2    2
     2     2    16    1
     3    16    17   ar
     4    17    18   ar
     5    18    19   ar
     6    19    20    1
     7    19    21   ar
     8    21    22    1
     9    21    23   ar
    10     2     3   am
    11     3     4    1
    12     4     5    1
    13     5     6    1
    14     6     7   am
    15     7     8    2
    16     7     9    1
    17     9    10   ar
    18    10    11   ar
    19    11    12   ar
    20    12    13   ar
    21    13    14   ar
    22    14    15    1
    23    15    24    1
    24    24    25   ar
    25    25    26   ar
    26    26    27   ar
    27    27    28    1
    28    27    29   ar
    29    29    30   ar
    30    23    16   ar
    31    15     3    1
    32    30    24   ar
    33    15     6    1
    34    14     9   ar
