@<TRIPOS>MOLECULE
*****
 37 39 0 0 0
SMALL
GASTEIGER

@<TRIPOS>ATOM
      1 C          -9.3132  -18.9081   20.6358 C.3     1  UNL1        0.1811
      2 O          -8.6231  -18.4708   21.8937 O.3     1  UNL1       -0.3784
      3 H          -7.8191  -18.9983   22.0215 H       1  UNL1        0.2106
      4 C         -10.0034  -19.3454   19.3778 C.3     1  UNL1        0.4197
      5 F         -10.6936  -19.7826   18.1198 F       1  UNL1       -0.1676
      6 F         -10.5615  -17.9640   19.2039 F       1  UNL1       -0.1676
      7 F          -9.4453  -20.7267   19.5517 F       1  UNL1       -0.1676
      8 C          -8.2386  -19.9278   20.4007 C.3     1  UNL1        0.0807
      9 C          -2.0202  -18.2671   20.8226 C.2     1  UNL1        0.1857
     10 C          -3.1710  -18.3880   19.8681 C.2     1  UNL1        0.0359
     11 C          -4.5050  -18.8678   20.3585 C.2     1  UNL1        0.0095
     12 C          -5.8127  -19.0868   19.6571 C.2     1  UNL1        0.0124
     13 C          -6.8040  -19.5810   20.6686 C.2     1  UNL1        0.0568
     14 N          -6.1090  -19.6675   21.9950 N.2     1  UNL1       -0.2661
     15 C          -4.6881  -19.2267   21.8034 C.3     1  UNL1        0.1661
     16 C          -3.5373  -19.1058   22.7579 C.2     1  UNL1        0.1025
     17 N          -2.2034  -18.6260   22.2675 N.2     1  UNL1       -0.2281
     18 S          -0.6864  -17.7873   20.3322 S.O2    1  UNL1        0.0250
     19 O          -0.3641  -19.1720   19.8540 O.2     1  UNL1       -0.1672
     20 O          -1.0086  -16.4026   20.8104 O.2     1  UNL1       -0.1672
     21 C           1.8707  -17.4971   20.6892 C.3     1  UNL1        0.0276
     22 C           0.6476  -17.3076   19.8418 C.3     1  UNL1        0.1577
     23 C         -10.3879  -17.8884   20.8709 C.3     1  UNL1        0.0398
     24 C         -11.3349  -18.0489   22.0231 C.3     1  UNL1        0.0216
     25 C         -11.3355  -19.5344   21.8157 C.3     1  UNL1        0.0045
     26 C         -11.3341  -16.5632   22.2306 C.3     1  UNL1        0.0045
     27 C         -12.2818  -18.2093   23.1753 C.ar    1  UNL1       -0.0184
     28 C         -13.7527  -17.9967   22.9724 C.ar    1  UNL1       -0.0041
     29 C         -14.6997  -18.1572   24.1246 C.ar    1  UNL1       -0.0003
     30 C         -14.1757  -18.5303   25.4797 C.ar    1  UNL1        0.0001
     31 C         -12.7047  -18.7429   25.6826 C.ar    1  UNL1        0.0042
     32 C         -11.7578  -18.5824   24.5303 C.ar    1  UNL1        0.0492
     33 C         -10.2869  -18.7950   24.7332 C.2     1  UNL1        0.2424
     34 N          -9.3582  -17.6179   24.7791 N.am    1  UNL1       -0.3253
     35 O          -9.7446  -20.1847   24.8903 O.2     1  UNL1       -0.2704
     36 H          -9.7141  -16.7058   24.6760 H       1  UNL1        0.1453
     37 H          -8.3928  -17.7574   24.9122 H       1  UNL1        0.1453
@<TRIPOS>BOND
     1    21    22    1
     2    22    18    1
     3    18    19    2
     4    18    20    2
     5    18     9    1
     6     9    10    2
     7    10    11    1
     8    11    12    2
     9    12    13    1
    10    13     8    1
    11     8     1    1
    12     1     2    1
    13     1    23    1
    14    23    24    1
    15    24    25    1
    16    24    26    1
    17    24    27    1
    18    27    28   ar
    19    28    29   ar
    20    29    30   ar
    21    30    31   ar
    22    31    32   ar
    23    32    33    1
    24    33    34   am
    25    33    35    2
    26     1     4    1
    27     4     5    1
    28     4     6    1
    29     4     7    1
    30    13    14    2
    31    14    15    1
    32    15    16    1
    33    16    17    2
    34    17     9    1
    35    15    11    1
    36    32    27   ar
    37     2     3    1
    38    34    36    1
    39    34    37    1
@<TRIPOS>MOLECULE
*****
 37 39 0 0 0
SMALL
GASTEIGER

@<TRIPOS>ATOM
      1 C          -9.5248  -18.7720   21.9131 C.3     1  UNL1        0.1811
      2 O          -8.5260  -17.6534   21.8823 O.3     1  UNL1       -0.3784
      3 H          -7.8451  -17.8460   21.2188 H       1  UNL1        0.2106
      4 C         -10.5237  -19.8907   21.9439 C.3     1  UNL1        0.4197
      5 F         -11.5225  -21.0093   21.9748 F       1  UNL1       -0.1676
      6 F          -9.5773  -20.7129   22.7674 F       1  UNL1       -0.1676
      7 F         -11.4701  -19.0684   21.1204 F       1  UNL1       -0.1676
      8 C          -8.7612  -19.4834   20.8357 C.3     1  UNL1        0.0807
      9 C          -2.3596  -18.9303   20.2732 C.2     1  UNL1        0.1857
     10 C          -3.6625  -18.4802   19.6819 C.2     1  UNL1        0.0359
     11 C          -4.9574  -18.9650   20.2635 C.2     1  UNL1        0.0095
     12 C          -6.3864  -18.6951   19.8957 C.2     1  UNL1        0.0124
     13 C          -7.2613  -19.4634   20.8413 C.2     1  UNL1        0.0568
     14 N          -6.3733  -20.2080   21.7935 N.2     1  UNL1       -0.2661
     15 C          -4.9493  -19.9001   21.4364 C.3     1  UNL1        0.1661
     16 C          -3.6463  -20.3502   22.0277 C.2     1  UNL1        0.1025
     17 N          -2.3515  -19.8653   21.4461 N.2     1  UNL1       -0.2281
     18 S          -1.0648  -18.4455   19.6915 S.O2    1  UNL1        0.0250
     19 O          -1.6897  -18.4119   18.3284 O.2     1  UNL1       -0.1672
     20 O          -0.4398  -18.4790   21.0548 O.2     1  UNL1       -0.1672
     21 C           1.1706  -17.1464   19.9480 C.3     1  UNL1        0.0276
     22 C           0.2301  -17.9606   19.1099 C.3     1  UNL1        0.1577
     23 C         -10.2884  -18.0605   22.9904 C.3     1  UNL1        0.0398
     24 C          -9.5527  -17.3767   24.1045 C.3     1  UNL1        0.0216
     25 C          -8.8719  -18.6685   24.4477 C.3     1  UNL1        0.0045
     26 C         -10.2336  -16.0849   23.7613 C.3     1  UNL1        0.0045
     27 C          -8.8170  -16.6930   25.2186 C.ar    1  UNL1       -0.0184
     28 C          -9.3252  -16.7945   26.6263 C.ar    1  UNL1       -0.0041
     29 C          -8.5895  -16.1107   27.7404 C.ar    1  UNL1       -0.0003
     30 C          -7.3456  -15.3255   27.4469 C.ar    1  UNL1        0.0001
     31 C          -6.8374  -15.2240   26.0392 C.ar    1  UNL1        0.0042
     32 C          -7.5731  -15.9078   24.9251 C.ar    1  UNL1        0.0492
     33 C          -7.0649  -15.8064   23.5175 C.2     1  UNL1        0.2424
     34 N          -7.5498  -14.7044   22.6226 N.am    1  UNL1       -0.3253
     35 O          -6.0719  -16.8068   23.0046 O.2     1  UNL1       -0.2704
     36 H          -8.2016  -14.0478   22.9592 H       1  UNL1        0.1453
     37 H          -7.2163  -14.6378   21.6987 H       1  UNL1        0.1453
@<TRIPOS>BOND
     1    21    22    1
     2    22    18    1
     3    18    19    2
     4    18    20    2
     5    18     9    1
     6     9    10    2
     7    10    11    1
     8    11    12    2
     9    12    13    1
    10    13     8    1
    11     8     1    1
    12     1     2    1
    13     1    23    1
    14    23    24    1
    15    24    25    1
    16    24    26    1
    17    24    27    1
    18    27    28   ar
    19    28    29   ar
    20    29    30   ar
    21    30    31   ar
    22    31    32   ar
    23    32    33    1
    24    33    34   am
    25    33    35    2
    26     1     4    1
    27     4     5    1
    28     4     6    1
    29     4     7    1
    30    13    14    2
    31    14    15    1
    32    15    16    1
    33    16    17    2
    34    17     9    1
    35    15    11    1
    36    32    27   ar
    37     2     3    1
    38    34    36    1
    39    34    37    1
@<TRIPOS>MOLECULE
*****
 37 39 0 0 0
SMALL
GASTEIGER

@<TRIPOS>ATOM
      1 C         -10.1614  -18.5395   22.3373 C.3     1  UNL1        0.1811
      2 O          -8.9127  -18.9945   23.0327 O.3     1  UNL1       -0.3784
      3 H          -8.3556  -19.4855   22.4086 H       1  UNL1        0.2106
      4 C         -11.4102  -18.0844   21.6418 C.3     1  UNL1        0.4197
      5 F         -12.6590  -17.6294   20.9465 F       1  UNL1       -0.1676
      6 F         -12.2354  -18.9108   22.5831 F       1  UNL1       -0.1676
      7 F         -10.5850  -17.2581   20.7006 F       1  UNL1       -0.1676
      8 C          -9.6892  -19.1839   21.0677 C.3     1  UNL1        0.0807
      9 C          -3.3637  -19.1238   19.8080 C.2     1  UNL1        0.1857
     10 C          -4.5837  -18.2543   19.8829 C.2     1  UNL1        0.0359
     11 C          -5.9079  -18.8509   20.2580 C.2     1  UNL1        0.0095
     12 C          -7.2727  -18.2480   20.4124 C.2     1  UNL1        0.0124
     13 C          -8.2203  -19.3414   20.8079 C.2     1  UNL1        0.0568
     14 N          -7.4412  -20.6200   20.8980 N.2     1  UNL1       -0.2661
     15 C          -6.0120  -20.3169   20.5582 C.3     1  UNL1        0.1661
     16 C          -4.7919  -21.1863   20.4832 C.2     1  UNL1        0.1025
     17 N          -3.4678  -20.5897   20.1081 N.2     1  UNL1       -0.2281
     18 S          -2.0395  -18.5272   19.4329 S.O2    1  UNL1        0.0250
     19 O          -1.3528  -19.4403   20.4048 O.2     1  UNL1       -0.1672
     20 O          -2.7262  -17.6140   18.4610 O.2     1  UNL1       -0.1672
     21 C           0.2023  -17.4110   20.1246 C.3     1  UNL1        0.0276
     22 C          -0.7153  -17.9306   19.0579 C.3     1  UNL1        0.1577
     23 C         -10.6336  -17.8951   23.6068 C.3     1  UNL1        0.0398
     24 C          -9.6511  -17.2132   24.5123 C.3     1  UNL1        0.0216
     25 C          -9.4056  -18.5110   25.2231 C.3     1  UNL1        0.0045
     26 C          -9.8967  -15.9153   23.8014 C.3     1  UNL1        0.0045
     27 C          -8.6687  -16.5314   25.4178 C.ar    1  UNL1       -0.0184
     28 C          -8.9507  -16.4267   26.8873 C.ar    1  UNL1       -0.0041
     29 C          -7.9683  -15.7449   27.7928 C.ar    1  UNL1       -0.0003
     30 C          -6.7038  -15.1678   27.2287 C.ar    1  UNL1        0.0001
     31 C          -6.4218  -15.2725   25.7592 C.ar    1  UNL1        0.0042
     32 C          -7.4043  -15.9544   24.8537 C.ar    1  UNL1        0.0492
     33 C          -7.1223  -16.0591   23.3842 C.2     1  UNL1        0.2424
     34 N          -7.5584  -14.9636   22.4569 N.am    1  UNL1       -0.3253
     35 O          -6.4043  -17.2592   22.8420 O.2     1  UNL1       -0.2704
     36 H          -8.0297  -14.1759   22.8128 H       1  UNL1        0.1453
     37 H          -7.3733  -15.0324   21.4924 H       1  UNL1        0.1453
@<TRIPOS>BOND
     1    21    22    1
     2    22    18    1
     3    18    19    2
     4    18    20    2
     5    18     9    1
     6     9    10    2
     7    10    11    1
     8    11    12    2
     9    12    13    1
    10    13     8    1
    11     8     1    1
    12     1     2    1
    13     1    23    1
    14    23    24    1
    15    24    25    1
    16    24    26    1
    17    24    27    1
    18    27    28   ar
    19    28    29   ar
    20    29    30   ar
    21    30    31   ar
    22    31    32   ar
    23    32    33    1
    24    33    34   am
    25    33    35    2
    26     1     4    1
    27     4     5    1
    28     4     6    1
    29     4     7    1
    30    13    14    2
    31    14    15    1
    32    15    16    1
    33    16    17    2
    34    17     9    1
    35    15    11    1
    36    32    27   ar
    37     2     3    1
    38    34    36    1
    39    34    37    1
@<TRIPOS>MOLECULE
*****
 37 39 0 0 0
SMALL
GASTEIGER

@<TRIPOS>ATOM
      1 C          -8.0587  -15.4816   24.6624 C.3     1  UNL1        0.1811
      2 O          -7.8565  -15.4806   23.1761 O.3     1  UNL1       -0.3784
      3 H          -6.9288  -15.2800   22.9762 H       1  UNL1        0.2106
      4 C          -8.2609  -15.4826   26.1488 C.3     1  UNL1        0.4197
      5 F          -8.4632  -15.4836   27.6350 F       1  UNL1       -0.1676
      6 F          -9.5548  -14.7444   25.9732 F       1  UNL1       -0.1676
      7 F          -6.9670  -16.2208   26.3244 F       1  UNL1       -0.1676
      8 C          -6.6085  -15.1529   24.8599 C.3     1  UNL1        0.0807
      9 C          -1.7828  -17.6108   21.3564 C.2     1  UNL1        0.1857
     10 C          -2.3410  -16.3309   21.9044 C.2     1  UNL1        0.0359
     11 C          -3.5981  -16.3505   22.7225 C.2     1  UNL1        0.0095
     12 C          -4.3789  -15.2568   23.3892 C.2     1  UNL1        0.0124
     13 C          -5.5604  -15.8805   24.0712 C.2     1  UNL1        0.0568
     14 N          -5.5098  -17.3594   23.8261 N.2     1  UNL1       -0.2661
     15 C          -4.2971  -17.6499   22.9926 C.3     1  UNL1        0.1661
     16 C          -3.7388  -18.9298   22.4445 C.2     1  UNL1        0.1025
     17 N          -2.4817  -18.9102   21.6265 N.2     1  UNL1       -0.2281
     18 S          -0.5256  -17.5912   20.5384 S.O2    1  UNL1        0.0250
     19 O          -0.4347  -16.1043   20.7139 O.2     1  UNL1       -0.1672
     20 O          -0.6166  -19.0781   20.3629 O.2     1  UNL1       -0.1672
     21 C           2.0658  -17.4695   20.3980 C.3     1  UNL1        0.0276
     22 C           0.7315  -17.5715   19.7203 C.3     1  UNL1        0.1577
     23 C          -9.5088  -15.8102   24.4649 C.3     1  UNL1        0.0398
     24 C          -9.9125  -16.8480   23.4599 C.3     1  UNL1        0.0216
     25 C          -8.7681  -17.7145   23.8950 C.3     1  UNL1        0.0045
     26 C         -11.0570  -15.9815   23.0248 C.3     1  UNL1        0.0045
     27 C         -10.3162  -17.8858   22.4550 C.ar    1  UNL1       -0.0184
     28 C          -9.9578  -17.7092   21.0092 C.ar    1  UNL1       -0.0041
     29 C         -10.3615  -18.7470   20.0042 C.ar    1  UNL1       -0.0003
     30 C         -11.1236  -19.9615   20.4450 C.ar    1  UNL1        0.0001
     31 C         -11.4820  -20.1381   21.8908 C.ar    1  UNL1        0.0042
     32 C         -11.0783  -19.1002   22.8958 C.ar    1  UNL1        0.0492
     33 C         -11.4367  -19.2768   24.3416 C.2     1  UNL1        0.2424
     34 N         -10.5545  -20.0935   25.2387 N.am    1  UNL1       -0.3253
     35 O         -12.6774  -18.6368   24.8903 O.2     1  UNL1       -0.2704
     36 H          -9.7402  -20.5136   24.8785 H       1  UNL1        0.1453
     37 H         -10.7897  -20.2094   26.1876 H       1  UNL1        0.1453
@<TRIPOS>BOND
     1    21    22    1
     2    22    18    1
     3    18    19    2
     4    18    20    2
     5    18     9    1
     6     9    10    2
     7    10    11    1
     8    11    12    2
     9    12    13    1
    10    13     8    1
    11     8     1    1
    12     1     2    1
    13     1    23    1
    14    23    24    1
    15    24    25    1
    16    24    26    1
    17    24    27    1
    18    27    28   ar
    19    28    29   ar
    20    29    30   ar
    21    30    31   ar
    22    31    32   ar
    23    32    33    1
    24    33    34   am
    25    33    35    2
    26     1     4    1
    27     4     5    1
    28     4     6    1
    29     4     7    1
    30    13    14    2
    31    14    15    1
    32    15    16    1
    33    16    17    2
    34    17     9    1
    35    15    11    1
    36    32    27   ar
    37     2     3    1
    38    34    36    1
    39    34    37    1
@<TRIPOS>MOLECULE
*****
 37 39 0 0 0
SMALL
GASTEIGER

@<TRIPOS>ATOM
      1 C           4.9490   -2.7578   19.9285 C.3     1  UNL1        0.1811
      2 O           5.0960   -1.5005   20.7331 O.3     1  UNL1       -0.3784
      3 H           6.0179   -1.4058   21.0195 H       1  UNL1        0.2106
      4 C           4.8020   -4.0152   19.1237 C.3     1  UNL1        0.4197
      5 F           4.6550   -5.2725   18.3191 F       1  UNL1       -0.1676
      6 F           3.8208   -4.5431   20.1280 F       1  UNL1       -0.1676
      7 F           5.7832   -3.4873   18.1195 F       1  UNL1       -0.1676
      8 C           6.4092   -3.0470   20.1137 C.3     1  UNL1        0.0807
      9 C           7.9212   -5.8475   25.7238 C.2     1  UNL1        0.1857
     10 C           7.0243   -4.8236   25.0936 C.2     1  UNL1        0.0359
     11 C           7.1090   -4.5580   23.6197 C.2     1  UNL1        0.0095
     12 C           6.3596   -3.6156   22.7250 C.2     1  UNL1        0.0124
     13 C           6.8781   -3.7915   21.3285 C.2     1  UNL1        0.0568
     14 N           7.9478   -4.8425   21.3600 N.2     1  UNL1       -0.2661
     15 C           8.0905   -5.3163   22.7761 C.3     1  UNL1        0.1661
     16 C           8.9874   -6.3402   23.4064 C.2     1  UNL1        0.1025
     17 N           8.9027   -6.6058   24.8803 N.2     1  UNL1       -0.2281
     18 S           7.8365   -6.1131   27.1977 S.O2    1  UNL1        0.0250
     19 O           6.3724   -5.7883   27.1721 O.2     1  UNL1       -0.1672
     20 O           9.3008   -6.4380   27.2233 O.2     1  UNL1       -0.1672
     21 C           6.8420   -5.5525   29.5315 C.3     1  UNL1        0.0276
     22 C           7.7518   -6.3787   28.6716 C.3     1  UNL1        0.1577
     23 C           3.4889   -2.4686   19.7433 C.3     1  UNL1        0.0398
     24 C           3.0327   -1.0703   19.4485 C.3     1  UNL1        0.0216
     25 C           3.6269   -1.1662   18.0746 C.3     1  UNL1        0.0045
     26 C           2.4386   -0.9745   20.8225 C.3     1  UNL1        0.0045
     27 C           2.5766    0.3278   19.1537 C.ar    1  UNL1       -0.0184
     28 C           1.2056    0.5672   18.5941 C.ar    1  UNL1       -0.0041
     29 C           0.7495    1.9654   18.2993 C.ar    1  UNL1       -0.0003
     30 C           1.6643    3.1243   18.5641 C.ar    1  UNL1        0.0001
     31 C           3.0353    2.8850   19.1237 C.ar    1  UNL1        0.0042
     32 C           3.4914    1.4867   19.4185 C.ar    1  UNL1        0.0492
     33 C           4.8624    1.2473   19.9781 C.2     1  UNL1        0.2424
     34 N           5.1055    1.3850   21.4519 N.am    1  UNL1       -0.3253
     35 O           5.9903    0.8702   19.0640 O.2     1  UNL1       -0.2704
     36 H           4.3652    1.6325   22.0519 H       1  UNL1        0.1453
     37 H           6.0053    1.2279   21.8192 H       1  UNL1        0.1453
@<TRIPOS>BOND
     1    21    22    1
     2    22    18    1
     3    18    19    2
     4    18    20    2
     5    18     9    1
     6     9    10    2
     7    10    11    1
     8    11    12    2
     9    12    13    1
    10    13     8    1
    11     8     1    1
    12     1     2    1
    13     1    23    1
    14    23    24    1
    15    24    25    1
    16    24    26    1
    17    24    27    1
    18    27    28   ar
    19    28    29   ar
    20    29    30   ar
    21    30    31   ar
    22    31    32   ar
    23    32    33    1
    24    33    34   am
    25    33    35    2
    26     1     4    1
    27     4     5    1
    28     4     6    1
    29     4     7    1
    30    13    14    2
    31    14    15    1
    32    15    16    1
    33    16    17    2
    34    17     9    1
    35    15    11    1
    36    32    27   ar
    37     2     3    1
    38    34    36    1
    39    34    37    1
@<TRIPOS>MOLECULE
*****
 37 39 0 0 0
SMALL
GASTEIGER

@<TRIPOS>ATOM
      1 C         -11.0349   -5.4588   17.8754 C.3     1  UNL1        0.1811
      2 O         -12.0595   -4.7008   17.0846 O.3     1  UNL1       -0.3784
      3 H         -11.8907   -3.7490   17.1649 H       1  UNL1        0.2106
      4 C         -10.0103   -6.2170   18.6663 C.3     1  UNL1        0.4197
      5 F          -8.9857   -6.9751   19.4571 F       1  UNL1       -0.1676
      6 F          -9.9844   -7.2826   17.6110 F       1  UNL1       -0.1676
      7 F         -10.0362   -5.1513   19.7215 F       1  UNL1       -0.1676
      8 C         -10.3958   -4.1657   18.2868 C.3     1  UNL1        0.0807
      9 C         -13.1269    1.5937   17.3004 C.2     1  UNL1        0.1857
     10 C         -11.9408    0.7478   16.9434 C.2     1  UNL1        0.0359
     11 C         -11.8061   -0.6335   17.5126 C.2     1  UNL1        0.0095
     12 C         -10.7559   -1.6910   17.3429 C.2     1  UNL1        0.0124
     13 C         -11.1583   -2.8798   18.1643 C.2     1  UNL1        0.0568
     14 N         -12.4571   -2.5571   18.8417 N.2     1  UNL1       -0.2661
     15 C         -12.8575   -1.1687   18.4390 C.3     1  UNL1        0.1661
     16 C         -14.0436   -0.3227   18.7960 C.2     1  UNL1        0.1025
     17 N         -14.1783    1.0585   18.2268 N.2     1  UNL1       -0.2281
     18 S         -13.2616    2.9749   16.7312 S.O2    1  UNL1        0.0250
     19 O         -11.8395    3.2686   17.1073 O.2     1  UNL1       -0.1672
     20 O         -14.6837    2.6813   16.3550 O.2     1  UNL1       -0.1672
     21 C         -12.7110    5.5122   16.8284 C.3     1  UNL1        0.0276
     22 C         -13.3962    4.3562   16.1619 C.3     1  UNL1        0.1577
     23 C         -11.6741   -6.7519   17.4640 C.3     1  UNL1        0.0398
     24 C         -13.0509   -7.0961   17.9500 C.3     1  UNL1        0.0216
     25 C         -13.4711   -7.4015   16.5429 C.3     1  UNL1        0.0045
     26 C         -12.6305   -6.7906   19.3571 C.3     1  UNL1        0.0045
     27 C         -14.4276   -7.4402   18.4359 C.ar    1  UNL1       -0.0184
     28 C         -14.8256   -8.8764   18.6062 C.ar    1  UNL1       -0.0041
     29 C         -16.2024   -9.2205   19.0921 C.ar    1  UNL1       -0.0003
     30 C         -17.1811   -8.1284   19.4077 C.ar    1  UNL1        0.0001
     31 C         -16.7831   -6.6923   19.2374 C.ar    1  UNL1        0.0042
     32 C         -15.4062   -6.3482   18.7515 C.ar    1  UNL1        0.0492
     33 C         -15.0082   -4.9120   18.5812 C.2     1  UNL1        0.2424
     34 N         -14.7532   -4.0564   19.7866 N.am    1  UNL1       -0.3253
     35 O         -14.8651   -4.3315   17.2055 O.2     1  UNL1       -0.2704
     36 H         -14.8471   -4.4375   20.6895 H       1  UNL1        0.1453
     37 H         -14.4920   -3.1138   19.6749 H       1  UNL1        0.1453
@<TRIPOS>BOND
     1    21    22    1
     2    22    18    1
     3    18    19    2
     4    18    20    2
     5    18     9    1
     6     9    10    2
     7    10    11    1
     8    11    12    2
     9    12    13    1
    10    13     8    1
    11     8     1    1
    12     1     2    1
    13     1    23    1
    14    23    24    1
    15    24    25    1
    16    24    26    1
    17    24    27    1
    18    27    28   ar
    19    28    29   ar
    20    29    30   ar
    21    30    31   ar
    22    31    32   ar
    23    32    33    1
    24    33    34   am
    25    33    35    2
    26     1     4    1
    27     4     5    1
    28     4     6    1
    29     4     7    1
    30    13    14    2
    31    14    15    1
    32    15    16    1
    33    16    17    2
    34    17     9    1
    35    15    11    1
    36    32    27   ar
    37     2     3    1
    38    34    36    1
    39    34    37    1
@<TRIPOS>MOLECULE
*****
 37 39 0 0 0
SMALL
GASTEIGER

@<TRIPOS>ATOM
      1 C         -10.5416   -5.4931   17.8088 C.3     1  UNL1        0.1811
      2 O         -11.4546   -4.8615   16.8002 O.3     1  UNL1       -0.3784
      3 H         -11.2941   -3.9053   16.7729 H       1  UNL1        0.2106
      4 C          -9.6286   -6.1248   18.8176 C.3     1  UNL1        0.4197
      5 F          -8.7156   -6.7564   19.8263 F       1  UNL1       -0.1676
      6 F          -9.8244   -4.9505   19.7301 F       1  UNL1       -0.1676
      7 F          -9.4328   -7.2991   17.9051 F       1  UNL1       -0.1676
      8 C          -9.9556   -4.1480   18.1207 C.3     1  UNL1        0.0807
      9 C         -13.7085    1.0919   17.8714 C.2     1  UNL1        0.1857
     10 C         -13.2876   -0.0454   18.7541 C.2     1  UNL1        0.0359
     11 C         -12.3012   -1.0584   18.2531 C.2     1  UNL1        0.0095
     12 C         -11.7031   -2.2776   18.8904 C.2     1  UNL1        0.0124
     13 C         -10.7682   -2.9066   17.9003 C.2     1  UNL1        0.0568
     14 N         -10.7883   -2.0763   16.6513 N.2     1  UNL1       -0.2661
     15 C         -11.7358   -0.9340   16.8693 C.3     1  UNL1        0.1661
     16 C         -12.1568    0.2033   15.9865 C.2     1  UNL1        0.1025
     17 N         -13.1432    1.2162   16.4876 N.2     1  UNL1       -0.2281
     18 S         -14.6949    2.1048   18.3725 S.O2    1  UNL1        0.0250
     19 O         -15.4906    1.0100   19.0192 O.2     1  UNL1       -0.1672
     20 O         -13.8992    3.1996   17.7257 O.2     1  UNL1       -0.1672
     21 C         -17.0322    2.6757   19.3527 C.3     1  UNL1        0.0276
     22 C         -15.6813    3.1177   18.8736 C.3     1  UNL1        0.1577
     23 C         -11.1276   -6.8382   17.4970 C.3     1  UNL1        0.0398
     24 C         -12.5700   -7.1167   17.8008 C.3     1  UNL1        0.0216
     25 C         -12.3194   -6.8314   19.2519 C.3     1  UNL1        0.0045
     26 C         -12.8205   -7.4020   16.3496 C.3     1  UNL1        0.0045
     27 C         -14.0122   -7.3951   18.1046 C.ar    1  UNL1       -0.0184
     28 C         -14.5049   -8.8103   18.1718 C.ar    1  UNL1       -0.0041
     29 C         -15.9471   -9.0888   18.4756 C.ar    1  UNL1       -0.0003
     30 C         -16.8968   -7.9520   18.7122 C.ar    1  UNL1        0.0001
     31 C         -16.4041   -6.5368   18.6450 C.ar    1  UNL1        0.0042
     32 C         -14.9618   -6.2584   18.3412 C.ar    1  UNL1        0.0492
     33 C         -14.4691   -4.8432   18.2740 C.2     1  UNL1        0.2424
     34 N         -14.3580   -4.0274   19.5279 N.am    1  UNL1       -0.3253
     35 O         -14.0876   -4.2438   16.9530 O.2     1  UNL1       -0.2704
     36 H         -14.6085   -4.4208   20.3949 H       1  UNL1        0.1453
     37 H         -14.0347   -3.0985   19.4838 H       1  UNL1        0.1453
@<TRIPOS>BOND
     1    21    22    1
     2    22    18    1
     3    18    19    2
     4    18    20    2
     5    18     9    1
     6     9    10    2
     7    10    11    1
     8    11    12    2
     9    12    13    1
    10    13     8    1
    11     8     1    1
    12     1     2    1
    13     1    23    1
    14    23    24    1
    15    24    25    1
    16    24    26    1
    17    24    27    1
    18    27    28   ar
    19    28    29   ar
    20    29    30   ar
    21    30    31   ar
    22    31    32   ar
    23    32    33    1
    24    33    34   am
    25    33    35    2
    26     1     4    1
    27     4     5    1
    28     4     6    1
    29     4     7    1
    30    13    14    2
    31    14    15    1
    32    15    16    1
    33    16    17    2
    34    17     9    1
    35    15    11    1
    36    32    27   ar
    37     2     3    1
    38    34    36    1
    39    34    37    1
@<TRIPOS>MOLECULE
*****
 37 39 0 0 0
SMALL
GASTEIGER

@<TRIPOS>ATOM
      1 C           5.6676   -3.2481   21.9330 C.3     1  UNL1        0.1811
      2 O           4.7760   -3.3866   23.1312 O.3     1  UNL1       -0.3784
      3 H           5.2944   -3.2427   23.9384 H       1  UNL1        0.2106
      4 C           6.5592   -3.1096   20.7347 C.3     1  UNL1        0.4197
      5 F           7.4508   -2.9710   19.5365 F       1  UNL1       -0.1676
      6 F           7.0384   -1.7828   21.2446 F       1  UNL1       -0.1676
      7 F           6.0801   -4.4363   20.2248 F       1  UNL1       -0.1676
      8 C           6.8331   -2.9630   22.8332 C.3     1  UNL1        0.0807
      9 C           6.7694   -4.3939   29.1222 C.2     1  UNL1        0.1857
     10 C           6.7292   -3.2548   28.1472 C.2     1  UNL1        0.0359
     11 C           6.7773   -3.5274   26.6729 C.2     1  UNL1        0.0095
     12 C           6.7544   -2.6152   25.4823 C.2     1  UNL1        0.0124
     13 C           6.8285   -3.4634   24.2473 C.2     1  UNL1        0.0568
     14 N           6.8972   -4.8995   24.6746 N.2     1  UNL1       -0.2661
     15 C           6.8656   -4.9391   26.1737 C.3     1  UNL1        0.1661
     16 C           6.9058   -6.0783   27.1488 C.2     1  UNL1        0.1025
     17 N           6.8577   -5.8057   28.6230 N.2     1  UNL1       -0.2281
     18 S           6.7212   -4.1213   30.5964 S.O2    1  UNL1        0.0250
     19 O           6.9951   -5.5699   30.8732 O.2     1  UNL1       -0.1672
     20 O           6.4473   -2.6727   30.3197 O.2     1  UNL1       -0.1672
     21 C           5.7246   -2.8210   32.6129 C.3     1  UNL1        0.0276
     22 C           6.6731   -3.8488   32.0707 C.3     1  UNL1        0.1577
     23 C           4.5022   -3.5331   21.0328 C.3     1  UNL1        0.0398
     24 C           3.7340   -2.4004   20.4188 C.3     1  UNL1        0.0216
     25 C           3.3547   -3.2823   19.2664 C.3     1  UNL1        0.0045
     26 C           4.1134   -1.5184   21.5714 C.3     1  UNL1        0.0045
     27 C           2.9659   -1.2677   19.8049 C.ar    1  UNL1       -0.0184
     28 C           1.5551   -0.9971   20.2367 C.ar    1  UNL1       -0.0041
     29 C           0.7870    0.1356   19.6227 C.ar    1  UNL1       -0.0003
     30 C           1.4297    0.9977   18.5768 C.ar    1  UNL1        0.0001
     31 C           2.8405    0.7271   18.1450 C.ar    1  UNL1        0.0042
     32 C           3.6086   -0.4056   18.7591 C.ar    1  UNL1        0.0492
     33 C           5.0194   -0.6762   18.3272 C.2     1  UNL1        0.2424
     34 N           6.1534    0.0813   18.9520 N.am    1  UNL1       -0.3253
     35 O           5.2962   -1.7043   17.2707 O.2     1  UNL1       -0.2704
     36 H           5.9717    0.7561   19.6455 H       1  UNL1        0.1453
     37 H           7.0793   -0.0963   18.6686 H       1  UNL1        0.1453
@<TRIPOS>BOND
     1    21    22    1
     2    22    18    1
     3    18    19    2
     4    18    20    2
     5    18     9    1
     6     9    10    2
     7    10    11    1
     8    11    12    2
     9    12    13    1
    10    13     8    1
    11     8     1    1
    12     1     2    1
    13     1    23    1
    14    23    24    1
    15    24    25    1
    16    24    26    1
    17    24    27    1
    18    27    28   ar
    19    28    29   ar
    20    29    30   ar
    21    30    31   ar
    22    31    32   ar
    23    32    33    1
    24    33    34   am
    25    33    35    2
    26     1     4    1
    27     4     5    1
    28     4     6    1
    29     4     7    1
    30    13    14    2
    31    14    15    1
    32    15    16    1
    33    16    17    2
    34    17     9    1
    35    15    11    1
    36    32    27   ar
    37     2     3    1
    38    34    36    1
    39    34    37    1
@<TRIPOS>MOLECULE
*****
 37 39 0 0 0
SMALL
GASTEIGER

@<TRIPOS>ATOM
      1 C          -7.0594  -16.0179   25.6081 C.3     1  UNL1        0.1811
      2 O          -7.0632  -16.7292   24.2875 O.3     1  UNL1       -0.3784
      3 H          -6.1874  -16.6543   23.8773 H       1  UNL1        0.2106
      4 C          -7.0556  -15.3065   26.9287 C.3     1  UNL1        0.4197
      5 F          -7.0518  -14.5952   28.2493 F       1  UNL1       -0.1676
      6 F          -8.1998  -16.1590   27.3912 F       1  UNL1       -0.1676
      7 F          -5.9114  -14.4539   26.4663 F       1  UNL1       -0.1676
      8 C          -5.6215  -15.6435   25.4022 C.3     1  UNL1        0.0807
      9 C          -2.0914  -17.9796   20.5356 C.2     1  UNL1        0.1857
     10 C          -2.7413  -16.7338   21.0605 C.2     1  UNL1        0.0359
     11 C          -3.5009  -16.7718   22.3535 C.2     1  UNL1        0.0095
     12 C          -4.2409  -15.7119   23.1144 C.2     1  UNL1        0.0124
     13 C          -4.8078  -16.3408   24.3526 C.2     1  UNL1        0.0568
     14 N          -4.4182  -17.7892   24.3570 N.2     1  UNL1       -0.2661
     15 C          -3.6104  -18.0557   23.1215 C.3     1  UNL1        0.1661
     16 C          -2.9604  -19.3015   22.5965 C.2     1  UNL1        0.1025
     17 N          -2.2010  -19.2634   21.3035 N.2     1  UNL1       -0.2281
     18 S          -1.3320  -17.9415   19.2426 S.O2    1  UNL1        0.0250
     19 O          -0.1797  -18.6426   19.8988 O.2     1  UNL1       -0.1672
     20 O          -2.4843  -17.2404   18.5863 O.2     1  UNL1       -0.1672
     21 C          -1.3125  -17.8324   16.6469 C.3     1  UNL1        0.0276
     22 C          -0.5724  -17.9035   17.9497 C.3     1  UNL1        0.1577
     23 C          -8.4972  -16.3922   25.8139 C.3     1  UNL1        0.0398
     24 C          -9.3960  -16.5962   24.6304 C.3     1  UNL1        0.0216
     25 C          -9.2688  -18.0823   24.7900 C.3     1  UNL1        0.0045
     26 C          -9.5231  -15.1101   24.4707 C.3     1  UNL1        0.0045
     27 C         -10.2947  -16.8003   23.4469 C.ar    1  UNL1       -0.0184
     28 C         -11.7373  -17.1556   23.6531 C.ar    1  UNL1       -0.0041
     29 C         -12.6360  -17.3597   22.4696 C.ar    1  UNL1       -0.0003
     30 C         -12.0921  -17.2084   21.0799 C.ar    1  UNL1        0.0001
     31 C         -10.6494  -16.8531   20.8737 C.ar    1  UNL1        0.0042
     32 C          -9.7507  -16.6490   22.0572 C.ar    1  UNL1        0.0492
     33 C          -8.3081  -16.2937   21.8510 C.2     1  UNL1        0.2424
     34 N          -7.8868  -14.8543   21.8228 N.am    1  UNL1       -0.3253
     35 O          -7.2867  -17.3777   21.6731 O.2     1  UNL1       -0.2704
     36 H          -8.5572  -14.1428   21.9397 H       1  UNL1        0.1453
     37 H          -6.9399  -14.6211   21.6875 H       1  UNL1        0.1453
@<TRIPOS>BOND
     1    21    22    1
     2    22    18    1
     3    18    19    2
     4    18    20    2
     5    18     9    1
     6     9    10    2
     7    10    11    1
     8    11    12    2
     9    12    13    1
    10    13     8    1
    11     8     1    1
    12     1     2    1
    13     1    23    1
    14    23    24    1
    15    24    25    1
    16    24    26    1
    17    24    27    1
    18    27    28   ar
    19    28    29   ar
    20    29    30   ar
    21    30    31   ar
    22    31    32   ar
    23    32    33    1
    24    33    34   am
    25    33    35    2
    26     1     4    1
    27     4     5    1
    28     4     6    1
    29     4     7    1
    30    13    14    2
    31    14    15    1
    32    15    16    1
    33    16    17    2
    34    17     9    1
    35    15    11    1
    36    32    27   ar
    37     2     3    1
    38    34    36    1
    39    34    37    1
