@<TRIPOS>MOLECULE
*****
 27 29 0 0 0
SMALL
GASTEIGER

@<TRIPOS>ATOM
      1 C           2.0531    4.0709   18.8100 C.2     1  UNL1        0.0412
      2 C           2.8669    2.8569   18.4725 C.2     1  UNL1       -0.0326
      3 C           2.2087    1.5115   18.3913 C.3     1  UNL1        0.0443
      4 C           3.0225    0.2975   18.0538 C.3     1  UNL1        0.1011
      5 N           4.4946    0.4289   17.7976 N.am    1  UNL1       -0.2454
      6 C           5.3084   -0.7850   17.4601 C.2     1  UNL1        0.4049
      7 O           6.7805   -0.6536   17.2039 O.2     1  UNL1       -0.2262
      8 C           5.1529    1.7743   17.8788 C.3     1  UNL1        0.1011
      9 C           4.3390    2.9884   18.2163 C.3     1  UNL1        0.0443
     10 C          -0.8911    3.8081   19.3225 C.1     1  UNL1       -0.0405
     11 C           0.5809    3.9395   19.0662 C.1     1  UNL1       -0.0583
     12 C          -4.8248    2.8729   22.5862 C.3     1  UNL1        0.0521
     13 C          -4.3301    3.2091   21.2107 C.ar    1  UNL1        0.0600
     14 C          -5.3074    3.4139   20.0914 C.ar    1  UNL1        0.0148
     15 C          -4.8127    3.7501   18.7158 C.ar    1  UNL1        0.0034
     16 C          -3.3406    3.8815   18.4595 C.ar    1  UNL1        0.0276
     17 C          -2.3633    3.6767   19.5788 C.ar    1  UNL1        0.1224
     18 N          -2.8580    3.3405   20.9544 N.ar    1  UNL1       -0.2414
     19 O           4.6502   -2.1304   17.3789 O.3     1  UNL1       -0.4342
     20 C           5.0655   -3.2263   18.3151 C.3     1  UNL1        0.2148
     21 C           4.1144   -3.7143   19.3674 C.3     1  UNL1        0.0738
     22 C           4.1043   -3.0744   20.7241 C.ar    1  UNL1       -0.0184
     23 C           4.8007   -3.7413   21.8731 C.ar    1  UNL1       -0.0041
     24 C           4.7906   -3.1015   23.2297 C.ar    1  UNL1       -0.0003
     25 C           4.0840   -1.7947   23.4374 C.ar    1  UNL1       -0.0000
     26 C           3.3876   -1.1278   22.2884 C.ar    1  UNL1       -0.0003
     27 C           3.3977   -1.7677   20.9317 C.ar    1  UNL1       -0.0041
@<TRIPOS>BOND
     1    12    13    1
     2    13    14   ar
     3    14    15   ar
     4    15    16   ar
     5    16    17   ar
     6    17    10    1
     7    10    11    3
     8    11     1    1
     9     1     2    2
    10     2     3    1
    11     3     4    1
    12     4     5    1
    13     5     6   am
    14     6     7    2
    15     6    19    1
    16    19    20    1
    17    20    21    1
    18    21    22    1
    19    22    23   ar
    20    23    24   ar
    21    24    25   ar
    22    25    26   ar
    23    26    27   ar
    24     5     8    1
    25     8     9    1
    26    17    18   ar
    27    18    13   ar
    28     9     2    1
    29    27    22   ar
@<TRIPOS>MOLECULE
*****
 27 29 0 0 0
SMALL
GASTEIGER

@<TRIPOS>ATOM
      1 C           0.2631    1.7390   21.4762 C.2     1  UNL1        0.0412
      2 C           1.2169    1.0203   20.5687 C.2     1  UNL1       -0.0326
      3 C           2.3000    0.1598   21.1488 C.3     1  UNL1        0.0443
      4 C           3.2538   -0.5589   20.2413 C.3     1  UNL1        0.1011
      5 N           3.1245   -0.4172   18.7535 N.am    1  UNL1       -0.2454
      6 C           4.0783   -1.1360   17.8460 C.2     1  UNL1        0.4049
      7 O           3.9490   -0.9943   16.3583 O.2     1  UNL1       -0.2262
      8 C           2.0414    0.4432   18.1734 C.3     1  UNL1        0.1011
      9 C           1.0876    1.1619   19.0810 C.3     1  UNL1        0.0443
     10 C           0.5217    1.4557   24.4516 C.1     1  UNL1       -0.0405
     11 C           0.3924    1.5974   22.9639 C.1     1  UNL1       -0.0583
     12 C          -1.5330    0.1545   29.0435 C.3     1  UNL1        0.0521
     13 C          -0.3764    0.6634   28.2352 C.ar    1  UNL1        0.0600
     14 C           0.9095    1.0307   28.9147 C.ar    1  UNL1        0.0148
     15 C           2.0661    1.5396   28.1064 C.ar    1  UNL1        0.0034
     16 C           1.9369    1.6813   26.6188 C.ar    1  UNL1        0.0276
     17 C           0.6510    1.3140   25.9393 C.ar    1  UNL1        0.1224
     18 N          -0.5056    0.8051   26.7476 N.ar    1  UNL1       -0.2414
     19 O           5.1614   -1.9964   18.4261 O.3     1  UNL1       -0.4342
     20 C           5.0226   -3.4899   18.4094 C.3     1  UNL1        0.2148
     21 C           4.6469   -4.2222   19.6634 C.3     1  UNL1        0.0738
     22 C           5.2679   -3.8350   20.9728 C.ar    1  UNL1       -0.0184
     23 C           4.3959   -3.4993   22.1463 C.ar    1  UNL1       -0.0041
     24 C           5.0168   -3.1120   23.4556 C.ar    1  UNL1       -0.0003
     25 C           6.5098   -3.0604   23.5916 C.ar    1  UNL1       -0.0000
     26 C           7.3818   -3.3961   22.4182 C.ar    1  UNL1       -0.0003
     27 C           6.7608   -3.7834   21.1088 C.ar    1  UNL1       -0.0041
@<TRIPOS>BOND
     1    12    13    1
     2    13    14   ar
     3    14    15   ar
     4    15    16   ar
     5    16    17   ar
     6    17    10    1
     7    10    11    3
     8    11     1    1
     9     1     2    2
    10     2     3    1
    11     3     4    1
    12     4     5    1
    13     5     6   am
    14     6     7    2
    15     6    19    1
    16    19    20    1
    17    20    21    1
    18    21    22    1
    19    22    23   ar
    20    23    24   ar
    21    24    25   ar
    22    25    26   ar
    23    26    27   ar
    24     5     8    1
    25     8     9    1
    26    17    18   ar
    27    18    13   ar
    28     9     2    1
    29    27    22   ar
@<TRIPOS>MOLECULE
*****
 27 29 0 0 0
SMALL
GASTEIGER

@<TRIPOS>ATOM
      1 C         -18.6339   -4.2649   19.8683 C.2     1  UNL1        0.0412
      2 C         -17.6753   -5.3553   19.4915 C.2     1  UNL1       -0.0326
      3 C         -16.2338   -5.0305   19.2330 C.3     1  UNL1        0.0443
      4 C         -15.2752   -6.1209   18.8562 C.3     1  UNL1        0.1011
      5 N         -15.7580   -7.5362   18.7379 N.am    1  UNL1       -0.2454
      6 C         -14.7993   -8.6266   18.3611 C.2     1  UNL1        0.4049
      7 O         -15.2821  -10.0418   18.2429 O.2     1  UNL1       -0.2262
      8 C         -17.1994   -7.8610   18.9964 C.3     1  UNL1        0.1011
      9 C         -18.1580   -6.7706   19.3732 C.3     1  UNL1        0.0443
     10 C         -17.6684   -1.4344   20.1047 C.1     1  UNL1       -0.0405
     11 C         -18.1512   -2.8496   19.9865 C.1     1  UNL1       -0.0583
     12 C         -17.6732    3.1290   22.5899 C.3     1  UNL1        0.0521
     13 C         -17.1881    2.2626   21.4656 C.ar    1  UNL1        0.0600
     14 C         -16.2203    2.8114   20.4596 C.ar    1  UNL1        0.0148
     15 C         -15.7352    1.9450   19.3353 C.ar    1  UNL1        0.0034
     16 C         -16.2179    0.5298   19.2170 C.ar    1  UNL1        0.0276
     17 C         -17.1857   -0.0191   20.2230 C.ar    1  UNL1        0.1224
     18 N         -17.6708    0.8473   21.3473 N.ar    1  UNL1       -0.2414
     19 O         -13.3579   -8.3018   18.1026 O.3     1  UNL1       -0.4342
     20 C         -12.8878   -8.0386   16.7027 C.3     1  UNL1        0.2148
     21 C         -11.4605   -7.6520   16.4511 C.3     1  UNL1        0.0738
     22 C         -10.8361   -6.5365   17.2359 C.ar    1  UNL1       -0.0184
     23 C         -10.2134   -6.8162   18.5716 C.ar    1  UNL1       -0.0041
     24 C          -9.5890   -5.7007   19.3563 C.ar    1  UNL1       -0.0003
     25 C          -9.5873   -4.3055   18.8055 C.ar    1  UNL1       -0.0000
     26 C         -10.2100   -4.0258   17.4698 C.ar    1  UNL1       -0.0003
     27 C         -10.8344   -5.1413   16.6850 C.ar    1  UNL1       -0.0041
@<TRIPOS>BOND
     1    12    13    1
     2    13    14   ar
     3    14    15   ar
     4    15    16   ar
     5    16    17   ar
     6    17    10    1
     7    10    11    3
     8    11     1    1
     9     1     2    2
    10     2     3    1
    11     3     4    1
    12     4     5    1
    13     5     6   am
    14     6     7    2
    15     6    19    1
    16    19    20    1
    17    20    21    1
    18    21    22    1
    19    22    23   ar
    20    23    24   ar
    21    24    25   ar
    22    25    26   ar
    23    26    27   ar
    24     5     8    1
    25     8     9    1
    26    17    18   ar
    27    18    13   ar
    28     9     2    1
    29    27    22   ar
@<TRIPOS>MOLECULE
*****
 27 29 0 0 0
SMALL
GASTEIGER

@<TRIPOS>ATOM
      1 C           5.9828   -2.2100   26.2129 C.2     1  UNL1        0.0412
      2 C           5.0910   -1.6754   27.2940 C.2     1  UNL1       -0.0326
      3 C           3.6718   -1.3043   26.9805 C.3     1  UNL1        0.0443
      4 C           2.7801   -0.7697   28.0616 C.3     1  UNL1        0.1011
      5 N           3.3074   -0.6062   29.4564 N.am    1  UNL1       -0.2454
      6 C           2.4156   -0.0716   30.5375 C.2     1  UNL1        0.4049
      7 O           2.9430    0.0918   31.9322 O.2     1  UNL1       -0.2262
      8 C           4.7265   -0.9774   29.7699 C.3     1  UNL1        0.1011
      9 C           5.6183   -1.5120   28.6887 C.3     1  UNL1        0.0443
     10 C           4.9281   -2.5370   23.4234 C.1     1  UNL1       -0.0405
     11 C           5.4554   -2.3735   24.8181 C.1     1  UNL1       -0.0583
     12 C           4.5525   -5.3208   19.0520 C.3     1  UNL1        0.0521
     13 C           4.2130   -4.0924   19.8430 C.ar    1  UNL1        0.0600
     14 C           3.3462   -3.0275   19.2393 C.ar    1  UNL1        0.0148
     15 C           3.0067   -1.7990   20.0303 C.ar    1  UNL1        0.0034
     16 C           3.5340   -1.6355   21.4250 C.ar    1  UNL1        0.0276
     17 C           4.4008   -2.7004   22.0287 C.ar    1  UNL1        0.1224
     18 N           4.7403   -3.9289   21.2377 N.ar    1  UNL1       -0.2414
     19 O           0.9965    0.2995   30.2240 O.3     1  UNL1       -0.4342
     20 C           0.5225    1.7053   30.4453 C.3     1  UNL1        0.2148
     21 C           0.7435    2.7465   29.3884 C.3     1  UNL1        0.0738
     22 C           0.8577    2.3413   27.9487 C.ar    1  UNL1       -0.0184
     23 C          -0.2967    1.6710   27.2644 C.ar    1  UNL1       -0.0041
     24 C          -0.1825    1.2658   25.8247 C.ar    1  UNL1       -0.0003
     25 C           1.0860    1.5308   25.0692 C.ar    1  UNL1       -0.0000
     26 C           2.2404    2.2010   25.7536 C.ar    1  UNL1       -0.0003
     27 C           2.1262    2.6063   27.1933 C.ar    1  UNL1       -0.0041
@<TRIPOS>BOND
     1    12    13    1
     2    13    14   ar
     3    14    15   ar
     4    15    16   ar
     5    16    17   ar
     6    17    10    1
     7    10    11    3
     8    11     1    1
     9     1     2    2
    10     2     3    1
    11     3     4    1
    12     4     5    1
    13     5     6   am
    14     6     7    2
    15     6    19    1
    16    19    20    1
    17    20    21    1
    18    21    22    1
    19    22    23   ar
    20    23    24   ar
    21    24    25   ar
    22    25    26   ar
    23    26    27   ar
    24     5     8    1
    25     8     9    1
    26    17    18   ar
    27    18    13   ar
    28     9     2    1
    29    27    22   ar
@<TRIPOS>MOLECULE
*****
 27 29 0 0 0
SMALL
GASTEIGER

@<TRIPOS>ATOM
      1 C          -7.5412  -20.1290   19.5294 C.2     1  UNL1        0.0412
      2 C          -8.6753  -19.4601   20.2478 C.2     1  UNL1       -0.0326
      3 C          -8.4243  -18.2229   21.0581 C.3     1  UNL1        0.0443
      4 C          -9.5585  -17.5540   21.7765 C.3     1  UNL1        0.1011
      5 N         -10.9437  -18.1222   21.6847 N.am    1  UNL1       -0.2454
      6 C         -12.0779  -17.4533   22.4031 C.2     1  UNL1        0.4049
      7 O         -13.4630  -18.0215   22.3112 O.2     1  UNL1       -0.2262
      8 C         -11.1947  -19.3593   20.8744 C.3     1  UNL1        0.1011
      9 C         -10.0605  -20.0282   20.1560 C.3     1  UNL1        0.0443
     10 C          -4.7708  -18.9926   19.7130 C.1     1  UNL1       -0.0405
     11 C          -6.1559  -19.5608   19.6212 C.1     1  UNL1       -0.0583
     12 C          -1.3778  -15.7433   21.9334 C.3     1  UNL1        0.0521
     13 C          -1.6891  -16.7998   20.9151 C.ar    1  UNL1        0.0600
     14 C          -0.6152  -17.2880   19.9886 C.ar    1  UNL1        0.0148
     15 C          -0.9265  -18.3445   18.9703 C.ar    1  UNL1        0.0034
     16 C          -2.3117  -18.9127   18.8784 C.ar    1  UNL1        0.0276
     17 C          -3.3855  -18.4244   19.8049 C.ar    1  UNL1        0.1224
     18 N          -3.0742  -17.3680   20.8232 N.ar    1  UNL1       -0.2414
     19 O         -11.8269  -16.2161   23.2134 O.3     1  UNL1       -0.4342
     20 C         -10.4283  -15.8557   23.6182 C.3     1  UNL1        0.2148
     21 C          -9.7523  -16.6045   24.7283 C.3     1  UNL1        0.0738
     22 C          -8.4178  -16.1466   25.2379 C.ar    1  UNL1       -0.0184
     23 C          -7.3139  -15.8321   24.2723 C.ar    1  UNL1       -0.0041
     24 C          -5.9795  -15.3742   24.7819 C.ar    1  UNL1       -0.0003
     25 C          -5.7490  -15.2308   26.2571 C.ar    1  UNL1       -0.0000
     26 C          -6.8529  -15.5454   27.2228 C.ar    1  UNL1       -0.0003
     27 C          -8.1873  -16.0032   26.7131 C.ar    1  UNL1       -0.0041
@<TRIPOS>BOND
     1    12    13    1
     2    13    14   ar
     3    14    15   ar
     4    15    16   ar
     5    16    17   ar
     6    17    10    1
     7    10    11    3
     8    11     1    1
     9     1     2    2
    10     2     3    1
    11     3     4    1
    12     4     5    1
    13     5     6   am
    14     6     7    2
    15     6    19    1
    16    19    20    1
    17    20    21    1
    18    21    22    1
    19    22    23   ar
    20    23    24   ar
    21    24    25   ar
    22    25    26   ar
    23    26    27   ar
    24     5     8    1
    25     8     9    1
    26    17    18   ar
    27    18    13   ar
    28     9     2    1
    29    27    22   ar
@<TRIPOS>MOLECULE
*****
 27 29 0 0 0
SMALL
GASTEIGER

@<TRIPOS>ATOM
      1 C         -12.3782   -4.7842   19.2349 C.2     1  UNL1        0.0412
      2 C         -12.5225   -3.3598   18.7876 C.2     1  UNL1       -0.0326
      3 C         -13.8690   -2.8309   18.3910 C.3     1  UNL1        0.0443
      4 C         -14.0133   -1.4065   17.9437 C.3     1  UNL1        0.1011
      5 N         -12.8111   -0.5108   17.8931 N.am    1  UNL1       -0.2454
      6 C         -12.9554    0.9137   17.4458 C.2     1  UNL1        0.4049
      7 O         -11.7533    1.8093   17.3952 O.2     1  UNL1       -0.2262
      8 C         -11.4646   -1.0396   18.2897 C.3     1  UNL1        0.1011
      9 C         -11.3204   -2.4641   18.7370 C.3     1  UNL1        0.0443
     10 C         -14.7826   -6.5756   19.3361 C.1     1  UNL1       -0.0405
     11 C         -13.5804   -5.6799   19.2855 C.1     1  UNL1       -0.0583
     12 C         -16.9177  -11.2782   18.7651 C.3     1  UNL1        0.0521
     13 C         -17.0523   -9.8226   19.1013 C.ar    1  UNL1        0.0600
     14 C         -18.3890   -9.2627   19.4881 C.ar    1  UNL1        0.0148
     15 C         -18.5236   -7.8070   19.8242 C.ar    1  UNL1        0.0034
     16 C         -17.3215   -6.9113   19.7736 C.ar    1  UNL1        0.0276
     17 C         -15.9848   -7.4713   19.3868 C.ar    1  UNL1        0.1224
     18 N         -15.8502   -8.9269   19.0506 N.ar    1  UNL1       -0.2414
     19 O         -14.3019    1.4425   17.0492 O.3     1  UNL1       -0.4342
     20 C         -15.0748    2.3121   17.9960 C.3     1  UNL1        0.2148
     21 C         -16.1016    1.7039   18.9047 C.3     1  UNL1        0.0738
     22 C         -16.3333    2.2834   20.2688 C.ar    1  UNL1       -0.0184
     23 C         -17.1563    1.5322   21.2729 C.ar    1  UNL1       -0.0041
     24 C         -17.3880    2.1116   22.6369 C.ar    1  UNL1       -0.0003
     25 C         -16.7966    3.4424   22.9968 C.ar    1  UNL1       -0.0000
     26 C         -15.9736    4.1936   21.9927 C.ar    1  UNL1       -0.0003
     27 C         -15.7419    3.6141   20.6287 C.ar    1  UNL1       -0.0041
@<TRIPOS>BOND
     1    12    13    1
     2    13    14   ar
     3    14    15   ar
     4    15    16   ar
     5    16    17   ar
     6    17    10    1
     7    10    11    3
     8    11     1    1
     9     1     2    2
    10     2     3    1
    11     3     4    1
    12     4     5    1
    13     5     6   am
    14     6     7    2
    15     6    19    1
    16    19    20    1
    17    20    21    1
    18    21    22    1
    19    22    23   ar
    20    23    24   ar
    21    24    25   ar
    22    25    26   ar
    23    26    27   ar
    24     5     8    1
    25     8     9    1
    26    17    18   ar
    27    18    13   ar
    28     9     2    1
    29    27    22   ar
@<TRIPOS>MOLECULE
*****
 27 29 0 0 0
SMALL
GASTEIGER

@<TRIPOS>ATOM
      1 C          -5.9968  -16.3818   24.2733 C.2     1  UNL1        0.0412
      2 C          -7.3942  -16.2818   23.7375 C.2     1  UNL1       -0.0326
      3 C          -7.6616  -16.5481   22.2857 C.3     1  UNL1        0.0443
      4 C          -9.0590  -16.4480   21.7498 C.3     1  UNL1        0.1011
      5 N         -10.1891  -16.0816   22.6657 N.am    1  UNL1       -0.2454
      6 C         -11.5865  -15.9816   22.1299 C.2     1  UNL1        0.4049
      7 O         -12.7165  -15.6152   23.0457 O.2     1  UNL1       -0.2262
      8 C          -9.9217  -15.8153   24.1175 C.3     1  UNL1        0.1011
      9 C          -8.5242  -15.9154   24.6533 C.3     1  UNL1        0.0443
     10 C          -3.7367  -17.1146   22.4416 C.1     1  UNL1       -0.0405
     11 C          -4.8667  -16.7482   23.3574 C.1     1  UNL1       -0.0583
     12 C          -1.8003  -17.5646   17.6408 C.3     1  UNL1        0.0521
     13 C          -1.6385  -17.7060   19.1253 C.ar    1  UNL1        0.0600
     14 C          -0.3467  -18.2137   19.6940 C.ar    1  UNL1        0.0148
     15 C          -0.1848  -18.3551   21.1785 C.ar    1  UNL1        0.0034
     16 C          -1.3148  -17.9887   22.0944 C.ar    1  UNL1        0.0276
     17 C          -2.6066  -17.4810   21.5257 C.ar    1  UNL1        0.1224
     18 N          -2.7684  -17.3396   20.0412 N.ar    1  UNL1       -0.2414
     19 O         -11.8539  -16.2479   20.6781 O.3     1  UNL1       -0.4342
     20 C         -11.5245  -17.5870   20.0882 C.3     1  UNL1        0.2148
     21 C         -11.8808  -18.8414   20.8295 C.3     1  UNL1        0.0738
     22 C         -11.1305  -19.2164   22.0731 C.ar    1  UNL1       -0.0184
     23 C          -9.7378  -19.7644   21.9723 C.ar    1  UNL1       -0.0041
     24 C          -8.9875  -20.1394   23.2158 C.ar    1  UNL1       -0.0003
     25 C          -9.6299  -19.9664   24.5603 C.ar    1  UNL1       -0.0000
     26 C         -11.0226  -19.4185   24.6611 C.ar    1  UNL1       -0.0003
     27 C         -11.7729  -19.0434   23.4175 C.ar    1  UNL1       -0.0041
@<TRIPOS>BOND
     1    12    13    1
     2    13    14   ar
     3    14    15   ar
     4    15    16   ar
     5    16    17   ar
     6    17    10    1
     7    10    11    3
     8    11     1    1
     9     1     2    2
    10     2     3    1
    11     3     4    1
    12     4     5    1
    13     5     6   am
    14     6     7    2
    15     6    19    1
    16    19    20    1
    17    20    21    1
    18    21    22    1
    19    22    23   ar
    20    23    24   ar
    21    24    25   ar
    22    25    26   ar
    23    26    27   ar
    24     5     8    1
    25     8     9    1
    26    17    18   ar
    27    18    13   ar
    28     9     2    1
    29    27    22   ar
@<TRIPOS>MOLECULE
*****
 27 29 0 0 0
SMALL
GASTEIGER

@<TRIPOS>ATOM
      1 C          -7.9220  -20.3557   19.9078 C.2     1  UNL1        0.0412
      2 C          -6.5271  -20.0254   20.3496 C.2     1  UNL1       -0.0326
      3 C          -6.3028  -19.0010   21.4222 C.3     1  UNL1        0.0443
      4 C          -4.9080  -18.6708   21.8639 C.3     1  UNL1        0.1011
      5 N          -3.7373  -19.3649   21.2331 N.am    1  UNL1       -0.2454
      6 C          -2.3424  -19.0346   21.6749 C.2     1  UNL1        0.4049
      7 O          -1.1718  -19.7287   21.0441 O.2     1  UNL1       -0.2262
      8 C          -3.9616  -20.3892   20.1605 C.3     1  UNL1        0.1011
      9 C          -5.3566  -20.7195   19.7188 C.3     1  UNL1        0.0443
     10 C         -10.2633  -18.9675   21.1695 C.1     1  UNL1       -0.0405
     11 C          -9.0927  -19.6616   20.5387 C.1     1  UNL1       -0.0583
     12 C         -13.7304  -18.5908   25.0214 C.3     1  UNL1        0.0521
     13 C         -13.1674  -18.0851   23.7263 C.ar    1  UNL1        0.0600
     14 C         -13.7751  -16.8854   23.0619 C.ar    1  UNL1        0.0148
     15 C         -13.2122  -16.3798   21.7668 C.ar    1  UNL1        0.0034
     16 C         -12.0416  -17.0738   21.1360 C.ar    1  UNL1        0.0276
     17 C         -11.4339  -18.2735   21.8003 C.ar    1  UNL1        0.1224
     18 N         -11.9968  -18.7791   23.0955 N.ar    1  UNL1       -0.2414
     19 O          -2.1181  -18.0102   22.7474 O.3     1  UNL1       -0.4342
     20 C          -3.2308  -17.6528   23.6877 C.3     1  UNL1        0.2148
     21 C          -3.9312  -16.3331   23.5537 C.3     1  UNL1        0.0738
     22 C          -5.1487  -16.0428   24.3805 C.ar    1  UNL1       -0.0184
     23 C          -5.0159  -15.8180   25.8576 C.ar    1  UNL1       -0.0041
     24 C          -6.2333  -15.5277   26.6844 C.ar    1  UNL1       -0.0003
     25 C          -7.5835  -15.4622   26.0342 C.ar    1  UNL1       -0.0000
     26 C          -7.7162  -15.6871   24.5571 C.ar    1  UNL1       -0.0003
     27 C          -6.4988  -15.9774   23.7302 C.ar    1  UNL1       -0.0041
@<TRIPOS>BOND
     1    12    13    1
     2    13    14   ar
     3    14    15   ar
     4    15    16   ar
     5    16    17   ar
     6    17    10    1
     7    10    11    3
     8    11     1    1
     9     1     2    2
    10     2     3    1
    11     3     4    1
    12     4     5    1
    13     5     6   am
    14     6     7    2
    15     6    19    1
    16    19    20    1
    17    20    21    1
    18    21    22    1
    19    22    23   ar
    20    23    24   ar
    21    24    25   ar
    22    25    26   ar
    23    26    27   ar
    24     5     8    1
    25     8     9    1
    26    17    18   ar
    27    18    13   ar
    28     9     2    1
    29    27    22   ar
@<TRIPOS>MOLECULE
*****
 27 29 0 0 0
SMALL
GASTEIGER

@<TRIPOS>ATOM
      1 C           8.1230   -5.3714   23.6958 C.2     1  UNL1        0.0412
      2 C           8.0634   -5.5879   25.1788 C.2     1  UNL1       -0.0326
      3 C           6.9150   -5.0378   25.9716 C.3     1  UNL1        0.0443
      4 C           6.8554   -5.2543   27.4546 C.3     1  UNL1        0.1011
      5 N           7.9443   -6.0210   28.1450 N.am    1  UNL1       -0.2454
      6 C           7.8847   -6.2376   29.6281 C.2     1  UNL1        0.4049
      7 O           8.9735   -7.0043   30.3184 O.2     1  UNL1       -0.2262
      8 C           9.0927   -6.5712   27.3523 C.3     1  UNL1        0.1011
      9 C           9.1523   -6.3546   25.8691 C.3     1  UNL1        0.0443
     10 C           5.9453   -3.8380   22.3150 C.1     1  UNL1       -0.0405
     11 C           7.0342   -4.6046   23.0054 C.1     1  UNL1       -0.0583
     12 C           2.4179   -0.0226   22.3383 C.3     1  UNL1        0.0521
     13 C           3.0928   -1.1636   21.6363 C.ar    1  UNL1        0.0600
     14 C           2.6788   -1.5378   20.2440 C.ar    1  UNL1        0.0148
     15 C           3.3537   -2.6788   19.5420 C.ar    1  UNL1        0.0034
     16 C           4.4425   -3.4455   20.2323 C.ar    1  UNL1        0.0276
     17 C           4.8564   -3.0713   21.6246 C.ar    1  UNL1        0.1224
     18 N           4.1816   -1.9303   22.3266 N.ar    1  UNL1       -0.2414
     19 O           6.7362   -5.6874   30.4208 O.3     1  UNL1       -0.4342
     20 C           6.9952   -4.7652   31.5751 C.3     1  UNL1        0.2148
     21 C           6.8968   -3.2805   31.3856 C.3     1  UNL1        0.0738
     22 C           6.2963   -2.4252   32.4617 C.ar    1  UNL1       -0.0184
     23 C           4.8905   -2.6752   32.9214 C.ar    1  UNL1       -0.0041
     24 C           4.2900   -1.8200   33.9974 C.ar    1  UNL1       -0.0003
     25 C           5.0952   -0.7147   34.6138 C.ar    1  UNL1       -0.0000
     26 C           6.5010   -0.4647   34.1542 C.ar    1  UNL1       -0.0003
     27 C           7.1015   -1.3199   33.0780 C.ar    1  UNL1       -0.0041
@<TRIPOS>BOND
     1    12    13    1
     2    13    14   ar
     3    14    15   ar
     4    15    16   ar
     5    16    17   ar
     6    17    10    1
     7    10    11    3
     8    11     1    1
     9     1     2    2
    10     2     3    1
    11     3     4    1
    12     4     5    1
    13     5     6   am
    14     6     7    2
    15     6    19    1
    16    19    20    1
    17    20    21    1
    18    21    22    1
    19    22    23   ar
    20    23    24   ar
    21    24    25   ar
    22    25    26   ar
    23    26    27   ar
    24     5     8    1
    25     8     9    1
    26    17    18   ar
    27    18    13   ar
    28     9     2    1
    29    27    22   ar
