@<TRIPOS>MOLECULE
*****
 34 37 0 0 0
SMALL
GASTEIGER

@<TRIPOS>ATOM
      1 N           1.0292    2.8811   31.8134 N.ar    1  UNL1       -0.2874
      2 C           0.2975    4.1300   32.2070 C.ar    1  UNL1        0.0858
      3 C           0.5214    4.7352   33.5610 C.ar    1  UNL1        0.0705
      4 C           1.4769    4.0916   34.5216 C.ar    1  UNL1        0.1996
      5 O           1.7007    4.6968   35.8757 O.2     1  UNL1       -0.2864
      6 C           2.2086    2.8427   34.1281 C.ar    1  UNL1        0.0583
      7 C           3.1641    2.1990   35.0886 C.ar    1  UNL1        0.0356
      8 C           3.8958    0.9501   34.6951 C.ar    1  UNL1        0.1543
      9 F           4.8514    0.3065   35.6556 F       1  UNL1       -0.2028
     10 C           3.6720    0.3449   33.3409 C.ar    1  UNL1        0.0878
     11 C           2.7164    0.9885   32.3804 C.ar    1  UNL1        0.0893
     12 CL          2.4926    0.3833   31.0263 Cl      1  UNL1       -0.0794
     13 C           1.9847    2.2375   32.7740 C.ar    1  UNL1        0.0803
     14 N          -1.3953   -0.5606   28.7676 N.pl3   1  UNL1       -0.3408
     15 C          -0.4069    0.5550   28.9364 C.ar    1  UNL1        0.1548
     16 N          -0.1831    1.1603   30.2905 N.ar    1  UNL1       -0.2091
     17 C           0.8053    2.2758   30.4593 C.ar    1  UNL1        0.1769
     18 C           1.5699    2.7862   29.2740 C.ar    1  UNL1        0.1767
     19 F           2.5584    3.9018   29.4428 F       1  UNL1       -0.2009
     20 C           1.3461    2.1810   27.9199 C.ar    1  UNL1        0.0652
     21 C           0.3577    1.0653   27.7511 C.ar    1  UNL1        0.1734
     22 F           0.1339    0.4601   26.3970 F       1  UNL1       -0.2012
     23 H          -1.8971   -0.8955   29.5456 H       1  UNL1        0.1438
     24 H          -1.5422   -0.9578   27.8789 H       1  UNL1        0.1438
     25 N           4.4036   -0.9040   32.9474 N.pl3   1  UNL1       -0.3022
     26 C           4.2996   -2.3546   33.3147 C.3     1  UNL1        0.1081
     27 C           5.4384   -2.6702   32.3909 C.3     1  UNL1        0.0908
     28 N           6.1702   -3.9191   31.9973 N.3     1  UNL1       -0.3195
     29 C           5.5425   -1.2196   32.0236 C.3     1  UNL1        0.1081
     30 H           6.8994   -3.6877   31.3228 H       1  UNL1        0.1189
     31 H           5.5154   -4.5788   31.5771 H       1  UNL1        0.1189
     32 C          -0.2103    5.9842   33.9546 C.2     1  UNL1        0.0774
     33 O          -1.7093    6.0200   33.9127 O.co2   1  UNL1       -0.5444
     34 O           0.5570    7.1972   34.3902 O.co2   1  UNL1       -0.5444
@<TRIPOS>UNITY_ATOM_ATTR
33 1
charge -1
@<TRIPOS>BOND
     1    14    15    1
     2    15    16   ar
     3    16    17   ar
     4    17     1    1
     5     1     2   ar
     6     2     3   ar
     7     3    32    1
     8    32    33   ar
     9    32    34   ar
    10     3     4   ar
    11     4     5    2
    12     4     6   ar
    13     6     7   ar
    14     7     8   ar
    15     8     9    1
    16     8    10   ar
    17    10    25    1
    18    25    26    1
    19    26    27    1
    20    27    28    1
    21    27    29    1
    22    10    11   ar
    23    11    12    1
    24    11    13   ar
    25    17    18   ar
    26    18    19    1
    27    18    20   ar
    28    20    21   ar
    29    21    22    1
    30    21    15   ar
    31    13     1   ar
    32    13     6   ar
    33    29    25    1
    34    14    23    1
    35    14    24    1
    36    28    30    1
    37    28    31    1
@<TRIPOS>MOLECULE
*****
 34 37 0 0 0
SMALL
GASTEIGER

@<TRIPOS>ATOM
      1 N           4.6889    0.0271   34.1980 N.ar    1  UNL1       -0.2874
      2 C           4.9877    0.2355   35.6530 C.ar    1  UNL1        0.0858
      3 C           4.1759    1.2106   36.4531 C.ar    1  UNL1        0.0705
      4 C           3.0654    1.9772   35.7981 C.ar    1  UNL1        0.1996
      5 O           2.2536    2.9524   36.5983 O.2     1  UNL1       -0.2864
      6 C           2.7666    1.7688   34.3431 C.ar    1  UNL1        0.0583
      7 C           1.6561    2.5354   33.6881 C.ar    1  UNL1        0.0356
      8 C           1.3573    2.3270   32.2331 C.ar    1  UNL1        0.1543
      9 F           0.2468    3.0936   31.5781 F       1  UNL1       -0.2028
     10 C           2.1691    1.3519   31.4329 C.ar    1  UNL1        0.0878
     11 C           3.2796    0.5852   32.0879 C.ar    1  UNL1        0.0893
     12 CL          4.0914   -0.3899   31.2878 Cl      1  UNL1       -0.0794
     13 C           3.5784    0.7937   33.5430 C.ar    1  UNL1        0.0803
     14 N           8.7735   -0.9969   31.1536 N.pl3   1  UNL1       -0.3408
     15 C           7.5430   -1.4601   31.8756 C.ar    1  UNL1        0.1548
     16 N           6.7312   -0.4849   32.6758 N.ar    1  UNL1       -0.2091
     17 C           5.5007   -0.9481   33.3978 C.ar    1  UNL1        0.1769
     18 C           5.0819   -2.3863   33.3197 C.ar    1  UNL1        0.1767
     19 F           3.8514   -2.8494   34.0418 F       1  UNL1       -0.2009
     20 C           5.8936   -3.3614   32.5196 C.ar    1  UNL1        0.0652
     21 C           7.1242   -2.8983   31.7975 C.ar    1  UNL1        0.1734
     22 F           7.9359   -3.8734   30.9974 F       1  UNL1       -0.2012
     23 H           9.0483   -0.0530   31.2048 H       1  UNL1        0.1438
     24 H           9.3062   -1.6369   30.6284 H       1  UNL1        0.1438
     25 N           1.8704    1.1434   29.9778 N.pl3   1  UNL1       -0.3022
     26 C           2.1995    1.8774   28.7117 C.3     1  UNL1        0.1081
     27 C           1.4479    0.8486   27.9200 C.3     1  UNL1        0.0908
     28 N           1.1491    0.6401   26.4649 N.3     1  UNL1       -0.3195
     29 C           1.1187    0.1147   29.1861 C.3     1  UNL1        0.1081
     30 H           0.5914   -0.2062   26.3502 H       1  UNL1        0.1189
     31 H           2.0235    0.5437   25.9486 H       1  UNL1        0.1189
     32 C           4.4746    1.4191   37.9083 C.2     1  UNL1        0.0774
     33 O           5.7654    2.0598   38.3246 O.co2   1  UNL1       -0.5444
     34 O           3.4825    0.9868   38.9470 O.co2   1  UNL1       -0.5444
@<TRIPOS>UNITY_ATOM_ATTR
33 1
charge -1
@<TRIPOS>BOND
     1    14    15    1
     2    15    16   ar
     3    16    17   ar
     4    17     1    1
     5     1     2   ar
     6     2     3   ar
     7     3    32    1
     8    32    33   ar
     9    32    34   ar
    10     3     4   ar
    11     4     5    2
    12     4     6   ar
    13     6     7   ar
    14     7     8   ar
    15     8     9    1
    16     8    10   ar
    17    10    25    1
    18    25    26    1
    19    26    27    1
    20    27    28    1
    21    27    29    1
    22    10    11   ar
    23    11    12    1
    24    11    13   ar
    25    17    18   ar
    26    18    19    1
    27    18    20   ar
    28    20    21   ar
    29    21    22    1
    30    21    15   ar
    31    13     1   ar
    32    13     6   ar
    33    29    25    1
    34    14    23    1
    35    14    24    1
    36    28    30    1
    37    28    31    1
@<TRIPOS>MOLECULE
*****
 34 37 0 0 0
SMALL
GASTEIGER

@<TRIPOS>ATOM
      1 N           3.8838   -0.3997   31.4771 N.ar    1  UNL1       -0.2874
      2 C           2.9591   -0.5254   30.3028 C.ar    1  UNL1        0.0858
      3 C           1.7116    0.3050   30.2383 C.ar    1  UNL1        0.0705
      4 C           1.3888    1.2611   31.3481 C.ar    1  UNL1        0.1996
      5 O           0.1412    2.0915   31.2835 O.2     1  UNL1       -0.2864
      6 C           2.3135    1.3868   32.5224 C.ar    1  UNL1        0.0583
      7 C           1.9907    2.3428   33.6323 C.ar    1  UNL1        0.0356
      8 C           2.9153    2.4685   34.8066 C.ar    1  UNL1        0.1543
      9 F           2.5925    3.4246   35.9164 F       1  UNL1       -0.2028
     10 C           4.1629    1.6381   34.8712 C.ar    1  UNL1        0.0878
     11 C           4.4857    0.6821   33.7613 C.ar    1  UNL1        0.0893
     12 CL          5.7332   -0.1483   33.8258 Cl      1  UNL1       -0.0794
     13 C           3.5610    0.5564   32.5869 C.ar    1  UNL1        0.0803
     14 N           6.2674   -4.8528   32.6970 N.pl3   1  UNL1       -0.3408
     15 C           6.3232   -3.4566   32.1516 C.ar    1  UNL1        0.1548
     16 N           5.0756   -2.6262   32.0871 N.ar    1  UNL1       -0.2091
     17 C           5.1313   -1.2301   31.5417 C.ar    1  UNL1        0.1769
     18 C           6.4346   -0.6642   31.0608 C.ar    1  UNL1        0.1767
     19 F           6.4903    0.7321   30.5153 F       1  UNL1       -0.2009
     20 C           7.6821   -1.4945   31.1253 C.ar    1  UNL1        0.0652
     21 C           7.6264   -2.8908   31.6707 C.ar    1  UNL1        0.1734
     22 F           8.8740   -3.7211   31.7353 F       1  UNL1       -0.2012
     23 H           5.4120   -5.2242   33.0127 H       1  UNL1        0.1438
     24 H           7.0862   -5.3978   32.7394 H       1  UNL1        0.1438
     25 N           5.0876    1.7638   36.0455 N.pl3   1  UNL1       -0.3022
     26 C           6.1224    2.7595   36.4789 C.3     1  UNL1        0.1081
     27 C           6.3953    1.9416   37.7063 C.3     1  UNL1        0.0908
     28 N           7.3200    2.0673   38.8807 N.3     1  UNL1       -0.3195
     29 C           5.3606    0.9459   37.2729 C.3     1  UNL1        0.1081
     30 H           7.1843    1.2736   39.5068 H       1  UNL1        0.1189
     31 H           7.1188    2.9332   39.3808 H       1  UNL1        0.1189
     32 C           0.7868    0.1793   29.0639 C.2     1  UNL1        0.0774
     33 O          -0.5096   -0.5616   29.2060 O.co2   1  UNL1       -0.5444
     34 O           1.1586    0.7946   27.7474 O.co2   1  UNL1       -0.5444
@<TRIPOS>UNITY_ATOM_ATTR
33 1
charge -1
@<TRIPOS>BOND
     1    14    15    1
     2    15    16   ar
     3    16    17   ar
     4    17     1    1
     5     1     2   ar
     6     2     3   ar
     7     3    32    1
     8    32    33   ar
     9    32    34   ar
    10     3     4   ar
    11     4     5    2
    12     4     6   ar
    13     6     7   ar
    14     7     8   ar
    15     8     9    1
    16     8    10   ar
    17    10    25    1
    18    25    26    1
    19    26    27    1
    20    27    28    1
    21    27    29    1
    22    10    11   ar
    23    11    12    1
    24    11    13   ar
    25    17    18   ar
    26    18    19    1
    27    18    20   ar
    28    20    21   ar
    29    21    22    1
    30    21    15   ar
    31    13     1   ar
    32    13     6   ar
    33    29    25    1
    34    14    23    1
    35    14    24    1
    36    28    30    1
    37    28    31    1
@<TRIPOS>MOLECULE
*****
 34 37 0 0 0
SMALL
GASTEIGER

@<TRIPOS>ATOM
      1 N          -9.1403  -17.2643   23.2741 N.ar    1  UNL1       -0.2874
      2 C         -10.6344  -17.1734   23.3700 C.ar    1  UNL1        0.0858
      3 C         -11.4956  -17.9622   22.4287 C.ar    1  UNL1        0.0705
      4 C         -10.8627  -18.8419   21.3916 C.ar    1  UNL1        0.1996
      5 O         -11.7240  -19.6308   20.4503 O.2     1  UNL1       -0.2864
      6 C          -9.3686  -18.9328   21.2958 C.ar    1  UNL1        0.0583
      7 C          -8.7357  -19.8125   20.2587 C.ar    1  UNL1        0.0356
      8 C          -7.2415  -19.9034   20.1628 C.ar    1  UNL1        0.1543
      9 F          -6.6086  -20.7831   19.1257 F       1  UNL1       -0.2028
     10 C          -6.3802  -19.1146   21.1041 C.ar    1  UNL1        0.0878
     11 C          -7.0131  -18.2349   22.1412 C.ar    1  UNL1        0.0893
     12 CL         -6.1519  -17.4461   23.0825 Cl      1  UNL1       -0.0794
     13 C          -8.5073  -18.1440   22.2370 C.ar    1  UNL1        0.0803
     14 N          -7.1569  -16.5375   28.0216 N.pl3   1  UNL1       -0.3408
     15 C          -7.2873  -16.1121   26.5892 C.ar    1  UNL1        0.1548
     16 N          -8.1486  -16.9009   25.6479 N.ar    1  UNL1       -0.2091
     17 C          -8.2789  -16.4755   24.2154 C.ar    1  UNL1        0.1769
     18 C          -7.5480  -15.2612   23.7242 C.ar    1  UNL1        0.1767
     19 F          -7.6784  -14.8358   22.2916 F       1  UNL1       -0.2009
     20 C          -6.6867  -14.4724   24.6654 C.ar    1  UNL1        0.0652
     21 C          -6.5564  -14.8978   26.0979 C.ar    1  UNL1        0.1734
     22 F          -5.6951  -14.1090   27.0391 F       1  UNL1       -0.2012
     23 H          -7.6367  -17.3345   28.3440 H       1  UNL1        0.1438
     24 H          -6.5916  -16.0198   28.6394 H       1  UNL1        0.1438
     25 N          -4.8861  -19.2054   21.0083 N.pl3   1  UNL1       -0.3022
     26 C          -3.7832  -19.5774   21.9545 C.3     1  UNL1        0.1081
     27 C          -2.7730  -19.3340   20.8728 C.3     1  UNL1        0.0908
     28 N          -1.2787  -19.4248   20.7769 N.3     1  UNL1       -0.3195
     29 C          -3.8758  -18.9620   19.9265 C.3     1  UNL1        0.1081
     30 H          -0.9821  -19.1665   19.8358 H       1  UNL1        0.1189
     31 H          -0.9827  -20.3803   20.9764 H       1  UNL1        0.1189
     32 C         -12.9899  -17.8714   22.5245 C.2     1  UNL1        0.0774
     33 O         -13.8037  -17.5804   21.2986 O.co2   1  UNL1       -0.5444
     34 O         -13.6702  -18.0715   23.8463 O.co2   1  UNL1       -0.5444
@<TRIPOS>UNITY_ATOM_ATTR
33 1
charge -1
@<TRIPOS>BOND
     1    14    15    1
     2    15    16   ar
     3    16    17   ar
     4    17     1    1
     5     1     2   ar
     6     2     3   ar
     7     3    32    1
     8    32    33   ar
     9    32    34   ar
    10     3     4   ar
    11     4     5    2
    12     4     6   ar
    13     6     7   ar
    14     7     8   ar
    15     8     9    1
    16     8    10   ar
    17    10    25    1
    18    25    26    1
    19    26    27    1
    20    27    28    1
    21    27    29    1
    22    10    11   ar
    23    11    12    1
    24    11    13   ar
    25    17    18   ar
    26    18    19    1
    27    18    20   ar
    28    20    21   ar
    29    21    22    1
    30    21    15   ar
    31    13     1   ar
    32    13     6   ar
    33    29    25    1
    34    14    23    1
    35    14    24    1
    36    28    30    1
    37    28    31    1
@<TRIPOS>MOLECULE
*****
 34 37 0 0 0
SMALL
GASTEIGER

@<TRIPOS>ATOM
      1 N          -3.2621    3.7547   21.4555 N.ar    1  UNL1       -0.2874
      2 C          -4.3603    3.9436   20.4515 C.ar    1  UNL1        0.0858
      3 C          -5.7697    4.1655   20.9144 C.ar    1  UNL1        0.0705
      4 C          -6.0808    4.1984   22.3814 C.ar    1  UNL1        0.1996
      5 O          -7.4903    4.4203   22.8444 O.2     1  UNL1       -0.2864
      6 C          -4.9826    4.0095   23.3855 C.ar    1  UNL1        0.0583
      7 C          -5.2937    4.0424   24.8525 C.ar    1  UNL1        0.0356
      8 C          -4.1955    3.8534   25.8565 C.ar    1  UNL1        0.1543
      9 F          -4.5066    3.8863   27.3235 F       1  UNL1       -0.2028
     10 C          -2.7860    3.6315   25.3935 C.ar    1  UNL1        0.0878
     11 C          -2.4749    3.5986   23.9265 C.ar    1  UNL1        0.0893
     12 CL         -1.0655    3.3768   23.4636 Cl      1  UNL1       -0.0794
     13 C          -3.5732    3.7876   22.9225 C.ar    1  UNL1        0.0803
     14 N           0.5454    0.5259   20.0136 N.pl3   1  UNL1       -0.3408
     15 C           0.0511    1.9184   20.2716 C.ar    1  UNL1        0.1548
     16 N          -1.3583    2.1403   20.7345 N.ar    1  UNL1       -0.2091
     17 C          -1.8526    3.5328   20.9925 C.ar    1  UNL1        0.1769
     18 C          -0.9375    4.7035   20.7876 C.ar    1  UNL1        0.1767
     19 F          -1.4318    6.0961   21.0456 F       1  UNL1       -0.2009
     20 C           0.4719    4.4817   20.3247 C.ar    1  UNL1        0.0652
     21 C           0.9663    3.0891   20.0666 C.ar    1  UNL1        0.1734
     22 F           2.3757    2.8673   19.6037 F       1  UNL1       -0.2012
     23 H          -0.0553   -0.2424   20.1481 H       1  UNL1        0.1438
     24 H           1.4704    0.3803   19.7097 H       1  UNL1        0.1438
     25 N          -1.6878    3.4426   26.3976 N.pl3   1  UNL1       -0.3022
     26 C          -0.8347    4.3607   27.2218 C.3     1  UNL1        0.1081
     27 C          -0.1346    3.1754   27.8175 C.3     1  UNL1        0.0908
     28 N           0.9637    2.9863   28.8216 N.3     1  UNL1       -0.3195
     29 C          -0.9877    2.2573   26.9933 C.3     1  UNL1        0.1081
     30 H           1.1433    1.9900   28.9456 H       1  UNL1        0.1189
     31 H           0.6832    3.3948   29.7132 H       1  UNL1        0.1189
     32 C          -6.8680    4.3545   19.9104 C.2     1  UNL1        0.0774
     33 O          -7.0357    3.3730   18.7886 O.co2   1  UNL1       -0.5444
     34 O          -7.7986    5.5250   20.0282 O.co2   1  UNL1       -0.5444
@<TRIPOS>UNITY_ATOM_ATTR
33 1
charge -1
@<TRIPOS>BOND
     1    14    15    1
     2    15    16   ar
     3    16    17   ar
     4    17     1    1
     5     1     2   ar
     6     2     3   ar
     7     3    32    1
     8    32    33   ar
     9    32    34   ar
    10     3     4   ar
    11     4     5    2
    12     4     6   ar
    13     6     7   ar
    14     7     8   ar
    15     8     9    1
    16     8    10   ar
    17    10    25    1
    18    25    26    1
    19    26    27    1
    20    27    28    1
    21    27    29    1
    22    10    11   ar
    23    11    12    1
    24    11    13   ar
    25    17    18   ar
    26    18    19    1
    27    18    20   ar
    28    20    21   ar
    29    21    22    1
    30    21    15   ar
    31    13     1   ar
    32    13     6   ar
    33    29    25    1
    34    14    23    1
    35    14    24    1
    36    28    30    1
    37    28    31    1
@<TRIPOS>MOLECULE
*****
 34 37 0 0 0
SMALL
GASTEIGER

@<TRIPOS>ATOM
      1 N          -8.5670  -17.1599   23.8403 N.ar    1  UNL1       -0.2874
      2 C          -8.0148  -16.3078   24.9443 C.ar    1  UNL1        0.0858
      3 C          -6.5381  -16.0601   25.0333 C.ar    1  UNL1        0.0705
      4 C          -5.6137  -16.6645   24.0183 C.ar    1  UNL1        0.1996
      5 O          -4.1369  -16.4168   24.1074 O.2     1  UNL1       -0.2864
      6 C          -6.1660  -17.5167   22.9144 C.ar    1  UNL1        0.0583
      7 C          -5.2416  -18.1211   21.8994 C.ar    1  UNL1        0.0356
      8 C          -5.7939  -18.9732   20.7954 C.ar    1  UNL1        0.1543
      9 F          -4.8695  -19.5776   19.7805 F       1  UNL1       -0.2028
     10 C          -7.2706  -19.2210   20.7064 C.ar    1  UNL1        0.0878
     11 C          -8.1950  -18.6165   21.7214 C.ar    1  UNL1        0.0893
     12 CL         -9.6717  -18.8643   21.6324 Cl      1  UNL1       -0.0794
     13 C          -7.6426  -17.7644   22.8254 C.ar    1  UNL1        0.0803
     14 N         -13.2030  -16.0332   21.7814 N.pl3   1  UNL1       -0.3408
     15 C         -12.3618  -16.8443   22.7218 C.ar    1  UNL1        0.1548
     16 N         -10.8850  -16.5966   22.8109 N.ar    1  UNL1       -0.2091
     17 C         -10.0438  -17.4077   23.7513 C.ar    1  UNL1        0.1769
     18 C         -10.6793  -18.4666   24.6027 C.ar    1  UNL1        0.1767
     19 F          -9.8380  -19.2777   25.5431 F       1  UNL1       -0.2009
     20 C         -12.1560  -18.7144   24.5137 C.ar    1  UNL1        0.0652
     21 C         -12.9973  -17.9032   23.5732 C.ar    1  UNL1        0.1734
     22 F         -14.4739  -18.1510   23.4842 F       1  UNL1       -0.2012
     23 H         -12.7859  -15.3382   21.2226 H       1  UNL1        0.1438
     24 H         -14.1722  -16.1958   21.7230 H       1  UNL1        0.1438
     25 N          -7.8229  -20.0731   19.6024 N.pl3   1  UNL1       -0.3022
     26 C          -8.9535  -19.9416   18.6254 C.3     1  UNL1        0.1081
     27 C          -8.6040  -21.2782   18.0412 C.3     1  UNL1        0.0908
     28 N          -9.1563  -22.1305   16.9371 N.3     1  UNL1       -0.3195
     29 C          -7.4735  -21.4097   19.0182 C.3     1  UNL1        0.1081
     30 H          -8.6105  -22.9891   16.8650 H       1  UNL1        0.1189
     31 H          -9.1051  -21.6200   16.0555 H       1  UNL1        0.1189
     32 C          -5.9857  -15.2079   26.1373 C.2     1  UNL1        0.0774
     33 O          -6.5919  -15.2704   27.5079 O.co2   1  UNL1       -0.5444
     34 O          -4.8271  -14.2932   25.8706 O.co2   1  UNL1       -0.5444
@<TRIPOS>UNITY_ATOM_ATTR
33 1
charge -1
@<TRIPOS>BOND
     1    14    15    1
     2    15    16   ar
     3    16    17   ar
     4    17     1    1
     5     1     2   ar
     6     2     3   ar
     7     3    32    1
     8    32    33   ar
     9    32    34   ar
    10     3     4   ar
    11     4     5    2
    12     4     6   ar
    13     6     7   ar
    14     7     8   ar
    15     8     9    1
    16     8    10   ar
    17    10    25    1
    18    25    26    1
    19    26    27    1
    20    27    28    1
    21    27    29    1
    22    10    11   ar
    23    11    12    1
    24    11    13   ar
    25    17    18   ar
    26    18    19    1
    27    18    20   ar
    28    20    21   ar
    29    21    22    1
    30    21    15   ar
    31    13     1   ar
    32    13     6   ar
    33    29    25    1
    34    14    23    1
    35    14    24    1
    36    28    30    1
    37    28    31    1
@<TRIPOS>MOLECULE
*****
 34 37 0 0 0
SMALL
GASTEIGER

@<TRIPOS>ATOM
      1 N           3.0432   -0.4233   20.6930 N.ar    1  UNL1       -0.2874
      2 C           3.4831   -1.3324   19.5839 C.ar    1  UNL1        0.0858
      3 C           4.2606   -2.5762   19.8975 C.ar    1  UNL1        0.0705
      4 C           4.5983   -2.9109   21.3202 C.ar    1  UNL1        0.1996
      5 O           5.3759   -4.1548   21.6338 O.2     1  UNL1       -0.2864
      6 C           4.1584   -2.0018   22.4293 C.ar    1  UNL1        0.0583
      7 C           4.4960   -2.3366   23.8519 C.ar    1  UNL1        0.0356
      8 C           4.0562   -1.4275   24.9610 C.ar    1  UNL1        0.1543
      9 F           4.3938   -1.7622   26.3836 F       1  UNL1       -0.2028
     10 C           3.2786   -0.1836   24.6474 C.ar    1  UNL1        0.0878
     11 C           2.9409    0.1511   23.2248 C.ar    1  UNL1        0.0893
     12 CL          2.1634    1.3949   22.9112 Cl      1  UNL1       -0.0794
     13 C           3.3808   -0.7581   22.1157 C.ar    1  UNL1        0.0803
     14 N           2.9278    4.6514   19.5819 N.pl3   1  UNL1       -0.3408
     15 C           2.2079    3.3579   19.8239 C.ar    1  UNL1        0.1548
     16 N           2.9855    2.1140   20.1375 N.ar    1  UNL1       -0.2091
     17 C           2.2656    0.8205   20.3794 C.ar    1  UNL1        0.1769
     18 C           0.7681    0.7708   20.3079 C.ar    1  UNL1        0.1767
     19 F           0.0483   -0.5228   20.5499 F       1  UNL1       -0.2009
     20 C          -0.0095    2.0145   19.9943 C.ar    1  UNL1        0.0652
     21 C           0.7104    3.3081   19.7523 C.ar    1  UNL1        0.1734
     22 F          -0.0672    4.5519   19.4388 F       1  UNL1       -0.2012
     23 H           3.9106    4.6840   19.6289 H       1  UNL1        0.1438
     24 H           2.4174    5.4677   19.3761 H       1  UNL1        0.1438
     25 N           2.8387    0.7254   25.7565 N.pl3   1  UNL1       -0.3022
     26 C           3.4637    1.8657   26.5042 C.3     1  UNL1        0.1081
     27 C           2.2166    2.0110   27.3250 C.3     1  UNL1        0.0908
     28 N           1.7766    2.9201   28.4341 N.3     1  UNL1       -0.3195
     29 C           1.5916    0.8707   26.5773 C.3     1  UNL1        0.1081
     30 H           0.8282    2.6751   28.7186 H       1  UNL1        0.1189
     31 H           1.7950    3.8867   28.1089 H       1  UNL1        0.1189
     32 C           4.7006   -3.4853   18.7885 C.2     1  UNL1        0.0774
     33 O           4.2134   -4.9032   18.7431 O.co2   1  UNL1       -0.5444
     34 O           5.6277   -2.9765   17.7248 O.co2   1  UNL1       -0.5444
@<TRIPOS>UNITY_ATOM_ATTR
33 1
charge -1
@<TRIPOS>BOND
     1    14    15    1
     2    15    16   ar
     3    16    17   ar
     4    17     1    1
     5     1     2   ar
     6     2     3   ar
     7     3    32    1
     8    32    33   ar
     9    32    34   ar
    10     3     4   ar
    11     4     5    2
    12     4     6   ar
    13     6     7   ar
    14     7     8   ar
    15     8     9    1
    16     8    10   ar
    17    10    25    1
    18    25    26    1
    19    26    27    1
    20    27    28    1
    21    27    29    1
    22    10    11   ar
    23    11    12    1
    24    11    13   ar
    25    17    18   ar
    26    18    19    1
    27    18    20   ar
    28    20    21   ar
    29    21    22    1
    30    21    15   ar
    31    13     1   ar
    32    13     6   ar
    33    29    25    1
    34    14    23    1
    35    14    24    1
    36    28    30    1
    37    28    31    1
@<TRIPOS>MOLECULE
*****
 34 37 0 0 0
SMALL
GASTEIGER

@<TRIPOS>ATOM
      1 N          -6.7720  -19.2302   20.3964 N.ar    1  UNL1       -0.2874
      2 C          -7.2908  -20.0283   19.2371 C.ar    1  UNL1        0.0858
      3 C          -8.7685  -20.1426   19.0067 C.ar    1  UNL1        0.0705
      4 C          -9.7275  -19.4589   19.9355 C.ar    1  UNL1        0.1996
      5 O         -11.2054  -19.5732   19.7051 O.2     1  UNL1       -0.2864
      6 C          -9.2088  -18.6608   21.0948 C.ar    1  UNL1        0.0583
      7 C         -10.1678  -17.9770   22.0237 C.ar    1  UNL1        0.0356
      8 C          -9.6491  -17.1790   23.1829 C.ar    1  UNL1        0.1543
      9 F         -10.6081  -16.4952   24.1118 F       1  UNL1       -0.2028
     10 C          -8.1713  -17.0646   23.4134 C.ar    1  UNL1        0.0878
     11 C          -7.2122  -17.7484   22.4845 C.ar    1  UNL1        0.0893
     12 CL         -5.7345  -17.6341   22.7149 Cl      1  UNL1       -0.0794
     13 C          -7.7311  -18.5465   21.3252 C.ar    1  UNL1        0.0803
     14 N          -2.1383  -17.3197   19.0255 N.pl3   1  UNL1       -0.3408
     15 C          -2.9774  -18.1606   19.9414 C.ar    1  UNL1        0.1548
     16 N          -4.4552  -18.2750   19.7109 N.ar    1  UNL1       -0.2091
     17 C          -5.2942  -19.1159   20.6268 C.ar    1  UNL1        0.1769
     18 C          -4.6555  -19.8425   21.7732 C.ar    1  UNL1        0.1767
     19 F          -5.4946  -20.6834   22.6891 F       1  UNL1       -0.2009
     20 C          -3.1778  -19.7282   22.0037 C.ar    1  UNL1        0.0652
     21 C          -2.3387  -18.8872   21.0878 C.ar    1  UNL1        0.1734
     22 F          -0.8609  -18.7729   21.3183 F       1  UNL1       -0.2012
     23 H          -2.5575  -16.8429   18.2732 H       1  UNL1        0.1438
     24 H          -1.1684  -17.2447   19.1768 H       1  UNL1        0.1438
     25 N          -7.6525  -16.2665   24.5726 N.pl3   1  UNL1       -0.3022
     26 C          -6.6126  -15.1993   24.7450 C.3     1  UNL1        0.1081
     27 C          -6.9189  -15.1379   26.2121 C.3     1  UNL1        0.0908
     28 N          -6.4002  -14.3398   27.3715 N.3     1  UNL1       -0.3195
     29 C          -7.9588  -16.2051   26.0398 C.3     1  UNL1        0.1081
     30 H          -6.8929  -14.6148   28.2212 H       1  UNL1        0.1189
     31 H          -6.5531  -13.3467   27.1962 H       1  UNL1        0.1189
     32 C          -9.2873  -20.9407   17.8474 C.2     1  UNL1        0.0774
     33 O         -10.3904  -20.3912   16.9923 O.co2   1  UNL1       -0.5444
     34 O          -8.7031  -22.2884   17.5432 O.co2   1  UNL1       -0.5444
@<TRIPOS>UNITY_ATOM_ATTR
33 1
charge -1
@<TRIPOS>BOND
     1    14    15    1
     2    15    16   ar
     3    16    17   ar
     4    17     1    1
     5     1     2   ar
     6     2     3   ar
     7     3    32    1
     8    32    33   ar
     9    32    34   ar
    10     3     4   ar
    11     4     5    2
    12     4     6   ar
    13     6     7   ar
    14     7     8   ar
    15     8     9    1
    16     8    10   ar
    17    10    25    1
    18    25    26    1
    19    26    27    1
    20    27    28    1
    21    27    29    1
    22    10    11   ar
    23    11    12    1
    24    11    13   ar
    25    17    18   ar
    26    18    19    1
    27    18    20   ar
    28    20    21   ar
    29    21    22    1
    30    21    15   ar
    31    13     1   ar
    32    13     6   ar
    33    29    25    1
    34    14    23    1
    35    14    24    1
    36    28    30    1
    37    28    31    1
@<TRIPOS>MOLECULE
*****
 34 37 0 0 0
SMALL
GASTEIGER

@<TRIPOS>ATOM
      1 N          -5.2304  -17.2727   23.1067 N.ar    1  UNL1       -0.2874
      2 C          -4.9684  -16.4343   24.3226 C.ar    1  UNL1        0.0858
      3 C          -6.1164  -15.8846   25.1162 C.ar    1  UNL1        0.0705
      4 C          -7.5265  -16.1733   24.6939 C.ar    1  UNL1        0.1996
      5 O          -8.6746  -15.6236   25.4875 O.2     1  UNL1       -0.2864
      6 C          -7.7885  -17.0117   23.4780 C.ar    1  UNL1        0.0583
      7 C          -9.1986  -17.3004   23.0556 C.ar    1  UNL1        0.0356
      8 C          -9.4606  -18.1388   21.8398 C.ar    1  UNL1        0.1543
      9 F         -10.8707  -18.4275   21.4174 F       1  UNL1       -0.2028
     10 C          -8.3125  -18.6885   21.0461 C.ar    1  UNL1        0.0878
     11 C          -6.9024  -18.3998   21.4684 C.ar    1  UNL1        0.0893
     12 CL         -5.7544  -18.9495   20.6749 Cl      1  UNL1       -0.0794
     13 C          -6.6405  -17.5614   22.6844 C.ar    1  UNL1        0.0803
     14 N          -1.1825  -16.5214   19.9365 N.pl3   1  UNL1       -0.3408
     15 C          -2.0583  -17.4468   20.7280 C.ar    1  UNL1        0.1548
     16 N          -3.2064  -16.8970   21.5216 N.ar    1  UNL1       -0.2091
     17 C          -4.0823  -17.8224   22.3131 C.ar    1  UNL1        0.1769
     18 C          -3.8102  -19.2975   22.3110 C.ar    1  UNL1        0.1767
     19 F          -4.6861  -20.2229   23.1026 F       1  UNL1       -0.2009
     20 C          -2.6622  -19.8472   21.5174 C.ar    1  UNL1        0.0652
     21 C          -1.7862  -18.9219   20.7259 C.ar    1  UNL1        0.1734
     22 F          -0.6382  -19.4716   19.9323 F       1  UNL1       -0.2012
     23 H          -1.3611  -15.5532   19.9379 H       1  UNL1        0.1438
     24 H          -0.4290  -16.8822   19.4156 H       1  UNL1        0.1438
     25 N          -8.5745  -19.5269   19.8302 N.pl3   1  UNL1       -0.3022
     26 C          -7.8071  -20.5733   19.0779 C.3     1  UNL1        0.1081
     27 C          -8.9451  -20.7126   18.1107 C.3     1  UNL1        0.0908
     28 N          -9.2071  -21.5510   16.8947 N.3     1  UNL1       -0.3195
     29 C          -9.7125  -19.6661   18.8630 C.3     1  UNL1        0.1081
     30 H         -10.1303  -21.3297   16.5217 H       1  UNL1        0.1189
     31 H          -9.1705  -22.5383   17.1482 H       1  UNL1        0.1189
     32 C          -5.8544  -15.0462   26.3321 C.2     1  UNL1        0.0774
     33 O          -6.6600  -15.2611   27.5791 O.co2   1  UNL1       -0.5444
     34 O          -4.7869  -13.9929   26.3011 O.co2   1  UNL1       -0.5444
@<TRIPOS>UNITY_ATOM_ATTR
33 1
charge -1
@<TRIPOS>BOND
     1    14    15    1
     2    15    16   ar
     3    16    17   ar
     4    17     1    1
     5     1     2   ar
     6     2     3   ar
     7     3    32    1
     8    32    33   ar
     9    32    34   ar
    10     3     4   ar
    11     4     5    2
    12     4     6   ar
    13     6     7   ar
    14     7     8   ar
    15     8     9    1
    16     8    10   ar
    17    10    25    1
    18    25    26    1
    19    26    27    1
    20    27    28    1
    21    27    29    1
    22    10    11   ar
    23    11    12    1
    24    11    13   ar
    25    17    18   ar
    26    18    19    1
    27    18    20   ar
    28    20    21   ar
    29    21    22    1
    30    21    15   ar
    31    13     1   ar
    32    13     6   ar
    33    29    25    1
    34    14    23    1
    35    14    24    1
    36    28    30    1
    37    28    31    1
