@<TRIPOS>MOLECULE
*****
 36 38 0 0 0
SMALL
GASTEIGER

@<TRIPOS>ATOM
      1 N           1.2587    1.9342   25.3221 N.am    1  UNL1       -0.2663
      2 C           2.1613    3.0671   24.9325 C.2     1  UNL1        0.3126
      3 O           3.3059    3.4539   25.8215 O.2     1  UNL1       -0.2519
      4 N           1.9193    3.8133   23.6540 N.am    1  UNL1       -0.2261
      5 C           2.8218    4.9463   23.2644 C.3     1  UNL1        0.1231
      6 H           0.5075    1.6804   24.7386 H       1  UNL1        0.1565
      7 C           0.9271    0.7578   29.0978 C.ar    1  UNL1        0.1535
      8 C           1.9846   -0.3043   29.1577 C.ar    1  UNL1        0.0756
      9 C           2.8002   -0.6202   27.9391 C.ar    1  UNL1        0.1535
     10 C           2.5582    0.1260   26.6606 C.ar    1  UNL1        0.1060
     11 CL          3.3738   -0.1899   25.4420 Cl      1  UNL1       -0.0777
     12 C           1.5007    1.1880   26.6007 C.ar    1  UNL1        0.0788
     13 C           0.6851    1.5039   27.8193 C.ar    1  UNL1        0.1060
     14 CL         -0.3725    2.5660   27.7593 Cl      1  UNL1       -0.0777
     15 C           0.5990    2.0945   31.3013 C.3     1  UNL1        0.2525
     16 O           0.1115    1.0737   30.3164 O.3     1  UNL1       -0.4704
     17 O           3.8578   -1.6823   27.9991 O.3     1  UNL1       -0.4704
     18 C           5.1730   -1.3945   28.6604 C.3     1  UNL1        0.2525
     19 C           0.7747    3.4266   22.7650 C.ar    1  UNL1        0.1432
     20 C           0.8464    2.1657   21.9557 C.ar    1  UNL1        0.0691
     21 C          -0.2982    1.7789   21.0667 C.ar    1  UNL1        0.1367
     22 N          -1.5145    2.6530   20.9870 N.ar    1  UNL1       -0.2088
     23 C          -1.5863    3.9139   21.7963 C.ar    1  UNL1        0.2012
     24 N          -0.4417    4.3007   22.6853 N.ar    1  UNL1       -0.2085
     25 N          -0.2264    0.5180   20.2575 N.pl3   1  UNL1       -0.2978
     26 H          -1.0461    0.0055   20.0709 H       1  UNL1        0.1536
     27 C           1.0942    0.0378   19.7325 C.ar    1  UNL1        0.0491
     28 C           1.6389    0.5945   18.4506 C.ar    1  UNL1        0.0146
     29 C           2.9594    0.1144   17.9256 C.ar    1  UNL1        0.0010
     30 C           3.7352   -0.9225   18.6826 C.ar    1  UNL1       -0.0028
     31 C           3.1905   -1.4792   19.9645 C.ar    1  UNL1       -0.0049
     32 C           1.8700   -0.9991   20.4895 C.ar    1  UNL1        0.0117
     33 C           3.9664   -2.5161   20.7215 C.3     1  UNL1        0.0993
     34 N           4.5747   -3.6776   19.9931 N.3     1  UNL1       -0.2665
     35 C           3.6918   -4.6888   19.3236 C.3     1  UNL1        0.0899
     36 C           6.0660   -3.8281   19.9340 C.3     1  UNL1        0.0899
@<TRIPOS>BOND
     1    15    16    1
     2    16     7    1
     3     7     8   ar
     4     8     9   ar
     5     9    17    1
     6    17    18    1
     7     9    10   ar
     8    10    11    1
     9    10    12   ar
    10    12     1    1
    11     1     2   am
    12     2     3    2
    13     2     4   am
    14     4     5    1
    15     4    19    1
    16    19    20   ar
    17    20    21   ar
    18    21    25    1
    19    25    27    1
    20    27    28   ar
    21    28    29   ar
    22    29    30   ar
    23    30    31   ar
    24    31    33    1
    25    33    34    1
    26    34    35    1
    27    34    36    1
    28    31    32   ar
    29    21    22   ar
    30    22    23   ar
    31    23    24   ar
    32    12    13   ar
    33    13    14    1
    34    13     7   ar
    35    24    19   ar
    36    32    27   ar
    37     1     6    1
    38    25    26    1
@<TRIPOS>MOLECULE
*****
 36 38 0 0 0
SMALL
GASTEIGER

@<TRIPOS>ATOM
      1 N           7.0776   -4.3736   22.9713 N.am    1  UNL1       -0.2663
      2 C           8.2130   -3.6787   22.2800 C.2     1  UNL1        0.3126
      3 O           9.5333   -3.5253   22.9754 O.2     1  UNL1       -0.2519
      4 N           8.0282   -3.1372   20.8934 N.am    1  UNL1       -0.2261
      5 C           9.1637   -2.4422   20.2022 C.3     1  UNL1        0.1231
      6 H           6.2111   -4.4743   22.5149 H       1  UNL1        0.1565
      7 C           8.1009   -6.7915   25.9474 C.ar    1  UNL1        0.1535
      8 C           7.6320   -5.9983   27.1310 C.ar    1  UNL1        0.0756
      9 C           6.9783   -4.6636   26.9280 C.ar    1  UNL1        0.1535
     10 C           6.7935   -4.1220   25.5415 C.ar    1  UNL1        0.1060
     11 CL          6.1398   -2.7873   25.3386 Cl      1  UNL1       -0.0777
     12 C           7.2624   -4.9152   24.3579 C.ar    1  UNL1        0.0788
     13 C           7.9161   -6.2499   24.5608 C.ar    1  UNL1        0.1060
     14 CL          8.3850   -7.0431   23.3771 Cl      1  UNL1       -0.0777
     15 C           8.4316   -8.9423   27.3667 C.3     1  UNL1        0.2525
     16 O           8.7546   -8.1262   26.1503 O.3     1  UNL1       -0.4704
     17 O           6.5094   -3.8704   28.1117 O.3     1  UNL1       -0.4704
     18 C           6.5750   -4.4657   29.4870 C.3     1  UNL1        0.2525
     19 C           6.7080   -3.2906   20.1981 C.ar    1  UNL1        0.1432
     20 C           6.0505   -2.0998   19.5659 C.ar    1  UNL1        0.0691
     21 C           4.7302   -2.2533   18.8706 C.ar    1  UNL1        0.1367
     22 N           4.0676   -3.5974   18.8075 N.ar    1  UNL1       -0.2088
     23 C           4.7251   -4.7883   19.4397 C.ar    1  UNL1        0.2012
     24 N           6.0453   -4.6348   20.1350 N.ar    1  UNL1       -0.2085
     25 N           4.0727   -1.0625   18.2384 N.pl3   1  UNL1       -0.2978
     26 H           4.4415   -0.6785   17.4103 H       1  UNL1        0.1536
     27 C           2.8532   -0.4569   18.8679 C.ar    1  UNL1        0.0491
     28 C           2.2762   -1.0577   20.1153 C.ar    1  UNL1        0.0146
     29 C           1.0569   -0.4522   20.7448 C.ar    1  UNL1        0.0010
     30 C           0.4145    0.7543   20.1269 C.ar    1  UNL1       -0.0028
     31 C           0.9915    1.3551   18.8795 C.ar    1  UNL1       -0.0049
     32 C           2.2109    0.7495   18.2500 C.ar    1  UNL1        0.0117
     33 C           0.3490    2.5616   18.2616 C.3     1  UNL1        0.0993
     34 N          -0.1940    3.6527   19.1359 N.3     1  UNL1       -0.2665
     35 C          -1.6715    3.7587   19.3726 C.3     1  UNL1        0.0899
     36 C           0.7403    4.6378   19.7736 C.3     1  UNL1        0.0899
@<TRIPOS>BOND
     1    15    16    1
     2    16     7    1
     3     7     8   ar
     4     8     9   ar
     5     9    17    1
     6    17    18    1
     7     9    10   ar
     8    10    11    1
     9    10    12   ar
    10    12     1    1
    11     1     2   am
    12     2     3    2
    13     2     4   am
    14     4     5    1
    15     4    19    1
    16    19    20   ar
    17    20    21   ar
    18    21    25    1
    19    25    27    1
    20    27    28   ar
    21    28    29   ar
    22    29    30   ar
    23    30    31   ar
    24    31    33    1
    25    33    34    1
    26    34    35    1
    27    34    36    1
    28    31    32   ar
    29    21    22   ar
    30    22    23   ar
    31    23    24   ar
    32    12    13   ar
    33    13    14    1
    34    13     7   ar
    35    24    19   ar
    36    32    27   ar
    37     1     6    1
    38    25    26    1
@<TRIPOS>MOLECULE
*****
 36 38 0 0 0
SMALL
GASTEIGER

@<TRIPOS>ATOM
      1 N          -2.3591    3.1007   20.5663 N.am    1  UNL1       -0.2663
      2 C          -1.3507    4.1651   20.2501 C.2     1  UNL1        0.3126
      3 O          -1.7420    5.6117   20.3143 O.2     1  UNL1       -0.2519
      4 N           0.0491    3.7829   19.8696 N.am    1  UNL1       -0.2261
      5 C           1.0575    4.8473   19.5534 C.3     1  UNL1        0.1231
      6 H          -2.1023    2.1512   20.5241 H       1  UNL1        0.1565
      7 C          -5.5272    4.0194   22.7730 C.ar    1  UNL1        0.1535
      8 C          -6.5582    4.2472   21.7077 C.ar    1  UNL1        0.0756
      9 C          -6.1896    4.0928   20.2619 C.ar    1  UNL1        0.1535
     10 C          -4.7899    3.7107   19.8814 C.ar    1  UNL1        0.1060
     11 CL         -4.4213    3.5563   18.4356 Cl      1  UNL1       -0.0777
     12 C          -3.7589    3.4828   20.9467 C.ar    1  UNL1        0.0788
     13 C          -4.1275    3.6372   22.3925 C.ar    1  UNL1        0.1060
     14 CL         -3.0963    3.4094   23.4579 Cl      1  UNL1       -0.0777
     15 C          -6.9949    5.1138   24.6163 C.3     1  UNL1        0.2525
     16 O          -5.8958    4.1737   24.2188 O.3     1  UNL1       -0.4704
     17 O          -7.2208    4.3207   19.1965 O.3     1  UNL1       -0.4704
     18 C          -7.5610    5.7175   18.7686 C.3     1  UNL1        0.2525
     19 C           0.4403    2.3363   19.8054 C.ar    1  UNL1        0.1432
     20 C           1.2992    1.8409   18.6799 C.ar    1  UNL1        0.0691
     21 C           1.6905    0.3942   18.6157 C.ar    1  UNL1        0.1367
     22 N           1.2229   -0.5570   19.6770 N.ar    1  UNL1       -0.2088
     23 C           0.3640   -0.0616   20.8026 C.ar    1  UNL1        0.2012
     24 N          -0.0273    1.3850   20.8668 N.ar    1  UNL1       -0.2085
     25 N           2.5493   -0.1012   17.4901 N.pl3   1  UNL1       -0.2978
     26 H           2.2026   -0.0992   16.5687 H       1  UNL1        0.1536
     27 C           3.9364   -0.5998   17.7685 C.ar    1  UNL1        0.0491
     28 C           5.1243    0.1848   17.2957 C.ar    1  UNL1        0.0146
     29 C           6.5114   -0.3137   17.5740 C.ar    1  UNL1        0.0010
     30 C           6.7106   -1.5967   18.3251 C.ar    1  UNL1       -0.0028
     31 C           5.5227   -2.3812   18.7979 C.ar    1  UNL1       -0.0049
     32 C           4.1356   -1.8827   18.5196 C.ar    1  UNL1        0.0117
     33 C           5.7220   -3.6643   19.5490 C.3     1  UNL1        0.0993
     34 N           4.6036   -4.2340   20.3703 N.3     1  UNL1       -0.2665
     35 C           4.4805   -3.8751   21.8216 C.3     1  UNL1        0.0899
     36 C           3.6082   -5.1627   19.7404 C.3     1  UNL1        0.0899
@<TRIPOS>BOND
     1    15    16    1
     2    16     7    1
     3     7     8   ar
     4     8     9   ar
     5     9    17    1
     6    17    18    1
     7     9    10   ar
     8    10    11    1
     9    10    12   ar
    10    12     1    1
    11     1     2   am
    12     2     3    2
    13     2     4   am
    14     4     5    1
    15     4    19    1
    16    19    20   ar
    17    20    21   ar
    18    21    25    1
    19    25    27    1
    20    27    28   ar
    21    28    29   ar
    22    29    30   ar
    23    30    31   ar
    24    31    33    1
    25    33    34    1
    26    34    35    1
    27    34    36    1
    28    31    32   ar
    29    21    22   ar
    30    22    23   ar
    31    23    24   ar
    32    12    13   ar
    33    13    14    1
    34    13     7   ar
    35    24    19   ar
    36    32    27   ar
    37     1     6    1
    38    25    26    1
@<TRIPOS>MOLECULE
*****
 36 38 0 0 0
SMALL
GASTEIGER

@<TRIPOS>ATOM
      1 N           7.1063   -4.3817   22.9976 N.am    1  UNL1       -0.2663
      2 C           8.2371   -3.6232   22.3684 C.2     1  UNL1        0.3126
      3 O           9.5230   -3.4356   23.1176 O.2     1  UNL1       -0.2519
      4 N           8.0820   -3.0522   20.9900 N.am    1  UNL1       -0.2261
      5 C           9.2128   -2.2937   20.3608 C.3     1  UNL1        0.1231
      6 H           6.2624   -4.5048   22.5059 H       1  UNL1        0.1565
      7 C           6.9201   -4.7565   26.9441 C.ar    1  UNL1        0.1535
      8 C           7.5715   -6.0944   27.1328 C.ar    1  UNL1        0.0756
      9 C           8.0679   -6.8614   25.9432 C.ar    1  UNL1        0.1535
     10 C           7.9128   -6.2905   24.5648 C.ar    1  UNL1        0.1060
     11 CL          8.4092   -7.0575   23.3751 Cl      1  UNL1       -0.0777
     12 C           7.2614   -4.9526   24.3761 C.ar    1  UNL1        0.0788
     13 C           6.7651   -4.1856   25.5657 C.ar    1  UNL1        0.1060
     14 CL          6.1136   -2.8477   25.3770 Cl      1  UNL1       -0.0777
     15 C           6.6703   -4.5109   29.5184 C.3     1  UNL1        0.2525
     16 O           6.4237   -3.9895   28.1338 O.3     1  UNL1       -0.4704
     17 O           8.7193   -8.1994   26.1319 O.3     1  UNL1       -0.4704
     18 C           8.4658   -8.9872   27.3830 C.3     1  UNL1        0.2525
     19 C           6.7961   -3.2398   20.2408 C.ar    1  UNL1        0.1432
     20 C           6.1242   -2.0630   19.5977 C.ar    1  UNL1        0.0691
     21 C           4.8383   -2.2506   18.8486 C.ar    1  UNL1        0.1367
     22 N           4.2243   -3.6150   18.7424 N.ar    1  UNL1       -0.2088
     23 C           4.8963   -4.7920   19.3855 C.ar    1  UNL1        0.2012
     24 N           6.1822   -4.6043   20.1347 N.ar    1  UNL1       -0.2085
     25 N           4.1664   -1.0738   18.2055 N.pl3   1  UNL1       -0.2978
     26 H           4.5365   -0.6864   17.3795 H       1  UNL1        0.1536
     27 C           2.9306   -0.4871   18.8209 C.ar    1  UNL1        0.0491
     28 C           2.3507   -1.0947   20.0637 C.ar    1  UNL1        0.0146
     29 C           1.1150   -0.5081   20.6791 C.ar    1  UNL1        0.0010
     30 C           0.4591    0.6861   20.0518 C.ar    1  UNL1       -0.0028
     31 C           1.0390    1.2937   18.8090 C.ar    1  UNL1       -0.0049
     32 C           2.2748    0.7071   18.1936 C.ar    1  UNL1        0.0117
     33 C           0.3831    2.4880   18.1816 C.3     1  UNL1        0.0993
     34 N           0.6293    3.8584   18.7396 N.3     1  UNL1       -0.2665
     35 C           1.9026    4.5824   18.4159 C.3     1  UNL1        0.0899
     36 C          -0.3976    4.5048   19.6214 C.3     1  UNL1        0.0899
@<TRIPOS>BOND
     1    15    16    1
     2    16     7    1
     3     7     8   ar
     4     8     9   ar
     5     9    17    1
     6    17    18    1
     7     9    10   ar
     8    10    11    1
     9    10    12   ar
    10    12     1    1
    11     1     2   am
    12     2     3    2
    13     2     4   am
    14     4     5    1
    15     4    19    1
    16    19    20   ar
    17    20    21   ar
    18    21    25    1
    19    25    27    1
    20    27    28   ar
    21    28    29   ar
    22    29    30   ar
    23    30    31   ar
    24    31    33    1
    25    33    34    1
    26    34    35    1
    27    34    36    1
    28    31    32   ar
    29    21    22   ar
    30    22    23   ar
    31    23    24   ar
    32    12    13   ar
    33    13    14    1
    34    13     7   ar
    35    24    19   ar
    36    32    27   ar
    37     1     6    1
    38    25    26    1
@<TRIPOS>MOLECULE
*****
 36 38 0 0 0
SMALL
GASTEIGER

@<TRIPOS>ATOM
      1 N          -2.4404    3.1960   20.0005 N.am    1  UNL1       -0.2663
      2 C          -1.3779    4.2483   19.8839 C.2     1  UNL1        0.3126
      3 O          -1.7543    5.7001   19.9080 O.2     1  UNL1       -0.2519
      4 N           0.0611    3.8488   19.7433 N.am    1  UNL1       -0.2261
      5 C           1.1237    4.9011   19.6268 C.3     1  UNL1        0.1231
      6 H          -2.1934    2.2432   19.9846 H       1  UNL1        0.1565
      7 C          -6.1398    4.2823   19.0598 C.ar    1  UNL1        0.1535
      8 C          -6.7574    4.3945   20.4221 C.ar    1  UNL1        0.0756
      9 C          -5.9360    4.1072   21.6439 C.ar    1  UNL1        0.1535
     10 C          -4.4970    3.7077   21.5034 C.ar    1  UNL1        0.1060
     11 CL         -3.6756    3.4204   22.7252 Cl      1  UNL1       -0.0777
     12 C          -3.8795    3.5955   20.1411 C.ar    1  UNL1        0.0788
     13 C          -4.7009    3.8828   18.9193 C.ar    1  UNL1        0.1060
     14 CL         -4.0832    3.7707   17.5569 Cl      1  UNL1       -0.0777
     15 C          -7.0034    5.9581   17.2721 C.3     1  UNL1        0.2525
     16 O          -6.9612    4.5696   17.8380 O.3     1  UNL1       -0.4704
     17 O          -6.5536    4.2194   23.0063 O.3     1  UNL1       -0.4704
     18 C          -6.9913    5.5577   23.5234 C.3     1  UNL1        0.2525
     19 C           0.4375    2.3970   19.7193 C.ar    1  UNL1        0.1432
     20 C           1.2815    1.8594   18.6018 C.ar    1  UNL1        0.0691
     21 C           1.6578    0.4076   18.5778 C.ar    1  UNL1        0.1367
     22 N           1.1902   -0.5066   19.6711 N.ar    1  UNL1       -0.2088
     23 C           0.3462    0.0309   20.7886 C.ar    1  UNL1        0.2012
     24 N          -0.0301    1.4827   20.8127 N.ar    1  UNL1       -0.2085
     25 N           2.5018   -0.1299   17.4603 N.pl3   1  UNL1       -0.2978
     26 H           2.1631   -0.1140   16.5361 H       1  UNL1        0.1536
     27 C           3.8619   -0.6918   17.7511 C.ar    1  UNL1        0.0491
     28 C           5.0896    0.0570   17.3244 C.ar    1  UNL1        0.0146
     29 C           6.4497   -0.5048   17.6151 C.ar    1  UNL1        0.0010
     30 C           6.5821   -1.8154   18.3325 C.ar    1  UNL1       -0.0028
     31 C           5.3544   -2.5642   18.7592 C.ar    1  UNL1       -0.0049
     32 C           3.9943   -2.0024   18.4685 C.ar    1  UNL1        0.0117
     33 C           5.4868   -3.8749   19.4767 C.3     1  UNL1        0.0993
     34 N           5.7457   -3.8984   20.9539 N.3     1  UNL1       -0.2665
     35 C           7.1394   -4.1075   21.4680 C.3     1  UNL1        0.0899
     36 C           4.6110   -3.7130   21.9173 C.3     1  UNL1        0.0899
@<TRIPOS>BOND
     1    15    16    1
     2    16     7    1
     3     7     8   ar
     4     8     9   ar
     5     9    17    1
     6    17    18    1
     7     9    10   ar
     8    10    11    1
     9    10    12   ar
    10    12     1    1
    11     1     2   am
    12     2     3    2
    13     2     4   am
    14     4     5    1
    15     4    19    1
    16    19    20   ar
    17    20    21   ar
    18    21    25    1
    19    25    27    1
    20    27    28   ar
    21    28    29   ar
    22    29    30   ar
    23    30    31   ar
    24    31    33    1
    25    33    34    1
    26    34    35    1
    27    34    36    1
    28    31    32   ar
    29    21    22   ar
    30    22    23   ar
    31    23    24   ar
    32    12    13   ar
    33    13    14    1
    34    13     7   ar
    35    24    19   ar
    36    32    27   ar
    37     1     6    1
    38    25    26    1
@<TRIPOS>MOLECULE
*****
 36 38 0 0 0
SMALL
GASTEIGER

@<TRIPOS>ATOM
      1 N          -7.9479  -16.5514   24.0874 N.am    1  UNL1       -0.2663
      2 C          -7.9256  -15.6574   25.2917 C.2     1  UNL1        0.3126
      3 O          -9.1656  -14.9191   25.7008 O.2     1  UNL1       -0.2519
      4 N          -6.6632  -15.5017   26.0869 N.am    1  UNL1       -0.2261
      5 C          -6.6409  -14.6078   27.2911 C.3     1  UNL1        0.1231
      6 H          -7.1341  -17.0359   23.8189 H       1  UNL1        0.1565
      7 C         -10.6340  -16.1341   21.1959 C.ar    1  UNL1        0.1535
      8 C         -11.7349  -17.0184   21.7018 C.ar    1  UNL1        0.0756
      9 C         -11.5734  -17.7471   23.0030 C.ar    1  UNL1        0.1535
     10 C         -10.3112  -17.5914   23.7982 C.ar    1  UNL1        0.1060
     11 CL        -10.1497  -18.3201   25.0993 Cl      1  UNL1       -0.0777
     12 C          -9.2103  -16.7071   23.2922 C.ar    1  UNL1        0.0788
     13 C          -9.3717  -15.9784   21.9911 C.ar    1  UNL1        0.1060
     14 CL         -8.2708  -15.0940   21.4851 Cl      1  UNL1       -0.0777
     15 C         -12.0065  -15.6491   19.0439 C.3     1  UNL1        0.2525
     16 O         -10.7955  -15.4054   19.8947 O.3     1  UNL1       -0.4704
     17 O         -12.6744  -18.6314   23.5089 O.3     1  UNL1       -0.4704
     18 C         -13.8837  -18.0266   24.1582 C.3     1  UNL1        0.2525
     19 C          -5.4232  -16.2400   25.6777 C.ar    1  UNL1        0.1432
     20 C          -4.9067  -16.1187   24.2747 C.ar    1  UNL1        0.0691
     21 C          -3.6667  -16.8570   23.8656 C.ar    1  UNL1        0.1367
     22 N          -2.9433  -17.7166   24.8594 N.ar    1  UNL1       -0.2088
     23 C          -3.4599  -17.8379   26.2625 C.ar    1  UNL1        0.2012
     24 N          -4.6998  -17.0996   26.6716 N.ar    1  UNL1       -0.2085
     25 N          -3.1501  -16.7357   22.4626 N.pl3   1  UNL1       -0.2978
     26 H          -2.6535  -15.9310   22.1888 H       1  UNL1        0.1536
     27 C          -3.3903  -17.8405   21.4768 C.ar    1  UNL1        0.0491
     28 C          -2.4067  -18.0861   20.3712 C.ar    1  UNL1        0.0146
     29 C          -2.6468  -19.1908   19.3854 C.ar    1  UNL1        0.0010
     30 C          -3.8705  -20.0500   19.5052 C.ar    1  UNL1       -0.0028
     31 C          -4.8541  -19.8044   20.6107 C.ar    1  UNL1       -0.0049
     32 C          -4.6140  -18.6997   21.5965 C.ar    1  UNL1        0.0117
     33 C          -6.0778  -20.6636   20.7304 C.3     1  UNL1        0.0993
     34 N          -7.4006  -20.0420   21.0675 N.3     1  UNL1       -0.2665
     35 C          -8.2441  -19.4391   19.9834 C.3     1  UNL1        0.0899
     36 C          -7.8801  -20.0232   22.4887 C.3     1  UNL1        0.0899
@<TRIPOS>BOND
     1    15    16    1
     2    16     7    1
     3     7     8   ar
     4     8     9   ar
     5     9    17    1
     6    17    18    1
     7     9    10   ar
     8    10    11    1
     9    10    12   ar
    10    12     1    1
    11     1     2   am
    12     2     3    2
    13     2     4   am
    14     4     5    1
    15     4    19    1
    16    19    20   ar
    17    20    21   ar
    18    21    25    1
    19    25    27    1
    20    27    28   ar
    21    28    29   ar
    22    29    30   ar
    23    30    31   ar
    24    31    33    1
    25    33    34    1
    26    34    35    1
    27    34    36    1
    28    31    32   ar
    29    21    22   ar
    30    22    23   ar
    31    23    24   ar
    32    12    13   ar
    33    13    14    1
    34    13     7   ar
    35    24    19   ar
    36    32    27   ar
    37     1     6    1
    38    25    26    1
@<TRIPOS>MOLECULE
*****
 36 38 0 0 0
SMALL
GASTEIGER

@<TRIPOS>ATOM
      1 N          -7.9477  -16.5501   24.0778 N.am    1  UNL1       -0.2663
      2 C          -7.9276  -15.6606   25.2854 C.2     1  UNL1        0.3126
      3 O          -9.1695  -14.9273   25.6976 O.2     1  UNL1       -0.2519
      4 N          -6.6655  -15.5044   26.0809 N.am    1  UNL1       -0.2261
      5 C          -6.6454  -14.6150   27.2886 C.3     1  UNL1        0.1231
      6 H          -7.1326  -17.0313   23.8072 H       1  UNL1        0.1565
      7 C         -11.5718  -17.7486   22.9916 C.ar    1  UNL1        0.1535
      8 C         -11.7339  -17.0187   21.6913 C.ar    1  UNL1        0.0756
      9 C         -10.6340  -16.1325   21.1865 C.ar    1  UNL1        0.1535
     10 C          -9.3719  -15.9763   21.9819 C.ar    1  UNL1        0.1060
     11 CL         -8.2720  -15.0901   21.4771 Cl      1  UNL1       -0.0777
     12 C          -9.2098  -16.7062   23.2822 C.ar    1  UNL1        0.0788
     13 C         -10.3097  -17.5924   23.7871 C.ar    1  UNL1        0.1060
     14 CL        -10.1476  -18.3224   25.0875 Cl      1  UNL1       -0.0777
     15 C         -13.8728  -18.0333   24.1638 C.3     1  UNL1        0.2525
     16 O         -12.6717  -18.6348   23.4965 O.3     1  UNL1       -0.4704
     17 O         -10.7962  -15.4025   19.8861 O.3     1  UNL1       -0.4704
     18 C         -12.0057  -15.6485   19.0337 C.3     1  UNL1        0.2525
     19 C          -5.4235  -16.2377   25.6687 C.ar    1  UNL1        0.1432
     20 C          -4.9054  -16.1066   24.2672 C.ar    1  UNL1        0.0691
     21 C          -3.6635  -16.8399   23.8550 C.ar    1  UNL1        0.1367
     22 N          -2.9397  -17.7043   24.8444 N.ar    1  UNL1       -0.2088
     23 C          -3.4578  -17.8355   26.2460 C.ar    1  UNL1        0.2012
     24 N          -4.6997  -17.1022   26.6582 N.ar    1  UNL1       -0.2085
     25 N          -3.1454  -16.7087   22.4535 N.pl3   1  UNL1       -0.2978
     26 H          -2.6517  -15.9004   22.1849 H       1  UNL1        0.1536
     27 C          -3.3794  -17.8091   21.4613 C.ar    1  UNL1        0.0491
     28 C          -2.3957  -18.0414   20.3530 C.ar    1  UNL1        0.0146
     29 C          -2.6297  -19.1417   19.3608 C.ar    1  UNL1        0.0010
     30 C          -3.8475  -20.0097   19.4769 C.ar    1  UNL1       -0.0028
     31 C          -4.8313  -19.7774   20.5851 C.ar    1  UNL1       -0.0049
     32 C          -4.5972  -18.6771   21.5773 C.ar    1  UNL1        0.0117
     33 C          -6.0491  -20.6454   20.7011 C.3     1  UNL1        0.0993
     34 N          -7.3757  -20.0346   21.0433 N.3     1  UNL1       -0.2665
     35 C          -7.8456  -20.0112   22.4677 C.3     1  UNL1        0.0899
     36 C          -8.2324  -19.4472   19.9612 C.3     1  UNL1        0.0899
@<TRIPOS>BOND
     1    15    16    1
     2    16     7    1
     3     7     8   ar
     4     8     9   ar
     5     9    17    1
     6    17    18    1
     7     9    10   ar
     8    10    11    1
     9    10    12   ar
    10    12     1    1
    11     1     2   am
    12     2     3    2
    13     2     4   am
    14     4     5    1
    15     4    19    1
    16    19    20   ar
    17    20    21   ar
    18    21    25    1
    19    25    27    1
    20    27    28   ar
    21    28    29   ar
    22    29    30   ar
    23    30    31   ar
    24    31    33    1
    25    33    34    1
    26    34    35    1
    27    34    36    1
    28    31    32   ar
    29    21    22   ar
    30    22    23   ar
    31    23    24   ar
    32    12    13   ar
    33    13    14    1
    34    13     7   ar
    35    24    19   ar
    36    32    27   ar
    37     1     6    1
    38    25    26    1
@<TRIPOS>MOLECULE
*****
 36 38 0 0 0
SMALL
GASTEIGER

@<TRIPOS>ATOM
      1 N           5.4337   -2.4222   25.0612 N.am    1  UNL1       -0.2663
      2 C           6.4779   -1.4906   25.6012 C.2     1  UNL1        0.3126
      3 O           6.7302   -0.1748   24.9266 O.2     1  UNL1       -0.2519
      4 N           7.2698   -1.8747   26.8159 N.am    1  UNL1       -0.2261
      5 C           8.3140   -0.9430   27.3559 C.3     1  UNL1        0.1231
      6 H           5.2681   -3.2858   25.5040 H       1  UNL1        0.1565
      7 C           2.7725   -0.6154   22.7366 C.ar    1  UNL1        0.1535
      8 C           3.0578   -1.2699   21.4174 C.ar    1  UNL1        0.0756
      9 C           4.1350   -2.3085   21.3128 C.ar    1  UNL1        0.1535
     10 C           4.9270   -2.6926   22.5274 C.ar    1  UNL1        0.1060
     11 CL          6.0042   -3.7312   22.4228 Cl      1  UNL1       -0.0777
     12 C           4.6417   -2.0381   23.8466 C.ar    1  UNL1        0.0788
     13 C           3.5645   -0.9995   23.9512 C.ar    1  UNL1        0.1060
     14 CL          3.2792   -0.3451   25.2704 Cl      1  UNL1       -0.0777
     15 C           0.9322    0.8380   21.6183 C.3     1  UNL1        0.2525
     16 O           1.6953    0.4232   22.8412 O.3     1  UNL1       -0.4704
     17 O           4.4202   -2.9630   19.9936 O.3     1  UNL1       -0.4704
     18 C           3.6344   -4.1680   19.5687 C.3     1  UNL1        0.2525
     19 C           7.0175   -3.1904   27.4905 C.ar    1  UNL1        0.1432
     20 C           6.9695   -3.2686   28.9877 C.ar    1  UNL1        0.0691
     21 C           6.7172   -4.5844   29.6623 C.ar    1  UNL1        0.1367
     22 N           6.5129   -5.8220   28.8397 N.ar    1  UNL1       -0.2088
     23 C           6.5610   -5.7438   27.3425 C.ar    1  UNL1        0.2012
     24 N           6.8133   -4.4281   26.6679 N.ar    1  UNL1       -0.2085
     25 N           6.6692   -4.6626   31.1594 N.pl3   1  UNL1       -0.2978
     26 H           6.6161   -5.5388   31.6051 H       1  UNL1        0.1536
     27 C           6.7020   -3.4057   31.9776 C.ar    1  UNL1        0.0491
     28 C           8.0117   -2.7363   32.2717 C.ar    1  UNL1        0.0146
     29 C           8.0446   -1.4795   33.0898 C.ar    1  UNL1        0.0010
     30 C           6.7677   -0.8921   33.6137 C.ar    1  UNL1       -0.0028
     31 C           5.4580   -1.5615   33.3196 C.ar    1  UNL1       -0.0049
     32 C           5.4251   -2.8183   32.5015 C.ar    1  UNL1        0.0117
     33 C           4.1811   -0.9741   33.8436 C.3     1  UNL1        0.0993
     34 N           3.5445    0.1865   33.1382 N.3     1  UNL1       -0.2665
     35 C           3.3399    1.4840   33.8627 C.3     1  UNL1        0.0899
     36 C           3.1124    0.0497   31.7083 C.3     1  UNL1        0.0899
@<TRIPOS>BOND
     1    15    16    1
     2    16     7    1
     3     7     8   ar
     4     8     9   ar
     5     9    17    1
     6    17    18    1
     7     9    10   ar
     8    10    11    1
     9    10    12   ar
    10    12     1    1
    11     1     2   am
    12     2     3    2
    13     2     4   am
    14     4     5    1
    15     4    19    1
    16    19    20   ar
    17    20    21   ar
    18    21    25    1
    19    25    27    1
    20    27    28   ar
    21    28    29   ar
    22    29    30   ar
    23    30    31   ar
    24    31    33    1
    25    33    34    1
    26    34    35    1
    27    34    36    1
    28    31    32   ar
    29    21    22   ar
    30    22    23   ar
    31    23    24   ar
    32    12    13   ar
    33    13    14    1
    34    13     7   ar
    35    24    19   ar
    36    32    27   ar
    37     1     6    1
    38    25    26    1
@<TRIPOS>MOLECULE
*****
 36 38 0 0 0
SMALL
GASTEIGER

@<TRIPOS>ATOM
      1 N           1.3064    1.8940   24.9835 N.am    1  UNL1       -0.2663
      2 C           2.1392    3.1027   24.6744 C.2     1  UNL1        0.3126
      3 O           3.1782    3.5674   25.6514 O.2     1  UNL1       -0.2519
      4 N           1.9331    3.8466   23.3882 N.am    1  UNL1       -0.2261
      5 C           2.7659    5.0552   23.0791 C.3     1  UNL1        0.1231
      6 H           0.6245    1.5890   24.3422 H       1  UNL1        0.1565
      7 C           2.9451   -0.4361   27.7467 C.ar    1  UNL1        0.1535
      8 C           1.9248   -0.3377   28.8418 C.ar    1  UNL1        0.0756
      9 C           0.6984    0.5046   28.6508 C.ar    1  UNL1        0.1535
     10 C           0.4923    1.2485   27.3647 C.ar    1  UNL1        0.1060
     11 CL         -0.7341    2.0908   27.1738 Cl      1  UNL1       -0.0777
     12 C           1.5125    1.1501   26.2696 C.ar    1  UNL1        0.0788
     13 C           2.7389    0.3078   26.4606 C.ar    1  UNL1        0.1060
     14 CL          3.7592    0.2094   25.3654 Cl      1  UNL1       -0.0777
     15 C           5.1434   -0.9507   29.0321 C.3     1  UNL1        0.2525
     16 O           4.1715   -1.2784   27.9377 O.3     1  UNL1       -0.4704
     17 O          -0.3219    0.6029   29.7460 O.3     1  UNL1       -0.4704
     18 C          -1.6999    0.0475   29.5394 C.3     1  UNL1        0.2525
     19 C           0.8942    3.3818   22.4112 C.ar    1  UNL1        0.1432
     20 C           1.0197    2.0325   21.7681 C.ar    1  UNL1        0.0691
     21 C          -0.0192    1.5677   20.7911 C.ar    1  UNL1        0.1367
     22 N          -1.1837    2.4522   20.4571 N.ar    1  UNL1       -0.2088
     23 C          -1.3093    3.8016   21.1002 C.ar    1  UNL1        0.2012
     24 N          -0.2703    4.2664   22.0772 N.ar    1  UNL1       -0.2085
     25 N           0.1064    0.2184   20.1480 N.pl3   1  UNL1       -0.2978
     26 H          -0.6723   -0.3828   20.1092 H       1  UNL1        0.1536
     27 C           1.4183   -0.2150   19.5640 C.ar    1  UNL1        0.0491
     28 C           1.9303    0.4291   18.3098 C.ar    1  UNL1        0.0146
     29 C           3.2422   -0.0042   17.7258 C.ar    1  UNL1        0.0010
     30 C           4.0421   -1.0816   18.3960 C.ar    1  UNL1       -0.0028
     31 C           3.5302   -1.7257   19.6503 C.ar    1  UNL1       -0.0049
     32 C           2.2183   -1.2924   20.2342 C.ar    1  UNL1        0.0117
     33 C           4.3302   -2.8032   20.3205 C.3     1  UNL1        0.0993
     34 N           5.0874   -2.5018   21.5798 N.3     1  UNL1       -0.2665
     35 C           6.4671   -1.9182   21.5039 C.3     1  UNL1        0.0899
     36 C           4.4648   -2.7840   22.9150 C.3     1  UNL1        0.0899
@<TRIPOS>BOND
     1    15    16    1
     2    16     7    1
     3     7     8   ar
     4     8     9   ar
     5     9    17    1
     6    17    18    1
     7     9    10   ar
     8    10    11    1
     9    10    12   ar
    10    12     1    1
    11     1     2   am
    12     2     3    2
    13     2     4   am
    14     4     5    1
    15     4    19    1
    16    19    20   ar
    17    20    21   ar
    18    21    25    1
    19    25    27    1
    20    27    28   ar
    21    28    29   ar
    22    29    30   ar
    23    30    31   ar
    24    31    33    1
    25    33    34    1
    26    34    35    1
    27    34    36    1
    28    31    32   ar
    29    21    22   ar
    30    22    23   ar
    31    23    24   ar
    32    12    13   ar
    33    13    14    1
    34    13     7   ar
    35    24    19   ar
    36    32    27   ar
    37     1     6    1
    38    25    26    1
