@<TRIPOS>MOLECULE
*****
 36 40 0 0 0
SMALL
GASTEIGER

@<TRIPOS>ATOM
      1 C           6.4612   -3.9155   21.6848 C.2     1  UNL1        0.1041
      2 N           7.4381   -4.6523   20.8171 N.2     1  UNL1       -0.1483
      3 N           8.3671   -5.4179   21.7120 N.2     1  UNL1       -0.1520
      4 C           7.9644   -5.1543   23.1326 C.2     1  UNL1        0.0864
      5 C           8.5181   -5.6398   24.4394 C.3     1  UNL1        0.0749
      6 C           7.8939   -5.1967   25.7293 C.2     1  UNL1       -0.0051
      7 C           6.7159   -4.2682   25.7125 C.2     1  UNL1        0.0465
      8 C           6.1622   -3.7827   24.4058 C.2     1  UNL1        0.0171
      9 C           6.7864   -4.2257   23.1158 C.2     1  UNL1        0.0362
     10 C           4.1344   -1.7933   19.2697 C.ar    1  UNL1        0.1217
     11 C           3.1380   -1.2435   20.2469 C.ar    1  UNL1        0.0199
     12 C           3.2494   -1.5844   21.7034 C.ar    1  UNL1        0.0014
     13 C           4.3571   -2.4751   22.1826 C.ar    1  UNL1        0.0016
     14 C           5.3534   -3.0248   21.2055 C.ar    1  UNL1        0.0208
     15 C           5.2421   -2.6839   19.7489 C.ar    1  UNL1        0.0214
     16 N           3.9119   -1.1117   16.3567 N.3     1  UNL1       -0.2035
     17 S           4.0231   -1.4524   17.8132 S.O2    1  UNL1        0.0572
     18 O           5.1203   -2.4267   17.5014 O.2     1  UNL1       -0.1532
     19 O           2.9260   -0.4782   18.1249 O.2     1  UNL1       -0.1532
     20 H           3.1833   -0.4098   16.2264 H       1  UNL1        0.1442
     21 H           3.6738   -1.9510   15.8283 H       1  UNL1        0.1442
     22 N           6.0917   -3.8252   27.0026 N.am    1  UNL1       -0.2828
     23 C           6.4138   -2.4730   27.5662 C.2     1  UNL1        0.2449
     24 O           7.3602   -1.5638   26.8398 O.2     1  UNL1       -0.2730
     25 H           5.4705   -4.4219   27.4793 H       1  UNL1        0.1549
     26 C           5.7896   -2.0300   28.8562 C.3     1  UNL1        0.1584
     27 C           4.4864   -1.2874   28.8427 C.ar    1  UNL1        0.0080
     28 C           3.6727   -0.9566   27.6268 C.ar    1  UNL1        0.0050
     29 C           2.4515   -0.2101   28.0753 C.ar    1  UNL1        0.0352
     30 S           2.5104   -0.0794   29.5685 S.2     1  UNL1       -0.0862
     31 C           3.7680   -0.7453   30.0427 C.ar    1  UNL1        0.0330
     32 N           6.4686   -2.3295   30.1598 N.3     1  UNL1       -0.2631
     33 C           7.2002   -1.3423   31.0201 C.3     1  UNL1        0.0728
     34 C           7.7191   -2.0716   32.2239 C.3     1  UNL1        0.0188
     35 C           7.3081   -3.5095   32.1075 C.3     1  UNL1        0.0188
     36 C           6.5353   -3.6689   30.8318 C.3     1  UNL1        0.0728
@<TRIPOS>BOND
     1    16    17    1
     2    17    18    2
     3    17    19    2
     4    17    10    1
     5    10    11   ar
     6    11    12   ar
     7    12    13   ar
     8    13    14   ar
     9    14     1    1
    10     1     2    2
    11     2     3    1
    12     3     4    2
    13     4     5    1
    14     5     6    1
    15     6     7    2
    16     7    22    1
    17    22    23   am
    18    23    24    2
    19    23    26    1
    20    26    27    1
    21    27    28   ar
    22    28    29   ar
    23    29    30   ar
    24    30    31   ar
    25    26    32    1
    26    32    33    1
    27    33    34    1
    28    34    35    1
    29    35    36    1
    30     7     8    1
    31     8     9    2
    32    14    15   ar
    33    15    10   ar
    34     9     1    1
    35     9     4    1
    36    31    27   ar
    37    36    32    1
    38    16    20    1
    39    16    21    1
    40    22    25    1
@<TRIPOS>MOLECULE
*****
 36 40 0 0 0
SMALL
GASTEIGER

@<TRIPOS>ATOM
      1 C           8.0827   -5.0386   22.2630 C.2     1  UNL1        0.1041
      2 N           8.7503   -6.2781   21.7454 N.2     1  UNL1       -0.1483
      3 N           8.7442   -7.3005   22.8429 N.2     1  UNL1       -0.1520
      4 C           8.0729   -6.6929   24.0388 C.2     1  UNL1        0.0864
      5 C           7.7811   -7.2320   25.4078 C.3     1  UNL1        0.0749
      6 C           7.0804   -6.3730   26.4184 C.2     1  UNL1       -0.0051
      7 C           6.6716   -4.9750   26.0599 C.2     1  UNL1        0.0465
      8 C           6.9634   -4.4360   24.6910 C.2     1  UNL1        0.0171
      9 C           7.6641   -5.2949   23.6804 C.2     1  UNL1        0.0362
     10 C           6.6664   -2.4505   19.6084 C.ar    1  UNL1        0.1217
     11 C           7.4473   -1.2210   19.9666 C.ar    1  UNL1        0.0199
     12 C           8.4401   -1.2640   21.0903 C.ar    1  UNL1        0.0014
     13 C           8.6519   -2.5365   21.8557 C.ar    1  UNL1        0.0016
     14 C           7.8709   -3.7660   21.4976 C.ar    1  UNL1        0.0208
     15 C           6.8781   -3.7231   20.3738 C.ar    1  UNL1        0.0214
     16 N           4.6809   -2.3647   17.3611 N.3     1  UNL1       -0.2035
     17 S           5.6736   -2.4076   18.4848 S.O2    1  UNL1        0.0572
     18 O           6.7953   -2.2629   17.4994 O.2     1  UNL1       -0.1532
     19 O           4.5520   -2.5524   19.4702 O.2     1  UNL1       -0.1532
     20 H           3.7368   -2.4478   17.7381 H       1  UNL1        0.1442
     21 H           4.8600   -3.1372   16.7196 H       1  UNL1        0.1442
     22 N           5.9709   -4.1161   27.0706 N.am    1  UNL1       -0.2828
     23 C           6.7302   -3.0512   27.8051 C.2     1  UNL1        0.2449
     24 O           8.1901   -2.8452   27.5290 O.2     1  UNL1       -0.2730
     25 H           5.0127   -4.2513   27.2518 H       1  UNL1        0.1549
     26 C           6.0295   -2.1923   28.8158 C.3     1  UNL1        0.1584
     27 C           5.2566   -0.9870   28.3688 C.ar    1  UNL1        0.0080
     28 C           5.8374    0.3461   28.0008 C.ar    1  UNL1        0.0050
     29 C           4.7070    1.2539   27.6158 C.ar    1  UNL1        0.0352
     30 S           3.4275    0.4817   27.7459 S.2     1  UNL1       -0.0862
     31 C           3.7672   -0.9032   28.2112 C.ar    1  UNL1        0.0330
     32 N           6.1017   -2.5387   30.2734 N.3     1  UNL1       -0.2631
     33 C           6.6011   -3.8309   30.8489 C.3     1  UNL1        0.0728
     34 C           6.4953   -3.7446   32.3427 C.3     1  UNL1        0.0188
     35 C           5.9305   -2.3992   32.6904 C.3     1  UNL1        0.0188
     36 C           5.6873   -1.6539   31.4116 C.3     1  UNL1        0.0728
@<TRIPOS>BOND
     1    16    17    1
     2    17    18    2
     3    17    19    2
     4    17    10    1
     5    10    11   ar
     6    11    12   ar
     7    12    13   ar
     8    13    14   ar
     9    14     1    1
    10     1     2    2
    11     2     3    1
    12     3     4    2
    13     4     5    1
    14     5     6    1
    15     6     7    2
    16     7    22    1
    17    22    23   am
    18    23    24    2
    19    23    26    1
    20    26    27    1
    21    27    28   ar
    22    28    29   ar
    23    29    30   ar
    24    30    31   ar
    25    26    32    1
    26    32    33    1
    27    33    34    1
    28    34    35    1
    29    35    36    1
    30     7     8    1
    31     8     9    2
    32    14    15   ar
    33    15    10   ar
    34     9     1    1
    35     9     4    1
    36    31    27   ar
    37    36    32    1
    38    16    20    1
    39    16    21    1
    40    22    25    1
@<TRIPOS>MOLECULE
*****
 36 40 0 0 0
SMALL
GASTEIGER

@<TRIPOS>ATOM
      1 C           6.5385   -3.9119   21.7145 C.2     1  UNL1        0.1041
      2 N           7.5035   -4.6645   20.8471 N.2     1  UNL1       -0.1483
      3 N           8.4071   -5.4604   21.7414 N.2     1  UNL1       -0.1520
      4 C           8.0006   -5.1997   23.1616 C.2     1  UNL1        0.0864
      5 C           8.5329   -5.7102   24.4678 C.3     1  UNL1        0.0749
      6 C           7.9103   -5.2636   25.7573 C.2     1  UNL1       -0.0051
      7 C           6.7554   -4.3065   25.7406 C.2     1  UNL1        0.0465
      8 C           6.2231   -3.7961   24.4345 C.2     1  UNL1        0.0171
      9 C           6.8458   -4.2427   23.1450 C.2     1  UNL1        0.0362
     10 C           4.2201   -1.7905   19.2907 C.ar    1  UNL1        0.1217
     11 C           3.2917   -1.1471   20.2777 C.ar    1  UNL1        0.0199
     12 C           3.4456   -1.4252   21.7436 C.ar    1  UNL1        0.0014
     13 C           4.5279   -2.3469   22.2225 C.ar    1  UNL1        0.0016
     14 C           5.4562   -2.9903   21.2356 C.ar    1  UNL1        0.0208
     15 C           5.3023   -2.7121   19.7696 C.ar    1  UNL1        0.0214
     16 N           3.9124   -1.2343   16.3588 N.3     1  UNL1       -0.2035
     17 S           4.0662   -1.5124   17.8248 S.O2    1  UNL1        0.0572
     18 O           5.2269   -2.4163   17.5315 O.2     1  UNL1       -0.1532
     19 O           2.9056   -0.6085   18.1180 O.2     1  UNL1       -0.1532
     20 H           3.1335   -0.5918   16.2145 H       1  UNL1        0.1442
     21 H           3.7290   -2.1075   15.8645 H       1  UNL1        0.1442
     22 N           6.1328   -3.8599   27.0302 N.am    1  UNL1       -0.2828
     23 C           6.4129   -2.4856   27.5619 C.2     1  UNL1        0.2449
     24 O           7.3156   -1.5578   26.8040 O.2     1  UNL1       -0.2730
     25 H           5.5403   -4.4689   27.5276 H       1  UNL1        0.1549
     26 C           5.7903   -2.0390   28.8515 C.3     1  UNL1        0.1584
     27 C           6.4718   -2.3334   30.1548 C.ar    1  UNL1        0.0080
     28 C           6.5386   -3.6698   30.8327 C.ar    1  UNL1        0.0050
     29 C           7.3142   -3.5054   32.1060 C.ar    1  UNL1        0.0352
     30 S           7.7269   -2.0674   32.2151 S.2     1  UNL1       -0.0862
     31 C           7.2062   -1.3431   31.0092 C.ar    1  UNL1        0.0330
     32 N           4.4862   -1.2980   28.8376 N.3     1  UNL1       -0.2631
     33 C           3.8345   -0.6381   30.0166 C.3     1  UNL1        0.0728
     34 C           2.5503   -0.0191   29.5499 C.3     1  UNL1        0.0188
     35 C           2.4083   -0.2964   28.0826 C.3     1  UNL1        0.0188
     36 C           3.6047   -1.0869   27.6424 C.3     1  UNL1        0.0728
@<TRIPOS>BOND
     1    16    17    1
     2    17    18    2
     3    17    19    2
     4    17    10    1
     5    10    11   ar
     6    11    12   ar
     7    12    13   ar
     8    13    14   ar
     9    14     1    1
    10     1     2    2
    11     2     3    1
    12     3     4    2
    13     4     5    1
    14     5     6    1
    15     6     7    2
    16     7    22    1
    17    22    23   am
    18    23    24    2
    19    23    26    1
    20    26    27    1
    21    27    28   ar
    22    28    29   ar
    23    29    30   ar
    24    30    31   ar
    25    26    32    1
    26    32    33    1
    27    33    34    1
    28    34    35    1
    29    35    36    1
    30     7     8    1
    31     8     9    2
    32    14    15   ar
    33    15    10   ar
    34     9     1    1
    35     9     4    1
    36    31    27   ar
    37    36    32    1
    38    16    20    1
    39    16    21    1
    40    22    25    1
@<TRIPOS>MOLECULE
*****
 36 40 0 0 0
SMALL
GASTEIGER

@<TRIPOS>ATOM
      1 C           2.7522    0.2945   23.4367 C.2     1  UNL1        0.1041
      2 N           2.1590    1.6716   23.4776 N.2     1  UNL1       -0.1483
      3 N           2.1976    2.1509   24.8984 N.2     1  UNL1       -0.1520
      4 C           2.8146    1.0700   25.7356 C.2     1  UNL1        0.0864
      5 C           3.1086    0.9823   27.2039 C.3     1  UNL1        0.0749
      6 C           3.7455   -0.2528   27.7687 C.2     1  UNL1       -0.0051
      7 C           4.0882   -1.4001   26.8653 C.2     1  UNL1        0.0465
      8 C           3.7942   -1.3124   25.3971 C.2     1  UNL1        0.0171
      9 C           3.1574   -0.0773   24.8322 C.2     1  UNL1        0.0362
     10 C           4.1923   -2.4105   20.9149 C.ar    1  UNL1        0.1217
     11 C           3.2321   -2.2712   19.7710 C.ar    1  UNL1        0.0199
     12 C           2.1119   -1.2766   19.8490 C.ar    1  UNL1        0.0014
     13 C           1.9520   -0.4214   21.0709 C.ar    1  UNL1        0.0016
     14 C           2.9121   -0.5607   22.2148 C.ar    1  UNL1        0.0208
     15 C           4.0323   -1.5553   22.1368 C.ar    1  UNL1        0.0214
     16 N           6.4326   -4.3996   20.7591 N.3     1  UNL1       -0.2035
     17 S           5.3125   -3.4050   20.8370 S.O2    1  UNL1        0.0572
     18 O           4.4491   -4.4301   21.5108 O.2     1  UNL1       -0.1532
     19 O           6.1758   -2.3800   20.1632 O.2     1  UNL1       -0.1532
     20 H           7.2399   -3.9679   20.3095 H       1  UNL1        0.1442
     21 H           6.1321   -5.2082   20.2147 H       1  UNL1        0.1442
     22 N           4.7251   -2.6352   27.4303 N.am    1  UNL1       -0.2828
     23 C           6.2157   -2.7966   27.3883 C.2     1  UNL1        0.2449
     24 O           7.0696   -1.7231   26.7814 O.2     1  UNL1       -0.2730
     25 H           4.1647   -3.3398   27.8286 H       1  UNL1        0.1549
     26 C           6.8526   -4.0317   27.9532 C.3     1  UNL1        0.1584
     27 C           7.5026   -5.0263   27.0376 C.ar    1  UNL1        0.0080
     28 C           6.8336   -6.2099   26.4040 C.ar    1  UNL1        0.0050
     29 C           7.8532   -6.9270   25.5697 C.ar    1  UNL1        0.0352
     30 S           9.1524   -6.1865   25.6875 S.2     1  UNL1       -0.0862
     31 C           8.9357   -5.0118   26.5948 C.ar    1  UNL1        0.0330
     32 N           6.8394   -4.2722   29.4337 N.3     1  UNL1       -0.2631
     33 C           7.0415   -5.5937   30.1142 C.3     1  UNL1        0.0728
     34 C           6.9488   -5.3716   31.5948 C.3     1  UNL1        0.0188
     35 C           6.6895   -3.9129   31.8294 C.3     1  UNL1        0.0188
     36 C           6.6219   -3.2335   30.4938 C.3     1  UNL1        0.0728
@<TRIPOS>BOND
     1    16    17    1
     2    17    18    2
     3    17    19    2
     4    17    10    1
     5    10    11   ar
     6    11    12   ar
     7    12    13   ar
     8    13    14   ar
     9    14     1    1
    10     1     2    2
    11     2     3    1
    12     3     4    2
    13     4     5    1
    14     5     6    1
    15     6     7    2
    16     7    22    1
    17    22    23   am
    18    23    24    2
    19    23    26    1
    20    26    27    1
    21    27    28   ar
    22    28    29   ar
    23    29    30   ar
    24    30    31   ar
    25    26    32    1
    26    32    33    1
    27    33    34    1
    28    34    35    1
    29    35    36    1
    30     7     8    1
    31     8     9    2
    32    14    15   ar
    33    15    10   ar
    34     9     1    1
    35     9     4    1
    36    31    27   ar
    37    36    32    1
    38    16    20    1
    39    16    21    1
    40    22    25    1
@<TRIPOS>MOLECULE
*****
 36 40 0 0 0
SMALL
GASTEIGER

@<TRIPOS>ATOM
      1 C           8.1150   -5.0434   22.3182 C.2     1  UNL1        0.1041
      2 N           8.7803   -6.2964   21.8311 N.2     1  UNL1       -0.1483
      3 N           8.7465   -7.3017   22.9439 N.2     1  UNL1       -0.1520
      4 C           8.0603   -6.6700   24.1186 C.2     1  UNL1        0.0864
      5 C           7.7405   -7.1853   25.4905 C.3     1  UNL1        0.0749
      6 C           7.0304   -6.3050   26.4757 C.2     1  UNL1       -0.0051
      7 C           6.6401   -4.9092   26.0889 C.2     1  UNL1        0.0465
      8 C           6.9599   -4.3938   24.7171 C.2     1  UNL1        0.0171
      9 C           7.6700   -5.2742   23.7319 C.2     1  UNL1        0.0362
     10 C           6.7488   -2.4773   19.6164 C.ar    1  UNL1        0.1217
     11 C           7.5525   -1.2564   19.9532 C.ar    1  UNL1        0.0199
     12 C           8.5437   -1.2979   21.0783 C.ar    1  UNL1        0.0014
     13 C           8.7312   -2.5602   21.8666 C.ar    1  UNL1        0.0016
     14 C           7.9275   -3.7811   21.5299 C.ar    1  UNL1        0.0208
     15 C           6.9363   -3.7397   20.4047 C.ar    1  UNL1        0.0214
     16 N           4.7665   -2.3947   17.3662 N.3     1  UNL1       -0.2035
     17 S           5.7576   -2.4360   18.4914 S.O2    1  UNL1        0.0572
     18 O           6.8811   -2.3008   17.5066 O.2     1  UNL1       -0.1532
     19 O           4.6342   -2.5712   19.4760 O.2     1  UNL1       -0.1532
     20 H           3.8216   -2.4720   17.7425 H       1  UNL1        0.1442
     21 H           4.9432   -3.1711   16.7288 H       1  UNL1        0.1442
     22 N           5.9299   -4.0288   27.0742 N.am    1  UNL1       -0.2828
     23 C           6.6958   -2.9929   27.8424 C.2     1  UNL1        0.2449
     24 O           8.1718   -2.8372   27.6255 O.2     1  UNL1       -0.2730
     25 H           4.9611   -4.1309   27.2166 H       1  UNL1        0.1549
     26 C           5.9856   -2.1125   28.8277 C.3     1  UNL1        0.1584
     27 C           6.0776   -2.4038   30.2962 C.ar    1  UNL1        0.0080
     28 C           5.6666   -1.4815   31.4054 C.ar    1  UNL1        0.0050
     29 C           5.9317   -2.1762   32.7081 C.ar    1  UNL1        0.0352
     30 S           6.5067   -3.5279   32.4040 S.2     1  UNL1       -0.0862
     31 C           6.5968   -3.6685   30.9133 C.ar    1  UNL1        0.0330
     32 N           5.1834   -0.9407   28.3443 N.3     1  UNL1       -0.2631
     33 C           3.6969   -0.9117   28.1454 C.3     1  UNL1        0.0728
     34 C           3.3217    0.4546   27.6531 C.3     1  UNL1        0.0188
     35 C           4.5763    1.2701   27.5477 C.3     1  UNL1        0.0188
     36 C           5.7269    0.4077   27.9749 C.3     1  UNL1        0.0728
@<TRIPOS>BOND
     1    16    17    1
     2    17    18    2
     3    17    19    2
     4    17    10    1
     5    10    11   ar
     6    11    12   ar
     7    12    13   ar
     8    13    14   ar
     9    14     1    1
    10     1     2    2
    11     2     3    1
    12     3     4    2
    13     4     5    1
    14     5     6    1
    15     6     7    2
    16     7    22    1
    17    22    23   am
    18    23    24    2
    19    23    26    1
    20    26    27    1
    21    27    28   ar
    22    28    29   ar
    23    29    30   ar
    24    30    31   ar
    25    26    32    1
    26    32    33    1
    27    33    34    1
    28    34    35    1
    29    35    36    1
    30     7     8    1
    31     8     9    2
    32    14    15   ar
    33    15    10   ar
    34     9     1    1
    35     9     4    1
    36    31    27   ar
    37    36    32    1
    38    16    20    1
    39    16    21    1
    40    22    25    1
@<TRIPOS>MOLECULE
*****
 36 40 0 0 0
SMALL
GASTEIGER

@<TRIPOS>ATOM
      1 C           2.9454   -0.3763   22.7713 C.2     1  UNL1        0.1041
      2 N           2.1180    0.8442   22.4965 N.2     1  UNL1       -0.1483
      3 N           1.7858    1.4847   23.8115 N.2     1  UNL1       -0.1520
      4 C           2.4079    0.6601   24.8991 C.2     1  UNL1        0.0864
      5 C           2.4144    0.8079   26.3918 C.3     1  UNL1        0.0749
      6 C           3.1376   -0.1945   27.2415 C.2     1  UNL1       -0.0051
      7 C           3.8543   -1.3447   26.5986 C.2     1  UNL1        0.0465
      8 C           3.8479   -1.4925   25.1060 C.2     1  UNL1        0.0171
      9 C           3.1246   -0.4902   24.2562 C.2     1  UNL1        0.0362
     10 C           4.0404   -1.8739   19.2629 C.ar    1  UNL1        0.1217
     11 C           4.5998   -3.2007   19.6832 C.ar    1  UNL1        0.0199
     12 C           4.6077   -3.5860   21.1328 C.ar    1  UNL1        0.0014
     13 C           4.0563   -2.6445   22.1622 C.ar    1  UNL1        0.0016
     14 C           3.4969   -1.3178   21.7420 C.ar    1  UNL1        0.0208
     15 C           3.4890   -0.9324   20.2923 C.ar    1  UNL1        0.0214
     16 N           4.0245   -1.1029   16.3638 N.3     1  UNL1       -0.2035
     17 S           4.0325   -1.4884   17.8134 S.O2    1  UNL1        0.0572
     18 O           2.9503   -0.4860   18.0859 O.2     1  UNL1       -0.1532
     19 O           5.1146   -2.4908   17.5408 O.2     1  UNL1       -0.1532
     20 H           4.7164   -1.6582   15.8605 H       1  UNL1        0.1442
     21 H           4.2525   -0.1128   16.2740 H       1  UNL1        0.1442
     22 N           4.5776   -2.3472   27.4485 N.am    1  UNL1       -0.2828
     23 C           6.0566   -2.2201   27.6635 C.2     1  UNL1        0.2449
     24 O           6.8125   -1.0906   27.0288 O.2     1  UNL1       -0.2730
     25 H           4.0815   -3.0885   27.8651 H       1  UNL1        0.1549
     26 C           6.7798   -3.2225   28.5134 C.3     1  UNL1        0.1584
     27 C           7.1830   -2.8668   29.9137 C.ar    1  UNL1        0.0080
     28 C           6.3481   -3.0533   31.1458 C.ar    1  UNL1        0.0050
     29 C           7.1409   -2.5639   32.3214 C.ar    1  UNL1        0.0352
     30 S           8.4658   -2.0749   31.8157 S.2     1  UNL1       -0.0862
     31 C           8.4918   -2.2621   30.3277 C.ar    1  UNL1        0.0330
     32 N           7.0999   -4.5806   27.9628 N.3     1  UNL1       -0.2631
     33 C           6.9099   -5.0233   26.5422 C.3     1  UNL1        0.0728
     34 C           7.3587   -6.4508   26.4377 C.3     1  UNL1        0.0188
     35 C           7.8260   -6.8903   27.7936 C.3     1  UNL1        0.0188
     36 C           7.6661   -5.7345   28.7361 C.3     1  UNL1        0.0728
@<TRIPOS>BOND
     1    16    17    1
     2    17    18    2
     3    17    19    2
     4    17    10    1
     5    10    11   ar
     6    11    12   ar
     7    12    13   ar
     8    13    14   ar
     9    14     1    1
    10     1     2    2
    11     2     3    1
    12     3     4    2
    13     4     5    1
    14     5     6    1
    15     6     7    2
    16     7    22    1
    17    22    23   am
    18    23    24    2
    19    23    26    1
    20    26    27    1
    21    27    28   ar
    22    28    29   ar
    23    29    30   ar
    24    30    31   ar
    25    26    32    1
    26    32    33    1
    27    33    34    1
    28    34    35    1
    29    35    36    1
    30     7     8    1
    31     8     9    2
    32    14    15   ar
    33    15    10   ar
    34     9     1    1
    35     9     4    1
    36    31    27   ar
    37    36    32    1
    38    16    20    1
    39    16    21    1
    40    22    25    1
@<TRIPOS>MOLECULE
*****
 36 40 0 0 0
SMALL
GASTEIGER

@<TRIPOS>ATOM
      1 C           3.9096   -1.5616   22.3838 C.2     1  UNL1        0.1041
      2 N           4.5387   -1.8573   23.7130 N.2     1  UNL1       -0.1483
      3 N           3.8014   -1.0749   24.7590 N.2     1  UNL1       -0.1520
      4 C           2.7167   -0.2956   24.0764 C.2     1  UNL1        0.0864
      5 C           1.6767    0.6490   24.6018 C.3     1  UNL1        0.0749
      6 C           0.7036    1.2928   23.6592 C.2     1  UNL1       -0.0051
      7 C           0.7705    0.9920   22.1912 C.2     1  UNL1        0.0465
      8 C           1.8105    0.0474   21.6658 C.2     1  UNL1        0.0171
      9 C           2.7836   -0.5964   22.6083 C.2     1  UNL1        0.0362
     10 C           5.4172   -1.8204   18.7217 C.ar    1  UNL1        0.1217
     11 C           5.1780   -3.2698   18.4185 C.ar    1  UNL1        0.0199
     12 C           4.5160   -4.1498   19.4370 C.ar    1  UNL1        0.0014
     13 C           4.0932   -3.5804   20.7588 C.ar    1  UNL1        0.0016
     14 C           4.3324   -2.1310   21.0621 C.ar    1  UNL1        0.0208
     15 C           4.9944   -1.2510   20.0435 C.ar    1  UNL1        0.0214
     16 N           6.7411   -0.0604   16.6847 N.3     1  UNL1       -0.2035
     17 S           6.0791   -0.9404   17.7032 S.O2    1  UNL1        0.0572
     18 O           6.9298   -2.0936   17.2598 O.2     1  UNL1       -0.1532
     19 O           5.2284    0.2128   18.1466 O.2     1  UNL1       -0.1532
     20 H           6.3458    0.8783   16.7381 H       1  UNL1        0.1442
     21 H           6.5847   -0.4427   15.7521 H       1  UNL1        0.1442
     22 N          -0.2027    1.6359   21.2486 N.am    1  UNL1       -0.2828
     23 C          -0.1206    3.1087   20.9763 C.2     1  UNL1        0.2449
     24 O           0.9346    3.9376   21.6466 O.2     1  UNL1       -0.2730
     25 H          -0.8953    1.0918   20.8086 H       1  UNL1        0.1549
     26 C          -1.0938    3.7525   20.0337 C.3     1  UNL1        0.1584
     27 C          -0.5926    4.5083   18.8389 C.ar    1  UNL1        0.0080
     28 C          -0.4458    3.9636   17.4491 C.ar    1  UNL1        0.0050
     29 C           0.0874    5.0601   16.5754 C.ar    1  UNL1        0.0352
     30 S           0.2702    6.2825   17.4253 S.2     1  UNL1       -0.0862
     31 C          -0.1501    5.9415   18.8242 C.ar    1  UNL1        0.0330
     32 N          -2.5682    3.6406   20.2860 N.3     1  UNL1       -0.2631
     33 C          -3.6472    3.6917   19.2451 C.3     1  UNL1        0.0728
     34 C          -4.9683    3.5406   19.9393 C.3     1  UNL1        0.0188
     35 C          -4.7059    3.3961   21.4090 C.3     1  UNL1        0.0188
     36 C          -3.2225    3.4580   21.6233 C.3     1  UNL1        0.0728
@<TRIPOS>BOND
     1    16    17    1
     2    17    18    2
     3    17    19    2
     4    17    10    1
     5    10    11   ar
     6    11    12   ar
     7    12    13   ar
     8    13    14   ar
     9    14     1    1
    10     1     2    2
    11     2     3    1
    12     3     4    2
    13     4     5    1
    14     5     6    1
    15     6     7    2
    16     7    22    1
    17    22    23   am
    18    23    24    2
    19    23    26    1
    20    26    27    1
    21    27    28   ar
    22    28    29   ar
    23    29    30   ar
    24    30    31   ar
    25    26    32    1
    26    32    33    1
    27    33    34    1
    28    34    35    1
    29    35    36    1
    30     7     8    1
    31     8     9    2
    32    14    15   ar
    33    15    10   ar
    34     9     1    1
    35     9     4    1
    36    31    27   ar
    37    36    32    1
    38    16    20    1
    39    16    21    1
    40    22    25    1
@<TRIPOS>MOLECULE
*****
 36 40 0 0 0
SMALL
GASTEIGER

@<TRIPOS>ATOM
      1 C           7.3022   -3.6683   27.5557 C.2     1  UNL1        0.1041
      2 N           7.8134   -3.0461   28.8212 N.2     1  UNL1       -0.1483
      3 N           7.2334   -1.6668   28.9267 N.2     1  UNL1       -0.1520
      4 C           6.3637   -1.4365   27.7264 C.2     1  UNL1        0.0864
      5 C           5.5385   -0.2604   27.2956 C.3     1  UNL1        0.0749
      6 C           4.7559   -0.3212   26.0174 C.2     1  UNL1       -0.0051
      7 C           4.7985   -1.5582   25.1701 C.2     1  UNL1        0.0465
      8 C           5.6236   -2.7344   25.6009 C.2     1  UNL1        0.0171
      9 C           6.4062   -2.6736   26.8791 C.2     1  UNL1        0.0362
     10 C           8.2427   -6.6388   25.0977 C.ar    1  UNL1        0.1217
     11 C           8.2840   -7.7947   26.0527 C.ar    1  UNL1        0.0199
     12 C           7.9980   -7.5751   27.5087 C.ar    1  UNL1        0.0014
     13 C           7.6708   -6.1997   28.0097 C.ar    1  UNL1        0.0016
     14 C           7.6294   -5.0438   27.0548 C.ar    1  UNL1        0.0208
     15 C           7.9154   -5.2633   25.5987 C.ar    1  UNL1        0.0214
     16 N           8.8146   -7.0776   22.1856 N.3     1  UNL1       -0.2035
     17 S           8.5287   -6.8582   23.6417 S.O2    1  UNL1        0.0572
     18 O           7.5712   -5.7589   23.2880 O.2     1  UNL1       -0.1532
     19 O           9.4861   -7.9575   23.9953 O.2     1  UNL1       -0.1532
     20 H           9.4932   -7.8321   22.0823 H       1  UNL1        0.1442
     21 H           9.1936   -6.2216   21.7808 H       1  UNL1        0.1442
     22 N           4.0158   -1.6190   23.8918 N.am    1  UNL1       -0.2828
     23 C           4.6826   -1.2946   22.5880 C.2     1  UNL1        0.2449
     24 O           6.1321   -0.9094   22.5623 O.2     1  UNL1       -0.2730
     25 H           3.0645   -1.8718   23.9087 H       1  UNL1        0.1549
     26 C           3.9000   -1.3554   21.3098 C.3     1  UNL1        0.1584
     27 C           2.6560   -0.5322   21.1522 C.ar    1  UNL1        0.0080
     28 C           1.4558   -0.8968   20.3296 C.ar    1  UNL1        0.0050
     29 C           0.4518    0.2101   20.4585 C.ar    1  UNL1        0.0352
     30 S           1.0315    1.2589   21.3608 S.2     1  UNL1       -0.0862
     31 C           2.3937    0.8001   21.7895 C.ar    1  UNL1        0.0330
     32 N           4.3613   -2.2393   20.1892 N.3     1  UNL1       -0.2631
     33 C           5.1635   -1.8065   18.9978 C.3     1  UNL1        0.0728
     34 C           5.3995   -3.0110   18.1355 C.3     1  UNL1        0.0188
     35 C           4.7432   -4.1882   18.7939 C.3     1  UNL1        0.0188
     36 C           4.1016   -3.7113   20.0631 C.3     1  UNL1        0.0728
@<TRIPOS>BOND
     1    16    17    1
     2    17    18    2
     3    17    19    2
     4    17    10    1
     5    10    11   ar
     6    11    12   ar
     7    12    13   ar
     8    13    14   ar
     9    14     1    1
    10     1     2    2
    11     2     3    1
    12     3     4    2
    13     4     5    1
    14     5     6    1
    15     6     7    2
    16     7    22    1
    17    22    23   am
    18    23    24    2
    19    23    26    1
    20    26    27    1
    21    27    28   ar
    22    28    29   ar
    23    29    30   ar
    24    30    31   ar
    25    26    32    1
    26    32    33    1
    27    33    34    1
    28    34    35    1
    29    35    36    1
    30     7     8    1
    31     8     9    2
    32    14    15   ar
    33    15    10   ar
    34     9     1    1
    35     9     4    1
    36    31    27   ar
    37    36    32    1
    38    16    20    1
    39    16    21    1
    40    22    25    1
@<TRIPOS>MOLECULE
*****
 36 40 0 0 0
SMALL
GASTEIGER

@<TRIPOS>ATOM
      1 C           4.6889   -0.6070   18.4689 C.2     1  UNL1        0.1041
      2 N           5.1504   -0.5138   17.0447 N.2     1  UNL1       -0.1483
      3 N           6.5658   -1.0065   16.9829 N.2     1  UNL1       -0.1520
      4 C           6.9791   -1.4042   18.3689 C.2     1  UNL1        0.0864
      5 C           8.2619   -1.9592   18.9134 C.3     1  UNL1        0.0749
      6 C           8.3846   -2.2673   20.3762 C.2     1  UNL1       -0.0051
      7 C           7.2246   -2.0204   21.2946 C.2     1  UNL1        0.0465
      8 C           5.9419   -1.4654   20.7502 C.2     1  UNL1        0.0171
      9 C           5.8191   -1.1572   19.2873 C.2     1  UNL1        0.0362
     10 C           1.4388    1.5419   19.2237 C.ar    1  UNL1        0.1217
     11 C           0.6270    0.5596   20.0149 C.ar    1  UNL1        0.0199
     12 C           1.1691   -0.8115   20.2908 C.ar    1  UNL1        0.0014
     13 C           2.5231   -1.2003   19.7754 C.ar    1  UNL1        0.0016
     14 C           3.3349   -0.2182   18.9843 C.ar    1  UNL1        0.0208
     15 C           2.7928    1.1530   18.7084 C.ar    1  UNL1        0.0214
     16 N           0.3548    4.2841   18.6719 N.3     1  UNL1       -0.2035
     17 S           0.8968    2.9130   18.9478 S.O2    1  UNL1        0.0572
     18 O           2.1651    3.2700   18.2307 O.2     1  UNL1       -0.1532
     19 O          -0.3715    2.5560   19.6649 O.2     1  UNL1       -0.1532
     20 H          -0.5811    4.3661   19.0690 H       1  UNL1        0.1442
     21 H           0.3110    4.4360   17.6642 H       1  UNL1        0.1442
     22 N           7.3474   -2.3286   22.7575 N.am    1  UNL1       -0.2828
     23 C           6.8162   -3.6228   23.2985 C.2     1  UNL1        0.2449
     24 O           6.1621   -4.6089   22.3767 O.2     1  UNL1       -0.2730
     25 H           7.7767   -1.6813   23.3626 H       1  UNL1        0.1549
     26 C           6.9390   -3.9309   24.7615 C.3     1  UNL1        0.1584
     27 C           6.7875   -2.8348   25.7741 C.ar    1  UNL1        0.0080
     28 C           7.8501   -2.3520   26.7164 C.ar    1  UNL1        0.0050
     29 C           7.2662   -1.2478   27.5469 C.ar    1  UNL1        0.0352
     30 S           5.8427   -1.0481   27.1179 S.2     1  UNL1       -0.0862
     31 C           5.5469   -2.0290   26.0223 C.ar    1  UNL1        0.0330
     32 N           7.2133   -5.3352   25.2116 N.3     1  UNL1       -0.2631
     33 C           8.0298   -6.3542   24.4733 C.3     1  UNL1        0.0728
     34 C           8.0404   -7.6159   25.2846 C.3     1  UNL1        0.0188
     35 C           7.2304   -7.3767   26.5242 C.3     1  UNL1        0.0188
     36 C           6.7193   -5.9672   26.4791 C.3     1  UNL1        0.0728
@<TRIPOS>BOND
     1    16    17    1
     2    17    18    2
     3    17    19    2
     4    17    10    1
     5    10    11   ar
     6    11    12   ar
     7    12    13   ar
     8    13    14   ar
     9    14     1    1
    10     1     2    2
    11     2     3    1
    12     3     4    2
    13     4     5    1
    14     5     6    1
    15     6     7    2
    16     7    22    1
    17    22    23   am
    18    23    24    2
    19    23    26    1
    20    26    27    1
    21    27    28   ar
    22    28    29   ar
    23    29    30   ar
    24    30    31   ar
    25    26    32    1
    26    32    33    1
    27    33    34    1
    28    34    35    1
    29    35    36    1
    30     7     8    1
    31     8     9    2
    32    14    15   ar
    33    15    10   ar
    34     9     1    1
    35     9     4    1
    36    31    27   ar
    37    36    32    1
    38    16    20    1
    39    16    21    1
    40    22    25    1
