@<TRIPOS>MOLECULE
*****
 36 40 0 0 0
SMALL
GASTEIGER

@<TRIPOS>ATOM
      1 N         -10.6246  -16.7847   21.0728 N.3     1  UNL1       -0.2679
      2 C         -11.3181  -17.4450   22.2274 C.3     1  UNL1        0.0978
      3 C         -12.6769  -16.9748   22.6544 C.3     1  UNL1        0.0224
      4 C         -13.3705  -17.6350   23.8091 C.3     1  UNL1        0.0065
      5 C         -12.7051  -18.7654   24.5367 C.3     1  UNL1        0.0277
      6 C         -11.3463  -19.2356   24.1096 C.ar    1  UNL1       -0.0073
      7 C         -10.6809  -20.3661   24.8372 C.ar    1  UNL1       -0.0015
      8 C          -9.3220  -20.8363   24.4102 C.ar    1  UNL1        0.0203
      9 C          -8.6285  -20.1760   23.2556 C.ar    1  UNL1        0.0985
     10 N          -9.2938  -19.0456   22.5280 N.ar    1  UNL1       -0.2471
     11 C         -10.6528  -18.5754   22.9550 C.ar    1  UNL1        0.0695
     12 C         -10.7674  -17.3486   19.6902 C.3     1  UNL1        0.0725
     13 C         -11.1063  -18.7978   19.5026 C.3     1  UNL1        0.0188
     14 C         -10.0123  -19.8224   19.4444 C.3     1  UNL1        0.0185
     15 C          -8.6484  -19.4362   18.9541 C.3     1  UNL1        0.0689
     16 N          -7.5617  -19.1134   19.9366 N.3     1  UNL1       -0.2937
     17 H          -7.0519  -18.3143   19.5598 H       1  UNL1        0.1236
     18 C          -6.5388  -20.1515   20.2913 C.3     1  UNL1        0.0956
     19 C          -2.6410  -18.9189   22.1723 C.ar    1  UNL1       -0.0000
     20 C          -3.9396  -18.4785   22.7804 C.ar    1  UNL1       -0.0003
     21 C          -5.2388  -18.8893   22.1534 C.ar    1  UNL1       -0.0029
     22 C          -5.2395  -19.7406   20.9184 C.ar    1  UNL1       -0.0064
     23 C          -3.9409  -20.1810   20.3103 C.ar    1  UNL1       -0.0029
     24 C          -2.6417  -19.7702   20.9373 C.ar    1  UNL1       -0.0003
     25 C          -9.7882  -15.5606   21.3008 C.3     1  UNL1        0.0886
     26 C          -8.8211  -15.5157   22.4466 C.3     1  UNL1        0.0748
     27 C          -9.2902  -15.8283   23.8366 C.3     1  UNL1        0.0432
     28 C          -8.3230  -15.7834   24.9824 C.ar    1  UNL1       -0.0234
     29 C          -8.7921  -16.0961   26.3724 C.ar    1  UNL1       -0.0045
     30 C          -7.8250  -16.0511   27.5181 C.ar    1  UNL1       -0.0003
     31 C          -6.3889  -15.6936   27.2738 C.ar    1  UNL1       -0.0003
     32 C          -5.9198  -15.3809   25.8837 C.ar    1  UNL1       -0.0032
     33 C          -6.8869  -15.4258   24.7381 C.ar    1  UNL1       -0.0103
     34 C          -6.4179  -15.1132   23.3479 C.3     1  UNL1        0.0953
     35 N          -7.3850  -15.1581   22.2022 N.3     1  UNL1       -0.2934
     36 H          -7.0211  -15.8396   21.5363 H       1  UNL1        0.1236
@<TRIPOS>BOND
     1    19    20   ar
     2    20    21   ar
     3    21    22   ar
     4    22    18    1
     5    18    16    1
     6    16    15    1
     7    15    14    1
     8    14    13    1
     9    13    12    1
    10    12     1    1
    11     1    25    1
    12    26    25    1
    13    26    27    1
    14    27    28    1
    15    28    29   ar
    16    29    30   ar
    17    30    31   ar
    18    31    32   ar
    19    32    33   ar
    20    33    34    1
    21    34    35    1
    22     2     1    1
    23     2     3    1
    24     3     4    1
    25     4     5    1
    26     5     6    1
    27     6     7   ar
    28     7     8   ar
    29     8     9   ar
    30     9    10   ar
    31    10    11   ar
    32    22    23   ar
    33    23    24   ar
    34    24    19   ar
    35    35    26    1
    36    11     2    1
    37    33    28   ar
    38    11     6   ar
    39    16    17    1
    40    35    36    1
@<TRIPOS>MOLECULE
*****
 36 40 0 0 0
SMALL
GASTEIGER

@<TRIPOS>ATOM
      1 N          -8.9957  -18.2129   21.2275 N.3     1  UNL1       -0.2679
      2 C          -9.5837  -18.9165   22.4146 C.3     1  UNL1        0.0978
      3 C          -8.8212  -20.0202   23.0857 C.3     1  UNL1        0.0224
      4 C          -9.4092  -20.7238   24.2728 C.3     1  UNL1        0.0065
      5 C         -10.7596  -20.3237   24.7888 C.3     1  UNL1        0.0277
      6 C         -11.5221  -19.2200   24.1177 C.ar    1  UNL1       -0.0073
      7 C         -12.8725  -18.8199   24.6336 C.ar    1  UNL1       -0.0015
      8 C         -13.6350  -17.7162   23.9625 C.ar    1  UNL1        0.0203
      9 C         -13.0470  -17.0126   22.7754 C.ar    1  UNL1        0.0985
     10 N         -11.6966  -17.4126   22.2594 N.ar    1  UNL1       -0.2471
     11 C         -10.9341  -18.5164   22.9306 C.ar    1  UNL1        0.0695
     12 C          -8.9905  -18.8827   19.8854 C.3     1  UNL1        0.0725
     13 C          -7.8017  -19.6896   19.4544 C.3     1  UNL1        0.0188
     14 C          -6.4245  -19.2895   19.8939 C.3     1  UNL1        0.0185
     15 C          -5.7572  -20.0161   21.0238 C.3     1  UNL1        0.0689
     16 N          -5.3810  -19.2760   22.2732 N.3     1  UNL1       -0.2937
     17 H          -5.6770  -18.3087   22.1428 H       1  UNL1        0.1236
     18 C          -3.9491  -19.2345   22.7179 C.3     1  UNL1        0.0956
     19 C          -0.8940  -17.0225   20.2637 C.ar    1  UNL1       -0.0000
     20 C          -1.2025  -18.4587   19.9603 C.ar    1  UNL1       -0.0003
     21 C          -2.2209  -19.1961   20.7783 C.ar    1  UNL1       -0.0029
     22 C          -2.9307  -18.4972   21.8998 C.ar    1  UNL1       -0.0064
     23 C          -2.6222  -17.0609   22.2032 C.ar    1  UNL1       -0.0029
     24 C          -1.6039  -16.3236   21.3851 C.ar    1  UNL1       -0.0003
     25 C          -8.4129  -16.8395   21.3825 C.3     1  UNL1        0.0886
     26 C          -7.7753  -16.4373   22.6794 C.3     1  UNL1        0.0748
     27 C          -8.6313  -16.1253   23.8710 C.3     1  UNL1        0.0432
     28 C          -7.9938  -15.7231   25.1678 C.ar    1  UNL1       -0.0234
     29 C          -8.8498  -15.4112   26.3594 C.ar    1  UNL1       -0.0045
     30 C          -8.2122  -15.0090   27.6562 C.ar    1  UNL1       -0.0003
     31 C          -6.7186  -14.9187   27.7614 C.ar    1  UNL1       -0.0003
     32 C          -5.8626  -15.2306   26.5698 C.ar    1  UNL1       -0.0032
     33 C          -6.5002  -15.6328   25.2730 C.ar    1  UNL1       -0.0103
     34 C          -5.6442  -15.9448   24.0814 C.3     1  UNL1        0.0953
     35 N          -6.2817  -16.3470   22.7846 N.3     1  UNL1       -0.2934
     36 H          -5.9137  -17.2686   22.5489 H       1  UNL1        0.1236
@<TRIPOS>BOND
     1    19    20   ar
     2    20    21   ar
     3    21    22   ar
     4    22    18    1
     5    18    16    1
     6    16    15    1
     7    15    14    1
     8    14    13    1
     9    13    12    1
    10    12     1    1
    11     1    25    1
    12    26    25    1
    13    26    27    1
    14    27    28    1
    15    28    29   ar
    16    29    30   ar
    17    30    31   ar
    18    31    32   ar
    19    32    33   ar
    20    33    34    1
    21    34    35    1
    22     2     1    1
    23     2     3    1
    24     3     4    1
    25     4     5    1
    26     5     6    1
    27     6     7   ar
    28     7     8   ar
    29     8     9   ar
    30     9    10   ar
    31    10    11   ar
    32    22    23   ar
    33    23    24   ar
    34    24    19   ar
    35    35    26    1
    36    11     2    1
    37    33    28   ar
    38    11     6   ar
    39    16    17    1
    40    35    36    1
@<TRIPOS>MOLECULE
*****
 36 40 0 0 0
SMALL
GASTEIGER

@<TRIPOS>ATOM
      1 N          -7.4124  -19.5929   21.6404 N.3     1  UNL1       -0.2679
      2 C          -8.3485  -19.1787   22.7368 C.3     1  UNL1        0.0978
      3 C          -9.3757  -20.1437   23.2504 C.3     1  UNL1        0.0224
      4 C         -10.3118  -19.7295   24.3468 C.3     1  UNL1        0.0065
      5 C         -10.2208  -18.3503   24.9296 C.3     1  UNL1        0.0277
      6 C          -9.1937  -17.3854   24.4160 C.ar    1  UNL1       -0.0073
      7 C          -9.1026  -16.0062   24.9988 C.ar    1  UNL1       -0.0015
      8 C          -8.0754  -15.0413   24.4852 C.ar    1  UNL1        0.0203
      9 C          -7.1393  -15.4555   23.3888 C.ar    1  UNL1        0.0985
     10 N          -7.2303  -16.8346   22.8060 N.ar    1  UNL1       -0.2471
     11 C          -8.2575  -17.7996   23.3196 C.ar    1  UNL1        0.0695
     12 C          -7.8280  -19.4517   20.2061 C.3     1  UNL1        0.0725
     13 C          -7.6936  -20.6146   19.2682 C.3     1  UNL1        0.0188
     14 C          -8.8231  -20.9699   18.3474 C.3     1  UNL1        0.0185
     15 C         -10.0170  -20.0680   18.2423 C.3     1  UNL1        0.0689
     16 N         -10.6881  -19.5641   19.4856 N.3     1  UNL1       -0.2937
     17 H         -11.6227  -19.9725   19.5019 H       1  UNL1        0.1236
     18 C         -10.8561  -18.0894   19.7021 C.3     1  UNL1        0.0956
     19 C         -12.9571  -16.5807   23.3844 C.ar    1  UNL1       -0.0000
     20 C         -13.2207  -17.9711   22.8872 C.ar    1  UNL1       -0.0003
     21 C         -12.5204  -18.4740   21.6597 C.ar    1  UNL1       -0.0029
     22 C         -11.5565  -17.5865   20.9296 C.ar    1  UNL1       -0.0064
     23 C         -11.2929  -16.1961   21.4269 C.ar    1  UNL1       -0.0029
     24 C         -11.9932  -15.6932   22.6543 C.ar    1  UNL1       -0.0003
     25 C          -6.0607  -20.1484   21.9783 C.3     1  UNL1        0.0886
     26 C          -4.8383  -19.2928   21.8242 C.3     1  UNL1        0.0748
     27 C          -4.0240  -19.3677   20.5668 C.3     1  UNL1        0.0432
     28 C          -2.8016  -18.5120   20.4127 C.ar    1  UNL1       -0.0234
     29 C          -1.9873  -18.5869   19.1553 C.ar    1  UNL1       -0.0045
     30 C          -0.7649  -17.7313   19.0013 C.ar    1  UNL1       -0.0003
     31 C          -0.3569  -16.8008   20.1047 C.ar    1  UNL1       -0.0003
     32 C          -1.1712  -16.7259   21.3622 C.ar    1  UNL1       -0.0032
     33 C          -2.3935  -17.5815   21.5162 C.ar    1  UNL1       -0.0103
     34 C          -3.2079  -17.5066   22.7737 C.3     1  UNL1        0.0953
     35 N          -4.4302  -18.3622   22.9277 N.3     1  UNL1       -0.2934
     36 H          -5.2147  -17.7295   23.0845 H       1  UNL1        0.1236
@<TRIPOS>BOND
     1    19    20   ar
     2    20    21   ar
     3    21    22   ar
     4    22    18    1
     5    18    16    1
     6    16    15    1
     7    15    14    1
     8    14    13    1
     9    13    12    1
    10    12     1    1
    11     1    25    1
    12    26    25    1
    13    26    27    1
    14    27    28    1
    15    28    29   ar
    16    29    30   ar
    17    30    31   ar
    18    31    32   ar
    19    32    33   ar
    20    33    34    1
    21    34    35    1
    22     2     1    1
    23     2     3    1
    24     3     4    1
    25     4     5    1
    26     5     6    1
    27     6     7   ar
    28     7     8   ar
    29     8     9   ar
    30     9    10   ar
    31    10    11   ar
    32    22    23   ar
    33    23    24   ar
    34    24    19   ar
    35    35    26    1
    36    11     2    1
    37    33    28   ar
    38    11     6   ar
    39    16    17    1
    40    35    36    1
@<TRIPOS>MOLECULE
*****
 36 40 0 0 0
SMALL
GASTEIGER

@<TRIPOS>ATOM
      1 N          -8.8706  -17.9630   21.3389 N.3     1  UNL1       -0.2679
      2 C         -10.3058  -17.5269   21.3306 C.3     1  UNL1        0.0978
      3 C         -10.8379  -16.7200   20.1836 C.3     1  UNL1        0.0224
      4 C         -12.2731  -16.2839   20.1754 C.3     1  UNL1        0.0065
      5 C         -13.1762  -16.6548   21.3141 C.3     1  UNL1        0.0277
      6 C         -12.6441  -17.4618   22.4611 C.ar    1  UNL1       -0.0073
      7 C         -13.5472  -17.8327   23.5999 C.ar    1  UNL1       -0.0015
      8 C         -13.0151  -18.6397   24.7469 C.ar    1  UNL1        0.0203
      9 C         -11.5799  -19.0758   24.7552 C.ar    1  UNL1        0.0985
     10 N         -10.6768  -18.7049   23.6164 N.ar    1  UNL1       -0.2471
     11 C         -11.2089  -17.8978   22.4694 C.ar    1  UNL1        0.0695
     12 C          -8.5283  -19.4186   21.2211 C.3     1  UNL1        0.0725
     13 C          -7.5941  -20.0518   22.2093 C.3     1  UNL1        0.0188
     14 C          -6.1166  -20.0520   21.9508 C.3     1  UNL1        0.0185
     15 C          -5.5988  -19.8427   20.5587 C.3     1  UNL1        0.0689
     16 N          -4.4543  -20.6694   20.0519 N.3     1  UNL1       -0.2937
     17 H          -4.6953  -21.6449   20.2274 H       1  UNL1        0.1236
     18 C          -3.0751  -20.4584   20.6024 C.3     1  UNL1        0.0956
     19 C          -1.5635  -16.2857   21.3466 C.ar    1  UNL1       -0.0000
     20 C          -1.2495  -16.9777   20.0533 C.ar    1  UNL1       -0.0003
     21 C          -1.7533  -18.3686   19.8053 C.ar    1  UNL1       -0.0029
     22 C          -2.5712  -19.0675   20.8505 C.ar    1  UNL1       -0.0064
     23 C          -2.8853  -18.3755   22.1437 C.ar    1  UNL1       -0.0029
     24 C          -2.3814  -16.9847   22.3918 C.ar    1  UNL1       -0.0003
     25 C          -7.7777  -16.9434   21.4648 C.3     1  UNL1        0.0886
     26 C          -7.3124  -16.5064   22.8223 C.3     1  UNL1        0.0748
     27 C          -8.3141  -16.2061   23.8977 C.3     1  UNL1        0.0432
     28 C          -7.8488  -15.7691   25.2552 C.ar    1  UNL1       -0.0234
     29 C          -8.8504  -15.4688   26.3306 C.ar    1  UNL1       -0.0045
     30 C          -8.3852  -15.0319   27.6879 C.ar    1  UNL1       -0.0003
     31 C          -6.9183  -14.8952   27.9699 C.ar    1  UNL1       -0.0003
     32 C          -5.9166  -15.1955   26.8945 C.ar    1  UNL1       -0.0032
     33 C          -6.3819  -15.6324   25.5372 C.ar    1  UNL1       -0.0103
     34 C          -5.3803  -15.9328   24.4617 C.3     1  UNL1        0.0953
     35 N          -5.8455  -16.3697   23.1043 N.3     1  UNL1       -0.2934
     36 H          -5.4256  -17.2826   22.9289 H       1  UNL1        0.1236
@<TRIPOS>BOND
     1    19    20   ar
     2    20    21   ar
     3    21    22   ar
     4    22    18    1
     5    18    16    1
     6    16    15    1
     7    15    14    1
     8    14    13    1
     9    13    12    1
    10    12     1    1
    11     1    25    1
    12    26    25    1
    13    26    27    1
    14    27    28    1
    15    28    29   ar
    16    29    30   ar
    17    30    31   ar
    18    31    32   ar
    19    32    33   ar
    20    33    34    1
    21    34    35    1
    22     2     1    1
    23     2     3    1
    24     3     4    1
    25     4     5    1
    26     5     6    1
    27     6     7   ar
    28     7     8   ar
    29     8     9   ar
    30     9    10   ar
    31    10    11   ar
    32    22    23   ar
    33    23    24   ar
    34    24    19   ar
    35    35    26    1
    36    11     2    1
    37    33    28   ar
    38    11     6   ar
    39    16    17    1
    40    35    36    1
@<TRIPOS>MOLECULE
*****
 36 40 0 0 0
SMALL
GASTEIGER

@<TRIPOS>ATOM
      1 N          -7.7522  -19.6835   21.7537 N.3     1  UNL1       -0.2679
      2 C          -8.4414  -19.2153   23.0011 C.3     1  UNL1        0.0978
      3 C          -9.3230  -20.1551   23.7687 C.3     1  UNL1        0.0224
      4 C         -10.0121  -19.6869   25.0161 C.3     1  UNL1        0.0065
      5 C          -9.8197  -18.2788   25.4957 C.3     1  UNL1        0.0277
      6 C          -8.9381  -17.3389   24.7280 C.ar    1  UNL1       -0.0073
      7 C          -8.7456  -15.9307   25.2077 C.ar    1  UNL1       -0.0015
      8 C          -7.8640  -14.9908   24.4400 C.ar    1  UNL1        0.0203
      9 C          -7.1748  -15.4591   23.1926 C.ar    1  UNL1        0.0985
     10 N          -7.3673  -16.8672   22.7130 N.ar    1  UNL1       -0.2471
     11 C          -8.2489  -17.8071   23.4807 C.ar    1  UNL1        0.0695
     12 C          -8.4078  -19.4930   20.4181 C.3     1  UNL1        0.0725
     13 C          -9.8457  -19.0726   20.3415 C.3     1  UNL1        0.0188
     14 C         -10.9156  -19.9508   20.9194 C.3     1  UNL1        0.0185
     15 C         -12.1835  -19.3430   21.4420 C.3     1  UNL1        0.0689
     16 N         -12.1692  -18.5649   22.7244 N.3     1  UNL1       -0.2937
     17 H         -12.9941  -18.8511   23.2516 H       1  UNL1        0.1236
     18 C         -12.1749  -17.0653   22.6918 C.3     1  UNL1        0.0956
     19 C         -10.6204  -14.8874   19.0738 C.ar    1  UNL1       -0.0000
     20 C         -11.9583  -15.5638   19.0246 C.ar    1  UNL1       -0.0003
     21 C         -12.4765  -16.2898   20.2305 C.ar    1  UNL1       -0.0029
     22 C         -11.6567  -16.3393   21.4857 C.ar    1  UNL1       -0.0064
     23 C         -10.3188  -15.6628   21.5350 C.ar    1  UNL1       -0.0029
     24 C          -9.8007  -14.9369   20.3290 C.ar    1  UNL1       -0.0003
     25 C          -6.4076  -20.3423   21.8420 C.3     1  UNL1        0.0886
     26 C          -5.1596  -19.5154   21.7470 C.3     1  UNL1        0.0748
     27 C          -4.3910  -19.4628   20.4599 C.3     1  UNL1        0.0432
     28 C          -3.1430  -18.6359   20.3649 C.ar    1  UNL1       -0.0234
     29 C          -2.3745  -18.5833   19.0778 C.ar    1  UNL1       -0.0045
     30 C          -1.1266  -17.7564   18.9828 C.ar    1  UNL1       -0.0003
     31 C          -0.6473  -16.9823   20.1748 C.ar    1  UNL1       -0.0003
     32 C          -1.4158  -17.0349   21.4619 C.ar    1  UNL1       -0.0032
     33 C          -2.6637  -17.8618   21.5569 C.ar    1  UNL1       -0.0103
     34 C          -3.4323  -17.9144   22.8440 C.3     1  UNL1        0.0953
     35 N          -4.6802  -18.7413   22.9390 N.3     1  UNL1       -0.2934
     36 H          -5.4347  -18.1067   23.2007 H       1  UNL1        0.1236
@<TRIPOS>BOND
     1    19    20   ar
     2    20    21   ar
     3    21    22   ar
     4    22    18    1
     5    18    16    1
     6    16    15    1
     7    15    14    1
     8    14    13    1
     9    13    12    1
    10    12     1    1
    11     1    25    1
    12    26    25    1
    13    26    27    1
    14    27    28    1
    15    28    29   ar
    16    29    30   ar
    17    30    31   ar
    18    31    32   ar
    19    32    33   ar
    20    33    34    1
    21    34    35    1
    22     2     1    1
    23     2     3    1
    24     3     4    1
    25     4     5    1
    26     5     6    1
    27     6     7   ar
    28     7     8   ar
    29     8     9   ar
    30     9    10   ar
    31    10    11   ar
    32    22    23   ar
    33    23    24   ar
    34    24    19   ar
    35    35    26    1
    36    11     2    1
    37    33    28   ar
    38    11     6   ar
    39    16    17    1
    40    35    36    1
@<TRIPOS>MOLECULE
*****
 36 40 0 0 0
SMALL
GASTEIGER

@<TRIPOS>ATOM
      1 N          -7.4064  -19.2145   22.0037 N.3     1  UNL1       -0.2679
      2 C          -6.2306  -19.7584   21.2477 C.3     1  UNL1        0.0978
      3 C          -6.4464  -20.7102   20.1086 C.3     1  UNL1        0.0224
      4 C          -5.2705  -21.2541   19.3527 C.3     1  UNL1        0.0065
      5 C          -3.8788  -20.8464   19.7359 C.3     1  UNL1        0.0277
      6 C          -3.6630  -19.8946   20.8750 C.ar    1  UNL1       -0.0073
      7 C          -2.2712  -19.4868   21.2583 C.ar    1  UNL1       -0.0015
      8 C          -2.0554  -18.5351   22.3974 C.ar    1  UNL1        0.0203
      9 C          -3.2313  -17.9911   23.1533 C.ar    1  UNL1        0.0985
     10 N          -4.6230  -18.3989   22.7701 N.ar    1  UNL1       -0.2471
     11 C          -4.8389  -19.3507   21.6309 C.ar    1  UNL1        0.0695
     12 C          -8.3006  -20.1437   22.7697 C.3     1  UNL1        0.0725
     13 C          -9.7719  -19.8651   22.8591 C.3     1  UNL1        0.0188
     14 C         -10.5069  -20.1198   24.1415 C.3     1  UNL1        0.0185
     15 C         -11.1534  -18.9818   24.8742 C.3     1  UNL1        0.0689
     16 N         -12.6430  -18.8105   24.8292 N.3     1  UNL1       -0.2937
     17 H         -13.0428  -19.7410   24.7077 H       1  UNL1        0.1236
     18 C         -13.2657  -17.9319   23.7851 C.3     1  UNL1        0.0956
     19 C         -10.8299  -16.5502   20.2626 C.ar    1  UNL1       -0.0000
     20 C         -11.6524  -17.8006   20.1616 C.ar    1  UNL1       -0.0003
     21 C         -12.4643  -18.2612   21.3357 C.ar    1  UNL1       -0.0029
     22 C         -12.4538  -17.4714   22.6109 C.ar    1  UNL1       -0.0064
     23 C         -11.6313  -16.2210   22.7119 C.ar    1  UNL1       -0.0029
     24 C         -10.8194  -15.7605   21.5378 C.ar    1  UNL1       -0.0003
     25 C          -7.6881  -17.7412   21.9936 C.3     1  UNL1        0.0886
     26 C          -7.3210  -16.8993   23.1795 C.3     1  UNL1        0.0748
     27 C          -8.1994  -16.8925   24.3953 C.3     1  UNL1        0.0432
     28 C          -7.8323  -16.0505   25.5812 C.ar    1  UNL1       -0.0234
     29 C          -8.7107  -16.0438   26.7970 C.ar    1  UNL1       -0.0045
     30 C          -8.3436  -15.2019   27.9829 C.ar    1  UNL1       -0.0003
     31 C          -7.0980  -14.3667   27.9529 C.ar    1  UNL1       -0.0003
     32 C          -6.2195  -14.3734   26.7371 C.ar    1  UNL1       -0.0032
     33 C          -6.5867  -15.2153   25.5513 C.ar    1  UNL1       -0.0103
     34 C          -5.7082  -15.2221   24.3354 C.3     1  UNL1        0.0953
     35 N          -6.0754  -16.0640   23.1495 N.3     1  UNL1       -0.2934
     36 H          -5.2964  -16.7027   22.9894 H       1  UNL1        0.1236
@<TRIPOS>BOND
     1    19    20   ar
     2    20    21   ar
     3    21    22   ar
     4    22    18    1
     5    18    16    1
     6    16    15    1
     7    15    14    1
     8    14    13    1
     9    13    12    1
    10    12     1    1
    11     1    25    1
    12    26    25    1
    13    26    27    1
    14    27    28    1
    15    28    29   ar
    16    29    30   ar
    17    30    31   ar
    18    31    32   ar
    19    32    33   ar
    20    33    34    1
    21    34    35    1
    22     2     1    1
    23     2     3    1
    24     3     4    1
    25     4     5    1
    26     5     6    1
    27     6     7   ar
    28     7     8   ar
    29     8     9   ar
    30     9    10   ar
    31    10    11   ar
    32    22    23   ar
    33    23    24   ar
    34    24    19   ar
    35    35    26    1
    36    11     2    1
    37    33    28   ar
    38    11     6   ar
    39    16    17    1
    40    35    36    1
@<TRIPOS>MOLECULE
*****
 36 40 0 0 0
SMALL
GASTEIGER

@<TRIPOS>ATOM
      1 N          -7.4497  -18.4750   21.8107 N.3     1  UNL1       -0.2679
      2 C          -8.8181  -18.9116   22.2428 C.3     1  UNL1        0.0978
      3 C          -8.9750  -20.0849   23.1641 C.3     1  UNL1        0.0224
      4 C         -10.3434  -20.5215   23.5963 C.3     1  UNL1        0.0065
      5 C         -11.5550  -19.7848   23.1072 C.3     1  UNL1        0.0277
      6 C         -11.3982  -18.6115   22.1860 C.ar    1  UNL1       -0.0073
      7 C         -12.6098  -17.8747   21.6969 C.ar    1  UNL1       -0.0015
      8 C         -12.4530  -16.7014   20.7757 C.ar    1  UNL1        0.0203
      9 C         -11.0846  -16.2648   20.3435 C.ar    1  UNL1        0.0985
     10 N          -9.8730  -17.0015   20.8325 N.ar    1  UNL1       -0.2471
     11 C         -10.0297  -18.1749   21.7538 C.ar    1  UNL1        0.0695
     12 C          -6.8892  -17.1720   22.2985 C.3     1  UNL1        0.0725
     13 C          -6.0270  -17.1389   23.5255 C.3     1  UNL1        0.0188
     14 C          -5.2129  -15.9183   23.8373 C.3     1  UNL1        0.0185
     15 C          -4.7975  -15.6347   25.2504 C.3     1  UNL1        0.0689
     16 N          -5.4329  -14.5059   26.0068 N.3     1  UNL1       -0.2937
     17 H          -4.7152  -14.1230   26.6222 H       1  UNL1        0.1236
     18 C          -6.6421  -14.7597   26.8573 C.3     1  UNL1        0.0956
     19 C          -9.9857  -17.3387   25.3019 C.ar    1  UNL1       -0.0000
     20 C          -9.5728  -16.1100   24.5470 C.ar    1  UNL1       -0.0003
     21 C          -8.4583  -15.2503   25.0654 C.ar    1  UNL1       -0.0029
     22 C          -7.7566  -15.6194   26.3388 C.ar    1  UNL1       -0.0064
     23 C          -8.1695  -16.8481   27.0937 C.ar    1  UNL1       -0.0029
     24 C          -9.2840  -17.7077   26.5752 C.ar    1  UNL1       -0.0003
     25 C          -6.6417  -19.3415   20.8907 C.3     1  UNL1        0.0886
     26 C          -5.1484  -19.2057   20.8515 C.3     1  UNL1        0.0748
     27 C          -4.4869  -18.5308   19.6866 C.3     1  UNL1        0.0432
     28 C          -2.9935  -18.3951   19.6475 C.ar    1  UNL1       -0.0234
     29 C          -2.3321  -17.7202   18.4826 C.ar    1  UNL1       -0.0045
     30 C          -0.8388  -17.5845   18.4435 C.ar    1  UNL1       -0.0003
     31 C          -0.0069  -18.1237   19.5692 C.ar    1  UNL1       -0.0003
     32 C          -0.6684  -18.7986   20.7341 C.ar    1  UNL1       -0.0032
     33 C          -2.1617  -18.9343   20.7732 C.ar    1  UNL1       -0.0103
     34 C          -2.8232  -19.6092   21.9381 C.3     1  UNL1        0.0953
     35 N          -4.3165  -19.7449   21.9772 N.3     1  UNL1       -0.2934
     36 H          -4.6325  -19.2775   22.8270 H       1  UNL1        0.1236
@<TRIPOS>BOND
     1    19    20   ar
     2    20    21   ar
     3    21    22   ar
     4    22    18    1
     5    18    16    1
     6    16    15    1
     7    15    14    1
     8    14    13    1
     9    13    12    1
    10    12     1    1
    11     1    25    1
    12    26    25    1
    13    26    27    1
    14    27    28    1
    15    28    29   ar
    16    29    30   ar
    17    30    31   ar
    18    31    32   ar
    19    32    33   ar
    20    33    34    1
    21    34    35    1
    22     2     1    1
    23     2     3    1
    24     3     4    1
    25     4     5    1
    26     5     6    1
    27     6     7   ar
    28     7     8   ar
    29     8     9   ar
    30     9    10   ar
    31    10    11   ar
    32    22    23   ar
    33    23    24   ar
    34    24    19   ar
    35    35    26    1
    36    11     2    1
    37    33    28   ar
    38    11     6   ar
    39    16    17    1
    40    35    36    1
@<TRIPOS>MOLECULE
*****
 36 40 0 0 0
SMALL
GASTEIGER

@<TRIPOS>ATOM
      1 N          -5.4741  -16.5853   23.4867 N.3     1  UNL1       -0.2679
      2 C          -5.0035  -17.7089   22.6115 C.3     1  UNL1        0.0978
      3 C          -5.8565  -18.9300   22.4352 C.3     1  UNL1        0.0224
      4 C          -5.3859  -20.0537   21.5600 C.3     1  UNL1        0.0065
      5 C          -4.0622  -19.9563   20.8613 C.3     1  UNL1        0.0277
      6 C          -3.2091  -18.7352   21.0377 C.ar    1  UNL1       -0.0073
      7 C          -1.8853  -18.6377   20.3389 C.ar    1  UNL1       -0.0015
      8 C          -1.0323  -17.4166   20.5153 C.ar    1  UNL1        0.0203
      9 C          -1.5029  -16.2930   21.3905 C.ar    1  UNL1        0.0985
     10 N          -2.8266  -16.3904   22.0892 N.ar    1  UNL1       -0.2471
     11 C          -3.6798  -17.6115   21.9128 C.ar    1  UNL1        0.0695
     12 C          -5.0453  -16.5228   24.9227 C.3     1  UNL1        0.0725
     13 C          -5.6261  -15.4828   25.8343 C.3     1  UNL1        0.0188
     14 C          -6.1572  -15.8775   27.1804 C.3     1  UNL1        0.0185
     15 C          -7.6226  -16.1423   27.3602 C.3     1  UNL1        0.0689
     16 N          -8.4395  -16.6518   26.2099 N.3     1  UNL1       -0.2937
     17 H          -8.9855  -15.8626   25.8641 H       1  UNL1        0.1236
     18 C          -9.3997  -17.7855   26.4159 C.3     1  UNL1        0.0956
     19 C         -10.7212  -20.2797   22.9112 C.ar    1  UNL1       -0.0000
     20 C         -11.7369  -19.7466   23.8778 C.ar    1  UNL1       -0.0003
     21 C         -11.2964  -18.9152   25.0460 C.ar    1  UNL1       -0.0029
     22 C          -9.8403  -18.6169   25.2476 C.ar    1  UNL1       -0.0064
     23 C          -8.8246  -19.1501   24.2811 C.ar    1  UNL1       -0.0029
     24 C          -9.2651  -19.9815   23.1129 C.ar    1  UNL1       -0.0003
     25 C          -6.3736  -15.5240   22.9258 C.3     1  UNL1        0.0886
     26 C          -7.8476  -15.7759   22.8071 C.3     1  UNL1        0.0748
     27 C          -8.3770  -16.6131   21.6808 C.3     1  UNL1        0.0432
     28 C          -9.8510  -16.8650   21.5621 C.ar    1  UNL1       -0.0234
     29 C         -10.3805  -17.7022   20.4357 C.ar    1  UNL1       -0.0045
     30 C         -11.8544  -17.9541   20.3171 C.ar    1  UNL1       -0.0003
     31 C         -12.7988  -17.3687   21.3248 C.ar    1  UNL1       -0.0003
     32 C         -12.2694  -16.5315   22.4511 C.ar    1  UNL1       -0.0032
     33 C         -10.7955  -16.2796   22.5697 C.ar    1  UNL1       -0.0103
     34 C         -10.2659  -15.4424   23.6961 C.3     1  UNL1        0.0953
     35 N          -8.7920  -15.1905   23.8148 N.3     1  UNL1       -0.2934
     36 H          -8.5053  -15.5445   24.7274 H       1  UNL1        0.1236
@<TRIPOS>BOND
     1    19    20   ar
     2    20    21   ar
     3    21    22   ar
     4    22    18    1
     5    18    16    1
     6    16    15    1
     7    15    14    1
     8    14    13    1
     9    13    12    1
    10    12     1    1
    11     1    25    1
    12    26    25    1
    13    26    27    1
    14    27    28    1
    15    28    29   ar
    16    29    30   ar
    17    30    31   ar
    18    31    32   ar
    19    32    33   ar
    20    33    34    1
    21    34    35    1
    22     2     1    1
    23     2     3    1
    24     3     4    1
    25     4     5    1
    26     5     6    1
    27     6     7   ar
    28     7     8   ar
    29     8     9   ar
    30     9    10   ar
    31    10    11   ar
    32    22    23   ar
    33    23    24   ar
    34    24    19   ar
    35    35    26    1
    36    11     2    1
    37    33    28   ar
    38    11     6   ar
    39    16    17    1
    40    35    36    1
@<TRIPOS>MOLECULE
*****
 36 40 0 0 0
SMALL
GASTEIGER

@<TRIPOS>ATOM
      1 N          -6.8133  -18.6993   22.6112 N.3     1  UNL1       -0.2679
      2 C          -8.2257  -19.1964   22.7009 C.3     1  UNL1        0.0978
      3 C          -8.8074  -19.5662   24.0331 C.3     1  UNL1        0.0224
      4 C         -10.2198  -20.0633   24.1229 C.3     1  UNL1        0.0065
      5 C         -11.0504  -20.1908   22.8804 C.3     1  UNL1        0.0277
      6 C         -10.4687  -19.8211   21.5482 C.ar    1  UNL1       -0.0073
      7 C         -11.2993  -19.9485   20.3057 C.ar    1  UNL1       -0.0015
      8 C         -10.7176  -19.5788   18.9734 C.ar    1  UNL1        0.0203
      9 C          -9.3052  -19.0816   18.8837 C.ar    1  UNL1        0.0985
     10 N          -8.4746  -18.9542   20.1261 N.ar    1  UNL1       -0.2471
     11 C          -9.0563  -19.3239   21.4585 C.ar    1  UNL1        0.0695
     12 C          -6.5258  -17.2319   22.7296 C.3     1  UNL1        0.0725
     13 C          -5.8496  -16.6967   23.9570 C.3     1  UNL1        0.0188
     14 C          -6.5394  -15.6707   24.8063 C.3     1  UNL1        0.0185
     15 C          -7.6167  -14.8100   24.2160 C.3     1  UNL1        0.0689
     16 N          -9.0512  -15.0442   24.5867 N.3     1  UNL1       -0.2937
     17 H          -9.1061  -14.9849   25.6035 H       1  UNL1        0.1236
     18 C          -9.7293  -16.3221   24.1903 C.3     1  UNL1        0.0956
     19 C         -12.3071  -16.4518   20.5041 C.ar    1  UNL1       -0.0000
     20 C         -12.8724  -16.8682   21.8297 C.ar    1  UNL1       -0.0003
     21 C         -12.0132  -16.8250   23.0584 C.ar    1  UNL1       -0.0029
     22 C         -10.5886  -16.3654   22.9615 C.ar    1  UNL1       -0.0064
     23 C         -10.0234  -15.9490   21.6360 C.ar    1  UNL1       -0.0029
     24 C         -10.8826  -15.9923   20.4073 C.ar    1  UNL1       -0.0003
     25 C          -5.6885  -19.6695   22.4030 C.3     1  UNL1        0.0886
     26 C          -4.3579  -19.1810   21.9118 C.3     1  UNL1        0.0748
     27 C          -4.1271  -18.9834   20.4429 C.3     1  UNL1        0.0432
     28 C          -2.7966  -18.4950   19.9518 C.ar    1  UNL1       -0.0234
     29 C          -2.5658  -18.2974   18.4829 C.ar    1  UNL1       -0.0045
     30 C          -1.2353  -17.8090   17.9918 C.ar    1  UNL1       -0.0003
     31 C          -0.1356  -17.5182   18.9696 C.ar    1  UNL1       -0.0003
     32 C          -0.3664  -17.7158   20.4385 C.ar    1  UNL1       -0.0032
     33 C          -1.6969  -18.2042   20.9296 C.ar    1  UNL1       -0.0103
     34 C          -1.9277  -18.4018   22.3985 C.3     1  UNL1        0.0953
     35 N          -3.2582  -18.8902   22.8896 N.3     1  UNL1       -0.2934
     36 H          -3.6140  -18.1809   23.5305 H       1  UNL1        0.1236
@<TRIPOS>BOND
     1    19    20   ar
     2    20    21   ar
     3    21    22   ar
     4    22    18    1
     5    18    16    1
     6    16    15    1
     7    15    14    1
     8    14    13    1
     9    13    12    1
    10    12     1    1
    11     1    25    1
    12    26    25    1
    13    26    27    1
    14    27    28    1
    15    28    29   ar
    16    29    30   ar
    17    30    31   ar
    18    31    32   ar
    19    32    33   ar
    20    33    34    1
    21    34    35    1
    22     2     1    1
    23     2     3    1
    24     3     4    1
    25     4     5    1
    26     5     6    1
    27     6     7   ar
    28     7     8   ar
    29     8     9   ar
    30     9    10   ar
    31    10    11   ar
    32    22    23   ar
    33    23    24   ar
    34    24    19   ar
    35    35    26    1
    36    11     2    1
    37    33    28   ar
    38    11     6   ar
    39    16    17    1
    40    35    36    1
