@<TRIPOS>MOLECULE
*****
 31 34 0 0 0
SMALL
GASTEIGER

@<TRIPOS>ATOM
      1 C           6.5143   -2.5826   32.2935 C.3     1  UNL1        0.0243
      2 C           6.6640   -3.8289   31.4722 C.3     1  UNL1        0.1075
      3 C           6.7714   -5.2274   32.0037 C.3     1  UNL1        0.1638
      4 O           6.9064   -6.1583   30.8353 O.3     1  UNL1       -0.3342
      5 C           6.8822   -5.3350   29.5816 C.3     1  UNL1        0.2176
      6 C           6.9774   -5.7103   28.1324 C.3     1  UNL1        0.1572
      7 N           6.9227   -4.6459   27.0770 N.ar    1  UNL1       -0.3156
      8 C           7.0178   -5.0213   25.6277 C.ar    1  UNL1        0.0840
      9 C           6.9631   -3.9569   24.5722 C.ar    1  UNL1        0.1125
     10 C           6.8133   -2.5172   24.9658 C.ar    1  UNL1        0.2364
     11 O           6.7585   -1.4528   23.9104 O.2     1  UNL1       -0.2831
     12 C           6.7181   -2.1419   26.4150 C.ar    1  UNL1        0.1936
     13 O           6.5683   -0.7023   26.8087 O.3     1  UNL1       -0.5017
     14 C           6.7729   -3.2063   27.4706 C.ar    1  UNL1        0.1517
     15 C           6.6777   -2.8310   28.9198 C.2     1  UNL1        0.2698
     16 O           6.5279   -1.3913   29.3134 O.2     1  UNL1       -0.2681
     17 N           6.7324   -3.8954   29.9753 N.am    1  UNL1       -0.2504
     18 H           6.5342   -0.0374   26.1494 H       1  UNL1        0.2924
     19 C           7.0582   -4.3321   23.1231 C.2     1  UNL1        0.2508
     20 O           7.8912   -5.5078   22.7058 O.2     1  UNL1       -0.2700
     21 N           6.3203   -3.5318   22.0911 N.am    1  UNL1       -0.2967
     22 H           5.7736   -2.7602   22.3649 H       1  UNL1        0.1501
     23 C           6.4154   -3.9070   20.6419 C.3     1  UNL1        0.1204
     24 C           5.7211   -3.0752   19.6046 C.ar    1  UNL1        0.0436
     25 C           4.2314   -2.9060   19.6529 C.ar    1  UNL1        0.0051
     26 C           3.5370   -2.0742   18.6157 C.ar    1  UNL1        0.0495
     27 C           4.3323   -1.4115   17.5301 C.ar    1  UNL1        0.2242
     28 F           3.6380   -0.5797   16.4929 F       1  UNL1       -0.1831
     29 N           5.8219   -1.5807   17.4818 N.ar    1  UNL1       -0.1899
     30 C           6.5164   -2.4125   18.5191 C.ar    1  UNL1        0.2217
     31 F           8.0060   -2.5817   18.4709 F       1  UNL1       -0.1834
@<TRIPOS>BOND
     1     2     1    1
     2     2     3    1
     3     3     4    1
     4     4     5    1
     5     5     6    1
     6     6     7    1
     7     7     8   ar
     8     8     9   ar
     9     9    19    1
    10    19    20    2
    11    19    21   am
    12    21    23    1
    13    23    24    1
    14    24    25   ar
    15    25    26   ar
    16    26    27   ar
    17    27    28    1
    18    27    29   ar
    19    29    30   ar
    20    30    31    1
    21     9    10   ar
    22    10    11    2
    23    10    12   ar
    24    12    13    1
    25    12    14   ar
    26    14    15    1
    27    15    16    2
    28    15    17   am
    29    17     2    1
    30    17     5    1
    31    14     7   ar
    32    30    24   ar
    33    21    22    1
    34    13    18    1
@<TRIPOS>MOLECULE
*****
 31 34 0 0 0
SMALL
GASTEIGER

@<TRIPOS>ATOM
      1 C           7.1942   -5.7981   31.4806 C.3     1  UNL1        0.0243
      2 C           6.8335   -4.6253   30.6178 C.3     1  UNL1        0.1075
      3 C           6.3107   -3.3043   31.0990 C.3     1  UNL1        0.1638
      4 O           6.0864   -2.4302   29.9009 O.3     1  UNL1       -0.3342
      5 C           6.4706   -3.2109   28.6791 C.3     1  UNL1        0.2176
      6 C           6.4597   -2.8618   27.2203 C.3     1  UNL1        0.1572
      7 N           6.9105   -3.8693   26.2046 N.ar    1  UNL1       -0.3156
      8 C           6.8995   -3.5201   24.7458 C.ar    1  UNL1        0.0840
      9 C           7.3503   -4.5276   23.7301 C.ar    1  UNL1        0.1125
     10 C           7.8121   -5.8843   24.1731 C.ar    1  UNL1        0.2364
     11 O           8.2629   -6.8919   23.1574 O.2     1  UNL1       -0.2831
     12 C           7.8230   -6.2335   25.6319 C.ar    1  UNL1        0.1936
     13 O           8.2848   -7.5901   26.0750 O.3     1  UNL1       -0.5017
     14 C           7.3722   -5.2259   26.6477 C.ar    1  UNL1        0.1517
     15 C           7.3832   -5.5751   28.1065 C.2     1  UNL1        0.2698
     16 O           7.8449   -6.9318   28.5495 O.2     1  UNL1       -0.2681
     17 N           6.9324   -4.5676   29.1222 N.am    1  UNL1       -0.2504
     18 H           8.5664   -8.2195   25.4405 H       1  UNL1        0.2924
     19 C           7.3394   -4.1785   22.2714 C.2     1  UNL1        0.2508
     20 O           8.6330   -3.9947   21.5344 O.2     1  UNL1       -0.2700
     21 N           6.0349   -4.0132   21.5495 N.am    1  UNL1       -0.2967
     22 H           5.1860   -4.1339   22.0332 H       1  UNL1        0.1501
     23 C           6.0240   -3.6641   20.0908 C.3     1  UNL1        0.1204
     24 C           5.0678   -2.6303   19.5741 C.ar    1  UNL1        0.0436
     25 C           3.8194   -2.3127   20.3427 C.ar    1  UNL1        0.0051
     26 C           2.8632   -1.2789   19.8262 C.ar    1  UNL1        0.0495
     27 C           3.1553   -0.5626   18.5410 C.ar    1  UNL1        0.2242
     28 F           2.1992    0.4711   18.0244 F       1  UNL1       -0.1831
     29 N           4.4037   -0.8802   17.7725 N.ar    1  UNL1       -0.1899
     30 C           5.3600   -1.9140   18.2890 C.ar    1  UNL1        0.2217
     31 F           6.6084   -2.2316   17.5205 F       1  UNL1       -0.1834
@<TRIPOS>BOND
     1     2     1    1
     2     2     3    1
     3     3     4    1
     4     4     5    1
     5     5     6    1
     6     6     7    1
     7     7     8   ar
     8     8     9   ar
     9     9    19    1
    10    19    20    2
    11    19    21   am
    12    21    23    1
    13    23    24    1
    14    24    25   ar
    15    25    26   ar
    16    26    27   ar
    17    27    28    1
    18    27    29   ar
    19    29    30   ar
    20    30    31    1
    21     9    10   ar
    22    10    11    2
    23    10    12   ar
    24    12    13    1
    25    12    14   ar
    26    14    15    1
    27    15    16    2
    28    15    17   am
    29    17     2    1
    30    17     5    1
    31    14     7   ar
    32    30    24   ar
    33    21    22    1
    34    13    18    1
@<TRIPOS>MOLECULE
*****
 31 34 0 0 0
SMALL
GASTEIGER

@<TRIPOS>ATOM
      1 C           2.0290    0.5986   18.1875 C.3     1  UNL1        0.0243
      2 C           3.1890   -0.3522   18.1711 C.3     1  UNL1        0.1075
      3 C           3.8963   -0.8590   16.9493 C.3     1  UNL1        0.1638
      4 O           4.9898   -1.7833   17.3966 O.3     1  UNL1       -0.3342
      5 C           4.9583   -1.8477   18.8949 C.3     1  UNL1        0.2176
      6 C           5.7992   -2.5974   19.8853 C.3     1  UNL1        0.1572
      7 N           5.5271   -2.4627   21.3542 N.ar    1  UNL1       -0.3156
      8 C           6.3681   -3.2125   22.3445 C.ar    1  UNL1        0.0840
      9 C           6.0960   -3.0777   23.8135 C.ar    1  UNL1        0.1125
     10 C           4.9830   -2.1933   24.2922 C.ar    1  UNL1        0.2364
     11 O           4.7109   -2.0586   25.7611 O.2     1  UNL1       -0.2831
     12 C           4.1421   -1.4436   23.3018 C.ar    1  UNL1        0.1936
     13 O           3.0291   -0.5592   23.7804 O.3     1  UNL1       -0.5017
     14 C           4.4142   -1.5783   21.8328 C.ar    1  UNL1        0.1517
     15 C           3.5732   -0.8285   20.8425 C.2     1  UNL1        0.2698
     16 O           2.4602    0.0559   21.3212 O.2     1  UNL1       -0.2681
     17 N           3.8453   -0.9632   19.3735 N.am    1  UNL1       -0.2504
     18 H           2.8591   -0.4751   24.6981 H       1  UNL1        0.2924
     19 C           6.9369   -3.8275   24.8038 C.2     1  UNL1        0.2508
     20 O           8.4300   -3.6844   24.7803 O.2     1  UNL1       -0.2700
     21 N           6.2849   -4.7202   25.8176 N.am    1  UNL1       -0.2967
     22 H           5.3050   -4.8141   25.8331 H       1  UNL1        0.1501
     23 C           7.1258   -5.4699   26.8080 C.3     1  UNL1        0.1204
     24 C           7.0801   -5.1018   28.2614 C.ar    1  UNL1        0.0436
     25 C           6.5068   -3.7814   28.6830 C.ar    1  UNL1        0.0051
     26 C           6.4611   -3.4132   30.1364 C.ar    1  UNL1        0.0495
     27 C           6.9888   -4.3655   31.1683 C.ar    1  UNL1        0.2242
     28 F           6.9431   -3.9974   32.6216 F       1  UNL1       -0.1831
     29 N           7.5621   -5.6859   30.7466 N.ar    1  UNL1       -0.1899
     30 C           7.6078   -6.0541   29.2932 C.ar    1  UNL1        0.2217
     31 F           8.1812   -7.3745   28.8716 F       1  UNL1       -0.1834
@<TRIPOS>BOND
     1     2     1    1
     2     2     3    1
     3     3     4    1
     4     4     5    1
     5     5     6    1
     6     6     7    1
     7     7     8   ar
     8     8     9   ar
     9     9    19    1
    10    19    20    2
    11    19    21   am
    12    21    23    1
    13    23    24    1
    14    24    25   ar
    15    25    26   ar
    16    26    27   ar
    17    27    28    1
    18    27    29   ar
    19    29    30   ar
    20    30    31    1
    21     9    10   ar
    22    10    11    2
    23    10    12   ar
    24    12    13    1
    25    12    14   ar
    26    14    15    1
    27    15    16    2
    28    15    17   am
    29    17     2    1
    30    17     5    1
    31    14     7   ar
    32    30    24   ar
    33    21    22    1
    34    13    18    1
@<TRIPOS>MOLECULE
*****
 31 34 0 0 0
SMALL
GASTEIGER

@<TRIPOS>ATOM
      1 C          -6.0076    4.7719   24.9514 C.3     1  UNL1        0.0243
      2 C          -4.6527    4.2591   25.3405 C.3     1  UNL1        0.1075
      3 C          -4.1779    3.9955   26.7387 C.3     1  UNL1        0.1638
      4 O          -2.7664    3.4934   26.6620 O.3     1  UNL1       -0.3342
      5 C          -2.3689    3.4469   25.2164 C.3     1  UNL1        0.2176
      6 C          -1.0961    3.0347   24.5382 C.3     1  UNL1        0.1572
      7 N          -0.9890    3.0957   23.0433 N.ar    1  UNL1       -0.3156
      8 C           0.2839    2.6835   22.3652 C.ar    1  UNL1        0.0840
      9 C           0.3910    2.7445   20.8702 C.ar    1  UNL1        0.1125
     10 C          -0.7747    3.2178   20.0534 C.ar    1  UNL1        0.2364
     11 O          -0.6676    3.2788   18.5585 O.2     1  UNL1       -0.2831
     12 C          -2.0476    3.6300   20.7316 C.ar    1  UNL1        0.1936
     13 O          -3.2133    4.1032   19.9149 O.3     1  UNL1       -0.5017
     14 C          -2.1547    3.5689   22.2266 C.ar    1  UNL1        0.1517
     15 C          -3.4276    3.9811   22.9048 C.2     1  UNL1        0.2698
     16 O          -4.5934    4.4544   22.0879 O.2     1  UNL1       -0.2681
     17 N          -3.5347    3.9201   24.3997 N.am    1  UNL1       -0.2504
     18 H          -3.1464    4.1413   18.9810 H       1  UNL1        0.2924
     19 C           1.6639    2.3324   20.1921 C.2     1  UNL1        0.2508
     20 O           2.9865    2.7611   20.7550 O.2     1  UNL1       -0.2700
     21 N           1.6141    1.4914   18.9509 N.am    1  UNL1       -0.2967
     22 H           0.7461    1.2100   18.5815 H       1  UNL1        0.1501
     23 C           2.8870    1.0792   18.2728 C.3     1  UNL1        0.1204
     24 C           3.4066   -0.3181   18.4384 C.ar    1  UNL1        0.0436
     25 C           2.8848   -1.1861   19.5449 C.ar    1  UNL1        0.0051
     26 C           3.4043   -2.5834   19.7107 C.ar    1  UNL1        0.0495
     27 C           4.4458   -3.1128   18.7699 C.ar    1  UNL1        0.2242
     28 F           4.9654   -4.5101   18.9356 F       1  UNL1       -0.1831
     29 N           4.9677   -2.2448   17.6634 N.ar    1  UNL1       -0.1899
     30 C           4.4481   -0.8475   17.4977 C.ar    1  UNL1        0.2217
     31 F           4.9699    0.0205   16.3912 F       1  UNL1       -0.1834
@<TRIPOS>BOND
     1     2     1    1
     2     2     3    1
     3     3     4    1
     4     4     5    1
     5     5     6    1
     6     6     7    1
     7     7     8   ar
     8     8     9   ar
     9     9    19    1
    10    19    20    2
    11    19    21   am
    12    21    23    1
    13    23    24    1
    14    24    25   ar
    15    25    26   ar
    16    26    27   ar
    17    27    28    1
    18    27    29   ar
    19    29    30   ar
    20    30    31    1
    21     9    10   ar
    22    10    11    2
    23    10    12   ar
    24    12    13    1
    25    12    14   ar
    26    14    15    1
    27    15    16    2
    28    15    17   am
    29    17     2    1
    30    17     5    1
    31    14     7   ar
    32    30    24   ar
    33    21    22    1
    34    13    18    1
@<TRIPOS>MOLECULE
*****
 31 34 0 0 0
SMALL
GASTEIGER

@<TRIPOS>ATOM
      1 C           5.5138   -2.8863   18.1479 C.3     1  UNL1        0.0243
      2 C           4.4889   -1.7916   18.1808 C.3     1  UNL1        0.1075
      3 C           3.8988   -1.1001   16.9876 C.3     1  UNL1        0.1638
      4 O           2.9194   -0.0773   17.4820 O.3     1  UNL1       -0.3342
      5 C           2.9041   -0.1365   18.9807 C.3     1  UNL1        0.2176
      6 C           2.1323    0.6374   20.0080 C.3     1  UNL1        0.1572
      7 N           2.3305    0.3518   21.4671 N.ar    1  UNL1       -0.3156
      8 C           1.5586    1.1258   22.4944 C.ar    1  UNL1        0.0840
      9 C           1.7568    0.8402   23.9536 C.ar    1  UNL1        0.1125
     10 C           2.7268   -0.2193   24.3855 C.ar    1  UNL1        0.2364
     11 O           2.9250   -0.5049   25.8447 O.2     1  UNL1       -0.2831
     12 C           3.4986   -0.9932   23.3583 C.ar    1  UNL1        0.1936
     13 O           4.4687   -2.0527   23.7901 O.3     1  UNL1       -0.5017
     14 C           3.3004   -0.7076   21.8990 C.ar    1  UNL1        0.1517
     15 C           4.0724   -1.4816   20.8717 C.2     1  UNL1        0.2698
     16 O           5.0424   -2.5411   21.3037 O.2     1  UNL1       -0.2681
     17 N           3.8742   -1.1960   19.4126 N.am    1  UNL1       -0.2504
     18 H           4.5925   -2.2311   24.7016 H       1  UNL1        0.2924
     19 C           0.9849    1.6141   24.9808 C.2     1  UNL1        0.2508
     20 O           1.0988    3.1089   25.0355 O.2     1  UNL1       -0.2700
     21 N           0.0991    0.8934   25.9534 N.am    1  UNL1       -0.2967
     22 H           0.0244   -0.0876   25.9175 H       1  UNL1        0.1501
     23 C          -0.6727    1.6673   26.9807 C.3     1  UNL1        0.1204
     24 C          -0.0935    1.8847   28.3472 C.ar    1  UNL1        0.0436
     25 C           0.3608    3.2533   28.7601 C.ar    1  UNL1        0.0051
     26 C           0.9400    3.4709   30.1265 C.ar    1  UNL1        0.0495
     27 C           1.0649    2.3198   31.0802 C.ar    1  UNL1        0.2242
     28 F           1.6440    2.5373   32.4466 F       1  UNL1       -0.1831
     29 N           0.6105    0.9512   30.6673 N.ar    1  UNL1       -0.1899
     30 C           0.0313    0.7336   29.3008 C.ar    1  UNL1        0.2217
     31 F          -0.4230   -0.6350   28.8878 F       1  UNL1       -0.1834
@<TRIPOS>BOND
     1     2     1    1
     2     2     3    1
     3     3     4    1
     4     4     5    1
     5     5     6    1
     6     6     7    1
     7     7     8   ar
     8     8     9   ar
     9     9    19    1
    10    19    20    2
    11    19    21   am
    12    21    23    1
    13    23    24    1
    14    24    25   ar
    15    25    26   ar
    16    26    27   ar
    17    27    28    1
    18    27    29   ar
    19    29    30   ar
    20    30    31    1
    21     9    10   ar
    22    10    11    2
    23    10    12   ar
    24    12    13    1
    25    12    14   ar
    26    14    15    1
    27    15    16    2
    28    15    17   am
    29    17     2    1
    30    17     5    1
    31    14     7   ar
    32    30    24   ar
    33    21    22    1
    34    13    18    1
@<TRIPOS>MOLECULE
*****
 31 34 0 0 0
SMALL
GASTEIGER

@<TRIPOS>ATOM
      1 C           1.0746    6.3710   35.9264 C.3     1  UNL1        0.0243
      2 C           0.9452    5.4711   34.7333 C.3     1  UNL1        0.1075
      3 C           0.0866    5.7214   33.5292 C.3     1  UNL1        0.1638
      4 O           0.2625    4.5679   32.5865 O.3     1  UNL1       -0.3342
      5 C           1.2299    3.6047   33.2081 C.3     1  UNL1        0.2176
      6 C           1.7811    2.2915   32.7374 C.3     1  UNL1        0.1572
      7 N           2.7542    1.5364   33.5935 N.ar    1  UNL1       -0.3156
      8 C           3.3054    0.2231   33.1228 C.ar    1  UNL1        0.0840
      9 C           4.2785   -0.5319   33.9789 C.ar    1  UNL1        0.1125
     10 C           4.7005    0.0263   35.3057 C.ar    1  UNL1        0.2364
     11 O           5.6736   -0.7288   36.1618 O.2     1  UNL1       -0.2831
     12 C           4.1493    1.3395   35.7764 C.ar    1  UNL1        0.1936
     13 O           4.5712    1.8977   37.1032 O.3     1  UNL1       -0.5017
     14 C           3.1761    2.0946   34.9203 C.ar    1  UNL1        0.1517
     15 C           2.6249    3.4079   35.3910 C.2     1  UNL1        0.2698
     16 O           3.0469    3.9660   36.7179 O.2     1  UNL1       -0.2681
     17 N           1.6518    4.1629   34.5349 N.am    1  UNL1       -0.2504
     18 H           5.1791    1.4261   37.6380 H       1  UNL1        0.2924
     19 C           4.8297   -1.8451   33.5082 C.2     1  UNL1        0.2508
     20 O           3.9813   -3.0806   33.5716 O.2     1  UNL1       -0.2700
     21 N           6.2292   -1.9230   32.9741 N.am    1  UNL1       -0.2967
     22 H           6.7860   -1.1121   32.9324 H       1  UNL1        0.1501
     23 C           6.7804   -3.2362   32.5034 C.3     1  UNL1        0.1204
     24 C           6.6741   -3.6191   31.0569 C.ar    1  UNL1        0.0436
     25 C           6.4315   -2.5648   30.0179 C.ar    1  UNL1        0.0051
     26 C           6.3252   -2.9475   28.5715 C.ar    1  UNL1        0.0495
     27 C           6.4615   -4.3847   28.1640 C.ar    1  UNL1        0.2242
     28 F           6.3552   -4.7675   26.7177 F       1  UNL1       -0.1831
     29 N           6.7041   -5.4390   29.2031 N.ar    1  UNL1       -0.1899
     30 C           6.8105   -5.0562   30.6495 C.ar    1  UNL1        0.2217
     31 F           7.0531   -6.1105   31.6886 F       1  UNL1       -0.1834
@<TRIPOS>BOND
     1     2     1    1
     2     2     3    1
     3     3     4    1
     4     4     5    1
     5     5     6    1
     6     6     7    1
     7     7     8   ar
     8     8     9   ar
     9     9    19    1
    10    19    20    2
    11    19    21   am
    12    21    23    1
    13    23    24    1
    14    24    25   ar
    15    25    26   ar
    16    26    27   ar
    17    27    28    1
    18    27    29   ar
    19    29    30   ar
    20    30    31    1
    21     9    10   ar
    22    10    11    2
    23    10    12   ar
    24    12    13    1
    25    12    14   ar
    26    14    15    1
    27    15    16    2
    28    15    17   am
    29    17     2    1
    30    17     5    1
    31    14     7   ar
    32    30    24   ar
    33    21    22    1
    34    13    18    1
@<TRIPOS>MOLECULE
*****
 31 34 0 0 0
SMALL
GASTEIGER

@<TRIPOS>ATOM
      1 C          -5.1397    4.9814   26.3470 C.3     1  UNL1        0.0243
      2 C          -5.3227    4.5914   24.9102 C.3     1  UNL1        0.1075
      3 C          -6.6248    4.5506   24.1666 C.3     1  UNL1        0.1638
      4 O          -6.3426    4.1076   22.7615 O.3     1  UNL1       -0.3342
      5 C          -4.8661    3.8747   22.6367 C.3     1  UNL1        0.2176
      6 C          -4.0141    3.4290   21.4854 C.3     1  UNL1        0.1572
      7 N          -2.5318    3.2822   21.6621 N.ar    1  UNL1       -0.3156
      8 C          -1.6798    2.8365   20.5107 C.ar    1  UNL1        0.0840
      9 C          -0.1975    2.6897   20.6874 C.ar    1  UNL1        0.1125
     10 C           0.4329    2.9887   22.0153 C.ar    1  UNL1        0.2364
     11 O           1.9152    2.8419   22.1919 O.2     1  UNL1       -0.2831
     12 C          -0.4191    3.4344   23.1666 C.ar    1  UNL1        0.1936
     13 O           0.2112    3.7334   24.4945 O.3     1  UNL1       -0.5017
     14 C          -1.9015    3.5812   22.9899 C.ar    1  UNL1        0.1517
     15 C          -2.7535    4.0269   24.1413 C.2     1  UNL1        0.2698
     16 O          -2.1231    4.3259   25.4692 O.2     1  UNL1       -0.2681
     17 N          -4.2358    4.1737   23.9646 N.am    1  UNL1       -0.2504
     18 H           1.1371    3.6417   24.6048 H       1  UNL1        0.2924
     19 C           0.6545    2.2440   19.5361 C.2     1  UNL1        0.2508
     20 O           0.3478    2.7208   18.1473 O.2     1  UNL1       -0.2700
     21 N           1.8132    1.3215   19.7736 N.am    1  UNL1       -0.2967
     22 H           2.0145    1.0086   20.6851 H       1  UNL1        0.1501
     23 C           2.6652    0.8758   18.6223 C.3     1  UNL1        0.1204
     24 C           3.2580   -0.5021   18.6173 C.ar    1  UNL1        0.0436
     25 C           2.8548   -1.4958   19.6660 C.ar    1  UNL1        0.0051
     26 C           3.4475   -2.8737   19.6611 C.ar    1  UNL1        0.0495
     27 C           4.4436   -3.2579   18.6073 C.ar    1  UNL1        0.2242
     28 F           5.0363   -4.6357   18.6023 F       1  UNL1       -0.1831
     29 N           4.8467   -2.2642   17.5586 N.ar    1  UNL1       -0.1899
     30 C           4.2540   -0.8862   17.5635 C.ar    1  UNL1        0.2217
     31 F           4.6571    0.1075   16.5148 F       1  UNL1       -0.1834
@<TRIPOS>BOND
     1     2     1    1
     2     2     3    1
     3     3     4    1
     4     4     5    1
     5     5     6    1
     6     6     7    1
     7     7     8   ar
     8     8     9   ar
     9     9    19    1
    10    19    20    2
    11    19    21   am
    12    21    23    1
    13    23    24    1
    14    24    25   ar
    15    25    26   ar
    16    26    27   ar
    17    27    28    1
    18    27    29   ar
    19    29    30   ar
    20    30    31    1
    21     9    10   ar
    22    10    11    2
    23    10    12   ar
    24    12    13    1
    25    12    14   ar
    26    14    15    1
    27    15    16    2
    28    15    17   am
    29    17     2    1
    30    17     5    1
    31    14     7   ar
    32    30    24   ar
    33    21    22    1
    34    13    18    1
@<TRIPOS>MOLECULE
*****
 31 34 0 0 0
SMALL
GASTEIGER

@<TRIPOS>ATOM
      1 C           8.3199   -7.8386   27.9106 C.3     1  UNL1        0.0243
      2 C           7.8584   -6.5476   27.3019 C.3     1  UNL1        0.1075
      3 C           7.8596   -6.2120   25.8400 C.3     1  UNL1        0.1638
      4 O           7.3167   -4.8226   25.6828 O.3     1  UNL1       -0.3342
      5 C           6.9800   -4.2994   27.0477 C.3     1  UNL1        0.2176
      6 C           6.4117   -2.9900   27.5086 C.3     1  UNL1        0.1572
      7 N           6.1783   -2.7467   28.9702 N.ar    1  UNL1       -0.3156
      8 C           5.6100   -1.4372   29.4311 C.ar    1  UNL1        0.0840
      9 C           5.3766   -1.1939   30.8927 C.ar    1  UNL1        0.1125
     10 C           5.7113   -2.2600   31.8935 C.ar    1  UNL1        0.2364
     11 O           5.4779   -2.0167   33.3551 O.2     1  UNL1       -0.2831
     12 C           6.2796   -3.5694   31.4325 C.ar    1  UNL1        0.1936
     13 O           6.6144   -4.6355   32.4332 O.3     1  UNL1       -0.5017
     14 C           6.5130   -3.8127   29.9708 C.ar    1  UNL1        0.1517
     15 C           7.0813   -5.1222   29.5099 C.2     1  UNL1        0.2698
     16 O           7.4161   -6.1883   30.5107 O.2     1  UNL1       -0.2681
     17 N           7.3148   -5.3655   28.0483 N.am    1  UNL1       -0.2504
     18 H           6.4685   -4.4835   33.3462 H       1  UNL1        0.2924
     19 C           4.8083    0.1156   31.3537 C.2     1  UNL1        0.2508
     20 O           5.5662    1.3878   31.1146 O.2     1  UNL1       -0.2700
     21 N           3.4822    0.1528   32.0537 N.am    1  UNL1       -0.2967
     22 H           2.9848   -0.6822   32.2106 H       1  UNL1        0.1501
     23 C           2.9139    1.4622   32.5147 C.3     1  UNL1        0.1204
     24 C           2.9429    1.8214   33.9708 C.ar    1  UNL1        0.0436
     25 C           3.8991    1.1280   34.8954 C.ar    1  UNL1        0.0051
     26 C           3.9281    1.4871   36.3514 C.ar    1  UNL1        0.0495
     27 C           3.0008    2.5396   36.8830 C.ar    1  UNL1        0.2242
     28 F           3.0298    2.8987   38.3390 F       1  UNL1       -0.1831
     29 N           2.0446    3.2330   35.9583 N.ar    1  UNL1       -0.1899
     30 C           2.0156    2.8739   34.5022 C.ar    1  UNL1        0.2217
     31 F           1.0595    3.5672   33.5776 F       1  UNL1       -0.1834
@<TRIPOS>BOND
     1     2     1    1
     2     2     3    1
     3     3     4    1
     4     4     5    1
     5     5     6    1
     6     6     7    1
     7     7     8   ar
     8     8     9   ar
     9     9    19    1
    10    19    20    2
    11    19    21   am
    12    21    23    1
    13    23    24    1
    14    24    25   ar
    15    25    26   ar
    16    26    27   ar
    17    27    28    1
    18    27    29   ar
    19    29    30   ar
    20    30    31    1
    21     9    10   ar
    22    10    11    2
    23    10    12   ar
    24    12    13    1
    25    12    14   ar
    26    14    15    1
    27    15    16    2
    28    15    17   am
    29    17     2    1
    30    17     5    1
    31    14     7   ar
    32    30    24   ar
    33    21    22    1
    34    13    18    1
@<TRIPOS>MOLECULE
*****
 31 34 0 0 0
SMALL
GASTEIGER

@<TRIPOS>ATOM
      1 C           5.4583   -3.1246   18.3801 C.3     1  UNL1        0.0243
      2 C           4.6235   -1.9163   18.6852 C.3     1  UNL1        0.1075
      3 C           4.0368   -0.9727   17.6777 C.3     1  UNL1        0.1638
      4 O           3.2795    0.0873   18.4213 O.3     1  UNL1       -0.3342
      5 C           3.3983   -0.2012   19.8885 C.3     1  UNL1        0.2176
      6 C           2.8574    0.5037   21.0970 C.3     1  UNL1        0.1572
      7 N           3.1471   -0.0298   22.4687 N.ar    1  UNL1       -0.3156
      8 C           2.6062    0.6752   23.6772 C.ar    1  UNL1        0.0840
      9 C           2.8959    0.1417   25.0489 C.ar    1  UNL1        0.1125
     10 C           3.7265   -1.0966   25.2121 C.ar    1  UNL1        0.2364
     11 O           4.0163   -1.6301   26.5837 O.2     1  UNL1       -0.2831
     12 C           4.2674   -1.8015   24.0036 C.ar    1  UNL1        0.1936
     13 O           5.0981   -3.0398   24.1667 O.3     1  UNL1       -0.5017
     14 C           3.9777   -1.2680   22.6318 C.ar    1  UNL1        0.1517
     15 C           4.5186   -1.9730   21.4232 C.2     1  UNL1        0.2698
     16 O           5.3493   -3.2113   21.5865 O.2     1  UNL1       -0.2681
     17 N           4.2289   -1.4395   20.0516 N.am    1  UNL1       -0.2504
     18 H           5.2791   -3.3731   25.0235 H       1  UNL1        0.2924
     19 C           2.3550    0.8466   26.2574 C.2     1  UNL1        0.2508
     20 O           2.7003    2.2855   26.5036 O.2     1  UNL1       -0.2700
     21 N           1.4689    0.1127   27.2198 N.am    1  UNL1       -0.2967
     22 H           1.2423   -0.8317   27.0582 H       1  UNL1        0.1501
     23 C           0.9280    0.8175   28.4283 C.3     1  UNL1        0.1204
     24 C           1.6179    0.6728   29.7524 C.ar    1  UNL1        0.0436
     25 C           2.5725   -0.4615   29.9807 C.ar    1  UNL1        0.0051
     26 C           3.2624   -0.6063   31.3046 C.ar    1  UNL1        0.0495
     27 C           2.9977    0.3833   32.4005 C.ar    1  UNL1        0.2242
     28 F           3.6876    0.2386   33.7244 F       1  UNL1       -0.1831
     29 N           2.0431    1.5176   32.1722 N.ar    1  UNL1       -0.1899
     30 C           1.3532    1.6624   30.8481 C.ar    1  UNL1        0.2217
     31 F           0.3986    2.7967   30.6198 F       1  UNL1       -0.1834
@<TRIPOS>BOND
     1     2     1    1
     2     2     3    1
     3     3     4    1
     4     4     5    1
     5     5     6    1
     6     6     7    1
     7     7     8   ar
     8     8     9   ar
     9     9    19    1
    10    19    20    2
    11    19    21   am
    12    21    23    1
    13    23    24    1
    14    24    25   ar
    15    25    26   ar
    16    26    27   ar
    17    27    28    1
    18    27    29   ar
    19    29    30   ar
    20    30    31    1
    21     9    10   ar
    22    10    11    2
    23    10    12   ar
    24    12    13    1
    25    12    14   ar
    26    14    15    1
    27    15    16    2
    28    15    17   am
    29    17     2    1
    30    17     5    1
    31    14     7   ar
    32    30    24   ar
    33    21    22    1
    34    13    18    1
