@<TRIPOS>MOLECULE
*****
 33 36 0 0 0
SMALL
GASTEIGER

@<TRIPOS>ATOM
      1 C          -6.0461  -18.7127   21.4634 C.ar    1  UNL1        0.0171
      2 C          -7.1511  -19.5563   20.9001 C.ar    1  UNL1        0.0671
      3 N          -8.4346  -19.1342   21.5516 N.ar    1  UNL1       -0.3243
      4 C          -8.1229  -18.0296   22.5174 C.ar    1  UNL1        0.0602
      5 C          -8.9925  -17.2275   23.4395 C.ar    1  UNL1        0.0203
      6 C          -8.3859  -16.1648   24.3070 C.ar    1  UNL1        0.0387
      7 C          -6.9097  -15.9043   24.2526 C.ar    1  UNL1        0.1469
      8 C          -6.0401  -16.7064   23.3305 C.ar    1  UNL1        0.0387
      9 C          -6.6467  -17.7691   22.4629 C.ar    1  UNL1        0.0200
     10 C          -1.6934  -18.9675   20.3502 C.ar    1  UNL1        0.2250
     11 C          -2.7156  -18.6256   19.3070 C.ar    1  UNL1        0.0577
     12 C          -4.1665  -18.5407   19.6781 C.ar    1  UNL1        0.0064
     13 C          -4.5952  -18.7976   21.0923 C.ar    1  UNL1        0.0206
     14 C          -3.5730  -19.1395   22.1355 C.ar    1  UNL1        0.1021
     15 N          -2.1221  -19.2244   21.7644 N.ar    1  UNL1       -0.2101
     16 C           0.6001  -17.8117   19.9579 C.3     1  UNL1        0.2542
     17 O          -0.2425  -19.0524   19.9791 O.3     1  UNL1       -0.4561
     18 C          -6.9992  -20.6330   19.8669 C.3     1  UNL1        0.1809
     19 O          -6.0081  -21.7392   20.0764 O.3     1  UNL1       -0.3760
     20 H          -5.1093  -21.3746   20.0642 H       1  UNL1        0.2110
     21 C          -9.7916  -19.7146   21.2841 C.3     1  UNL1        0.1333
     22 C         -11.0073  -19.1003   21.9123 C.ar    1  UNL1        0.0110
     23 C         -11.8858  -18.1869   21.1097 C.ar    1  UNL1       -0.0016
     24 C         -13.1015  -17.5725   21.7379 C.ar    1  UNL1       -0.0002
     25 C         -13.4387  -17.8715   23.1686 C.ar    1  UNL1        0.0008
     26 C         -12.5603  -18.7848   23.9711 C.ar    1  UNL1        0.0111
     27 C         -11.3446  -19.3992   23.3430 C.ar    1  UNL1        0.0555
     28 CL        -10.4662  -20.3126   24.1455 Cl      1  UNL1       -0.0825
     29 O          -6.3032  -14.8415   25.1202 O.3     1  UNL1       -0.4045
     30 C          -6.2729  -15.0162   26.6096 C.3     1  UNL1        0.5753
     31 F          -6.2426  -15.1909   28.0992 F       1  UNL1       -0.1328
     32 F          -7.7439  -14.7298   26.6732 F       1  UNL1       -0.1328
     33 F          -4.8018  -15.3026   26.5461 F       1  UNL1       -0.1328
@<TRIPOS>BOND
     1    16    17    1
     2    17    10    1
     3    10    11   ar
     4    11    12   ar
     5    12    13   ar
     6    13     1    1
     7     1     2   ar
     8     2    18    1
     9    18    19    1
    10     2     3   ar
    11     3    21    1
    12    21    22    1
    13    22    23   ar
    14    23    24   ar
    15    24    25   ar
    16    25    26   ar
    17    26    27   ar
    18    27    28    1
    19     3     4   ar
    20     4     5   ar
    21     5     6   ar
    22     6     7   ar
    23     7    29    1
    24    29    30    1
    25    30    31    1
    26    30    32    1
    27    30    33    1
    28     7     8   ar
    29     8     9   ar
    30    13    14   ar
    31    14    15   ar
    32    15    10   ar
    33     9     1   ar
    34    27    22   ar
    35     9     4   ar
    36    19    20    1
@<TRIPOS>MOLECULE
*****
 33 36 0 0 0
SMALL
GASTEIGER

@<TRIPOS>ATOM
      1 C          -7.7973  -18.4213   21.9862 C.ar    1  UNL1        0.0171
      2 C          -7.1468  -19.2318   20.9045 C.ar    1  UNL1        0.0671
      3 N          -5.6607  -19.0878   21.0476 N.ar    1  UNL1       -0.3243
      4 C          -5.3926  -18.1884   22.2178 C.ar    1  UNL1        0.0602
      5 C          -4.1167  -17.6913   22.8300 C.ar    1  UNL1        0.0203
      6 C          -4.1614  -16.7823   24.0224 C.ar    1  UNL1        0.0387
      7 C          -5.4819  -16.3704   24.6024 C.ar    1  UNL1        0.1469
      8 C          -6.7578  -16.8675   23.9902 C.ar    1  UNL1        0.0387
      9 C          -6.7132  -17.7765   22.7978 C.ar    1  UNL1        0.0200
     10 C         -12.2242  -17.9986   22.6753 C.ar    1  UNL1        0.2250
     11 C         -11.4787  -19.1540   23.2748 C.ar    1  UNL1        0.0577
     12 C         -10.0031  -19.2949   23.0450 C.ar    1  UNL1        0.0064
     13 C          -9.2729  -18.2805   22.2159 C.ar    1  UNL1        0.0206
     14 C         -10.0184  -17.1250   21.6164 C.ar    1  UNL1        0.1021
     15 N         -11.4940  -16.9841   21.8461 N.ar    1  UNL1       -0.2101
     16 C         -14.2803  -18.1552   24.2558 C.3     1  UNL1        0.2542
     17 O         -13.6998  -17.8577   22.9050 O.3     1  UNL1       -0.4561
     18 C          -7.8577  -20.0436   19.8626 C.3     1  UNL1        0.1809
     19 O          -8.6513  -19.3581   18.7901 O.3     1  UNL1       -0.3760
     20 H          -9.4107  -18.9054   19.1892 H       1  UNL1        0.2110
     21 C          -4.6244  -19.7304   20.1740 C.3     1  UNL1        0.1333
     22 C          -3.3717  -18.9839   19.8231 C.ar    1  UNL1        0.0110
     23 C          -3.3789  -17.9949   18.6952 C.ar    1  UNL1       -0.0016
     24 C          -2.1262  -17.2484   18.3442 C.ar    1  UNL1       -0.0002
     25 C          -0.8661  -17.4907   19.1210 C.ar    1  UNL1        0.0008
     26 C          -0.8588  -18.4797   20.2488 C.ar    1  UNL1        0.0111
     27 C          -2.1115  -19.2262   20.5999 C.ar    1  UNL1        0.0555
     28 CL         -2.1042  -20.2151   21.7277 Cl      1  UNL1       -0.0825
     29 O          -5.5265  -15.4613   25.7948 O.3     1  UNL1       -0.4045
     30 C          -6.7865  -15.3413   26.5997 C.3     1  UNL1        0.5753
     31 F          -8.0467  -15.2213   27.4046 F       1  UNL1       -0.1328
     32 F          -7.3870  -14.4771   25.5308 F       1  UNL1       -0.1328
     33 F          -6.1861  -16.2056   27.6685 F       1  UNL1       -0.1328
@<TRIPOS>BOND
     1    16    17    1
     2    17    10    1
     3    10    11   ar
     4    11    12   ar
     5    12    13   ar
     6    13     1    1
     7     1     2   ar
     8     2    18    1
     9    18    19    1
    10     2     3   ar
    11     3    21    1
    12    21    22    1
    13    22    23   ar
    14    23    24   ar
    15    24    25   ar
    16    25    26   ar
    17    26    27   ar
    18    27    28    1
    19     3     4   ar
    20     4     5   ar
    21     5     6   ar
    22     6     7   ar
    23     7    29    1
    24    29    30    1
    25    30    31    1
    26    30    32    1
    27    30    33    1
    28     7     8   ar
    29     8     9   ar
    30    13    14   ar
    31    14    15   ar
    32    15    10   ar
    33     9     1   ar
    34    27    22   ar
    35     9     4   ar
    36    19    20    1
@<TRIPOS>MOLECULE
*****
 33 36 0 0 0
SMALL
GASTEIGER

@<TRIPOS>ATOM
      1 C          -7.1360  -17.8808   22.6005 C.ar    1  UNL1        0.0171
      2 C          -5.7849  -18.4141   22.2264 C.ar    1  UNL1        0.0671
      3 N          -5.9190  -19.1422   20.9218 N.ar    1  UNL1       -0.3243
      4 C          -7.3530  -19.0588   20.4897 C.ar    1  UNL1        0.0602
      5 C          -8.0710  -19.5921   19.2855 C.ar    1  UNL1        0.0203
      6 C          -9.5412  -19.3458   19.1189 C.ar    1  UNL1        0.0387
      7 C         -10.2933  -18.5662   20.1564 C.ar    1  UNL1        0.1469
      8 C          -9.5753  -18.0329   21.3606 C.ar    1  UNL1        0.0387
      9 C          -8.1051  -18.2793   21.5272 C.ar    1  UNL1        0.0200
     10 C          -8.1109  -15.5028   26.2945 C.ar    1  UNL1        0.2250
     11 C          -8.9637  -16.6755   25.9106 C.ar    1  UNL1        0.0577
     12 C          -8.6388  -17.4682   24.6793 C.ar    1  UNL1        0.0064
     13 C          -7.4610  -17.0882   23.8318 C.ar    1  UNL1        0.0206
     14 C          -6.6080  -15.9154   24.2157 C.ar    1  UNL1        0.1021
     15 N          -6.9330  -15.1228   25.4470 N.ar    1  UNL1       -0.2101
     16 C          -7.3389  -14.0350   28.2944 C.3     1  UNL1        0.2542
     17 O          -8.4359  -14.7102   27.5258 O.3     1  UNL1       -0.4561
     18 C          -4.5215  -18.2484   23.0178 C.3     1  UNL1        0.1809
     19 O          -3.6311  -17.0669   22.7706 O.3     1  UNL1       -0.3760
     20 H          -3.2567  -17.1254   21.8777 H       1  UNL1        0.2110
     21 C          -4.8132  -19.8324   20.1796 C.3     1  UNL1        0.1333
     22 C          -3.5766  -19.0731   19.7999 C.ar    1  UNL1        0.0110
     23 C          -3.6246  -18.0707   18.6850 C.ar    1  UNL1       -0.0016
     24 C          -2.3881  -17.3114   18.3052 C.ar    1  UNL1       -0.0002
     25 C          -1.1034  -17.5544   19.0405 C.ar    1  UNL1        0.0008
     26 C          -1.0553  -18.5567   20.1554 C.ar    1  UNL1        0.0111
     27 C          -2.2919  -19.3161   20.5351 C.ar    1  UNL1        0.0555
     28 CL         -2.2438  -20.3184   21.6500 Cl      1  UNL1       -0.0825
     29 O         -11.7636  -18.3199   19.9898 O.3     1  UNL1       -0.4045
     30 C         -12.4180  -17.1748   20.7043 C.3     1  UNL1        0.5753
     31 F         -13.0724  -16.0297   21.4188 F       1  UNL1       -0.1328
     32 F         -11.9030  -16.2290   19.6602 F       1  UNL1       -0.1328
     33 F         -12.9330  -18.1207   21.7484 F       1  UNL1       -0.1328
@<TRIPOS>BOND
     1    16    17    1
     2    17    10    1
     3    10    11   ar
     4    11    12   ar
     5    12    13   ar
     6    13     1    1
     7     1     2   ar
     8     2    18    1
     9    18    19    1
    10     2     3   ar
    11     3    21    1
    12    21    22    1
    13    22    23   ar
    14    23    24   ar
    15    24    25   ar
    16    25    26   ar
    17    26    27   ar
    18    27    28    1
    19     3     4   ar
    20     4     5   ar
    21     5     6   ar
    22     6     7   ar
    23     7    29    1
    24    29    30    1
    25    30    31    1
    26    30    32    1
    27    30    33    1
    28     7     8   ar
    29     8     9   ar
    30    13    14   ar
    31    14    15   ar
    32    15    10   ar
    33     9     1   ar
    34    27    22   ar
    35     9     4   ar
    36    19    20    1
@<TRIPOS>MOLECULE
*****
 33 36 0 0 0
SMALL
GASTEIGER

@<TRIPOS>ATOM
      1 C           4.7826   -0.0881   33.9804 C.ar    1  UNL1        0.0171
      2 C           4.9623    0.4668   35.3623 C.ar    1  UNL1        0.0671
      3 N           3.9607    1.5668   35.5538 N.ar    1  UNL1       -0.3243
      4 C           3.1619    1.6917   34.2904 C.ar    1  UNL1        0.0602
      5 C           2.0377    2.6046   33.8997 C.ar    1  UNL1        0.0203
      6 C           1.4214    2.4946   32.5366 C.ar    1  UNL1        0.0387
      7 C           1.9294    1.4718   31.5642 C.ar    1  UNL1        0.1469
      8 C           3.0537    0.5589   31.9548 C.ar    1  UNL1        0.0387
      9 C           3.6699    0.6688   33.3179 C.ar    1  UNL1        0.0200
     10 C           7.1635   -3.4363   32.1443 C.ar    1  UNL1        0.2250
     11 C           7.8082   -2.1044   32.3895 C.ar    1  UNL1        0.0577
     12 C           7.0145   -0.9883   33.0016 C.ar    1  UNL1        0.0064
     13 C           5.5763   -1.2042   33.3683 C.ar    1  UNL1        0.0206
     14 C           4.9315   -2.5362   33.1230 C.ar    1  UNL1        0.1021
     15 N           5.7252   -3.6523   32.5110 N.ar    1  UNL1       -0.2101
     16 C           7.2560   -5.7657   30.9972 C.3     1  UNL1        0.2542
     17 O           7.9572   -4.5524   31.5322 O.3     1  UNL1       -0.4561
     18 C           5.9672    0.0032   36.3748 C.3     1  UNL1        0.1809
     19 O           7.0163    0.9498   36.8782 O.3     1  UNL1       -0.3760
     20 H           7.6145    1.1854   36.1519 H       1  UNL1        0.2110
     21 C           3.7880    2.3964   36.7916 C.3     1  UNL1        0.1333
     22 C           2.6817    2.0846   37.7552 C.ar    1  UNL1        0.0110
     23 C           2.6844    0.7857   38.5056 C.ar    1  UNL1       -0.0016
     24 C           1.5781    0.4738   39.4693 C.ar    1  UNL1       -0.0002
     25 C           0.4688    1.4609   39.6826 C.ar    1  UNL1        0.0008
     26 C           0.4661    2.7597   38.9322 C.ar    1  UNL1        0.0111
     27 C           1.5725    3.0715   37.9686 C.ar    1  UNL1        0.0555
     28 CL          1.5696    4.3704   37.2183 Cl      1  UNL1       -0.0825
     29 O           1.3131    1.3619   30.2010 O.3     1  UNL1       -0.4045
     30 C           1.8282    0.3463   29.2247 C.3     1  UNL1        0.5753
     31 F           2.3432   -0.6694   28.2483 F       1  UNL1       -0.1328
     32 F           0.7015   -0.5747   29.5884 F       1  UNL1       -0.1328
     33 F           2.9548    1.2673   28.8610 F       1  UNL1       -0.1328
@<TRIPOS>BOND
     1    16    17    1
     2    17    10    1
     3    10    11   ar
     4    11    12   ar
     5    12    13   ar
     6    13     1    1
     7     1     2   ar
     8     2    18    1
     9    18    19    1
    10     2     3   ar
    11     3    21    1
    12    21    22    1
    13    22    23   ar
    14    23    24   ar
    15    24    25   ar
    16    25    26   ar
    17    26    27   ar
    18    27    28    1
    19     3     4   ar
    20     4     5   ar
    21     5     6   ar
    22     6     7   ar
    23     7    29    1
    24    29    30    1
    25    30    31    1
    26    30    32    1
    27    30    33    1
    28     7     8   ar
    29     8     9   ar
    30    13    14   ar
    31    14    15   ar
    32    15    10   ar
    33     9     1   ar
    34    27    22   ar
    35     9     4   ar
    36    19    20    1
@<TRIPOS>MOLECULE
*****
 33 36 0 0 0
SMALL
GASTEIGER

@<TRIPOS>ATOM
      1 C           0.1219    2.0165   22.4755 C.ar    1  UNL1        0.0171
      2 C          -0.6421    3.1026   21.7780 C.ar    1  UNL1        0.0671
      3 N          -1.4697    3.8192   22.8035 N.ar    1  UNL1       -0.3243
      4 C          -1.2171    3.1759   24.1349 C.ar    1  UNL1        0.0602
      5 C          -1.7557    3.4607   25.5055 C.ar    1  UNL1        0.0203
      6 C          -1.3106    2.6314   26.6734 C.ar    1  UNL1        0.0387
      7 C          -0.3269    1.5173   26.4707 C.ar    1  UNL1        0.1469
      8 C           0.2117    1.2325   25.1001 C.ar    1  UNL1        0.0387
      9 C          -0.2334    2.0618   23.9321 C.ar    1  UNL1        0.0200
     10 C           2.9788   -0.8708   20.5384 C.ar    1  UNL1        0.2250
     11 C           1.5242   -0.8957   20.1728 C.ar    1  UNL1        0.0577
     12 C           0.5720    0.0668   20.8185 C.ar    1  UNL1        0.0064
     13 C           1.0742    1.0541   21.8298 C.ar    1  UNL1        0.0206
     14 C           2.5288    1.0789   22.1955 C.ar    1  UNL1        0.1021
     15 N           3.4810    0.1165   21.5498 N.ar    1  UNL1       -0.2101
     16 C           3.4502   -3.1857   19.4573 C.3     1  UNL1        0.2542
     17 O           3.9310   -1.8333   19.8927 O.3     1  UNL1       -0.4561
     18 C          -0.5882    3.4170   20.3123 C.3     1  UNL1        0.1809
     19 O           0.7039    3.8495   19.6851 O.3     1  UNL1       -0.3760
     20 H           0.9659    4.7110   20.0456 H       1  UNL1        0.2110
     21 C          -2.3886    4.9759   22.5434 C.3     1  UNL1        0.1333
     22 C          -3.8313    4.8928   22.9451 C.ar    1  UNL1        0.0110
     23 C          -4.3337    5.6964   24.1079 C.ar    1  UNL1       -0.0016
     24 C          -5.7765    5.6133   24.5096 C.ar    1  UNL1       -0.0002
     25 C          -6.7170    4.7265   23.7486 C.ar    1  UNL1        0.0008
     26 C          -6.2147    3.9229   22.5859 C.ar    1  UNL1        0.0111
     27 C          -4.7719    4.0060   22.1842 C.ar    1  UNL1        0.0555
     28 CL         -4.2697    3.2024   21.0214 Cl      1  UNL1       -0.0825
     29 O           0.1182    0.6880   27.6387 O.3     1  UNL1       -0.4045
     30 C          -0.8173    0.4447   28.7857 C.3     1  UNL1        0.5753
     31 F          -1.7529    0.2014   29.9327 F       1  UNL1       -0.1328
     32 F          -0.2468    1.6321   29.5030 F       1  UNL1       -0.1328
     33 F          -1.3879   -0.7427   28.0684 F       1  UNL1       -0.1328
@<TRIPOS>BOND
     1    16    17    1
     2    17    10    1
     3    10    11   ar
     4    11    12   ar
     5    12    13   ar
     6    13     1    1
     7     1     2   ar
     8     2    18    1
     9    18    19    1
    10     2     3   ar
    11     3    21    1
    12    21    22    1
    13    22    23   ar
    14    23    24   ar
    15    24    25   ar
    16    25    26   ar
    17    26    27   ar
    18    27    28    1
    19     3     4   ar
    20     4     5   ar
    21     5     6   ar
    22     6     7   ar
    23     7    29    1
    24    29    30    1
    25    30    31    1
    26    30    32    1
    27    30    33    1
    28     7     8   ar
    29     8     9   ar
    30    13    14   ar
    31    14    15   ar
    32    15    10   ar
    33     9     1   ar
    34    27    22   ar
    35     9     4   ar
    36    19    20    1
@<TRIPOS>MOLECULE
*****
 33 36 0 0 0
SMALL
GASTEIGER

@<TRIPOS>ATOM
      1 C          -1.9570    3.6003   23.8744 C.ar    1  UNL1        0.0171
      2 C          -1.3295    3.6938   22.5152 C.ar    1  UNL1        0.0671
      3 N           0.0046    3.0107   22.5726 N.ar    1  UNL1       -0.3243
      4 C           0.2017    2.4949   23.9673 C.ar    1  UNL1        0.0602
      5 C           1.3285    1.7405   24.6086 C.ar    1  UNL1        0.0203
      6 C           1.2429    1.3506   26.0544 C.ar    1  UNL1        0.0387
      7 C           0.0305    1.7150   26.8590 C.ar    1  UNL1        0.1469
      8 C          -1.0963    2.4693   26.2177 C.ar    1  UNL1        0.0387
      9 C          -1.0107    2.8593   24.7719 C.ar    1  UNL1        0.0200
     10 C          -5.9734    5.2526   25.0530 C.ar    1  UNL1        0.2250
     11 C          -5.8807    3.9152   24.3801 C.ar    1  UNL1        0.0577
     12 C          -4.5419    3.3645   23.9872 C.ar    1  UNL1        0.0064
     13 C          -3.2958    4.1510   24.2673 C.ar    1  UNL1        0.0206
     14 C          -3.3885    5.4884   24.9403 C.ar    1  UNL1        0.1021
     15 N          -4.7273    6.0392   25.3331 N.ar    1  UNL1       -0.2101
     16 C          -7.4919    6.4535   26.7856 C.3     1  UNL1        0.2542
     17 O          -7.3122    5.8033   25.4459 O.3     1  UNL1       -0.4561
     18 C          -1.9307    4.3545   21.3101 C.3     1  UNL1        0.1809
     19 O          -2.8887    3.5972   20.4392 O.3     1  UNL1       -0.3760
     20 H          -2.4227    2.8644   20.0070 H       1  UNL1        0.2110
     21 C           0.9719    2.8683   21.4350 C.3     1  UNL1        0.1333
     22 C           1.5229    1.5182   21.0835 C.ar    1  UNL1        0.0110
     23 C           0.6210    0.4667   20.5080 C.ar    1  UNL1       -0.0016
     24 C           1.1719   -0.8834   20.1564 C.ar    1  UNL1       -0.0002
     25 C           2.6248   -1.1821   20.3804 C.ar    1  UNL1        0.0008
     26 C           3.5266   -0.1307   20.9559 C.ar    1  UNL1        0.0111
     27 C           2.9757    1.2194   21.3075 C.ar    1  UNL1        0.0555
     28 CL          3.8775    2.2707   21.8830 Cl      1  UNL1       -0.0825
     29 O          -0.0551    1.3250   28.3049 O.3     1  UNL1       -0.4045
     30 C          -0.7288    0.0436   28.6975 C.3     1  UNL1        0.5753
     31 F          -1.4027   -1.2378   29.0901 F       1  UNL1       -0.1328
     32 F          -2.0467    0.7569   28.7636 F       1  UNL1       -0.1328
     33 F           0.5891   -0.6696   28.6314 F       1  UNL1       -0.1328
@<TRIPOS>BOND
     1    16    17    1
     2    17    10    1
     3    10    11   ar
     4    11    12   ar
     5    12    13   ar
     6    13     1    1
     7     1     2   ar
     8     2    18    1
     9    18    19    1
    10     2     3   ar
    11     3    21    1
    12    21    22    1
    13    22    23   ar
    14    23    24   ar
    15    24    25   ar
    16    25    26   ar
    17    26    27   ar
    18    27    28    1
    19     3     4   ar
    20     4     5   ar
    21     5     6   ar
    22     6     7   ar
    23     7    29    1
    24    29    30    1
    25    30    31    1
    26    30    32    1
    27    30    33    1
    28     7     8   ar
    29     8     9   ar
    30    13    14   ar
    31    14    15   ar
    32    15    10   ar
    33     9     1   ar
    34    27    22   ar
    35     9     4   ar
    36    19    20    1
@<TRIPOS>MOLECULE
*****
 33 36 0 0 0
SMALL
GASTEIGER

@<TRIPOS>ATOM
      1 C           1.0046    1.5881   21.1692 C.ar    1  UNL1        0.0171
      2 C           0.3233    2.5166   20.2082 C.ar    1  UNL1        0.0671
      3 N          -0.6559    3.3481   20.9825 N.ar    1  UNL1       -0.3243
      4 C          -0.5798    2.9336   22.4221 C.ar    1  UNL1        0.0602
      5 C          -1.3124    3.4061   23.6427 C.ar    1  UNL1        0.0203
      6 C          -1.0187    2.7907   24.9787 C.ar    1  UNL1        0.0387
      7 C           0.0076    1.7029   25.0941 C.ar    1  UNL1        0.1469
      8 C           0.7402    1.2304   23.8735 C.ar    1  UNL1        0.0387
      9 C           0.4465    1.8458   22.5375 C.ar    1  UNL1        0.0200
     10 C           4.1679   -1.4392   20.1302 C.ar    1  UNL1        0.2250
     11 C           2.7168   -1.7980   20.0059 C.ar    1  UNL1        0.0577
     12 C           1.6624   -0.7889   20.3522 C.ar    1  UNL1        0.0064
     13 C           2.0590    0.5790   20.8229 C.ar    1  UNL1        0.0206
     14 C           3.5103    0.9378   20.9472 C.ar    1  UNL1        0.1021
     15 N           4.5647   -0.0714   20.6009 N.ar    1  UNL1       -0.2101
     16 C           5.1171   -3.8515   20.3033 C.3     1  UNL1        0.2542
     17 O           5.2224   -2.4483   19.7838 O.3     1  UNL1       -0.4561
     18 C           0.5767    2.5990   18.7320 C.3     1  UNL1        0.1809
     19 O           0.4206    1.3780   17.8749 O.3     1  UNL1       -0.3760
     20 H           1.0937    0.7236   18.1188 H       1  UNL1        0.2110
     21 C          -1.5537    4.4082   20.4166 C.3     1  UNL1        0.1333
     22 C          -2.9324    4.0508   19.9462 C.ar    1  UNL1        0.0110
     23 C          -3.9784    3.6335   20.9372 C.ar    1  UNL1       -0.0016
     24 C          -5.3571    3.2760   20.4669 C.ar    1  UNL1       -0.0002
     25 C          -5.6900    3.3359   19.0054 C.ar    1  UNL1        0.0008
     26 C          -4.6441    3.7531   18.0145 C.ar    1  UNL1        0.0111
     27 C          -3.2654    4.1106   18.4848 C.ar    1  UNL1        0.0555
     28 CL         -2.2196    4.5278   17.4938 Cl      1  UNL1       -0.0825
     29 O           0.3013    1.0876   26.4303 O.3     1  UNL1       -0.4045
     30 C           0.1821    1.9116   27.6780 C.3     1  UNL1        0.5753
     31 F           0.0628    2.7356   28.9257 F       1  UNL1       -0.1328
     32 F          -1.1409    1.2702   27.9752 F       1  UNL1       -0.1328
     33 F           1.5050    2.5530   27.3808 F       1  UNL1       -0.1328
@<TRIPOS>BOND
     1    16    17    1
     2    17    10    1
     3    10    11   ar
     4    11    12   ar
     5    12    13   ar
     6    13     1    1
     7     1     2   ar
     8     2    18    1
     9    18    19    1
    10     2     3   ar
    11     3    21    1
    12    21    22    1
    13    22    23   ar
    14    23    24   ar
    15    24    25   ar
    16    25    26   ar
    17    26    27   ar
    18    27    28    1
    19     3     4   ar
    20     4     5   ar
    21     5     6   ar
    22     6     7   ar
    23     7    29    1
    24    29    30    1
    25    30    31    1
    26    30    32    1
    27    30    33    1
    28     7     8   ar
    29     8     9   ar
    30    13    14   ar
    31    14    15   ar
    32    15    10   ar
    33     9     1   ar
    34    27    22   ar
    35     9     4   ar
    36    19    20    1
@<TRIPOS>MOLECULE
*****
 33 36 0 0 0
SMALL
GASTEIGER

@<TRIPOS>ATOM
      1 C           1.8412    0.5851   23.3161 C.ar    1  UNL1        0.0171
      2 C           1.5688    0.3438   21.8609 C.ar    1  UNL1        0.0671
      3 N           2.4513   -0.7799   21.4044 N.ar    1  UNL1       -0.3243
      4 C           3.2692   -1.2330   22.5773 C.ar    1  UNL1        0.0602
      5 C           4.3085   -2.3048   22.7222 C.ar    1  UNL1        0.0203
      6 C           4.9707   -2.5329   24.0485 C.ar    1  UNL1        0.0387
      7 C           4.5936   -1.6893   25.2301 C.ar    1  UNL1        0.1469
      8 C           3.5543   -0.6175   25.0853 C.ar    1  UNL1        0.0387
      9 C           2.8921   -0.3894   23.7589 C.ar    1  UNL1        0.0200
     10 C          -0.1454    3.6880   25.8999 C.ar    1  UNL1        0.2250
     11 C          -0.5697    2.2522   25.9917 C.ar    1  UNL1        0.0577
     12 C           0.0925    1.2179   25.1304 C.ar    1  UNL1        0.0064
     13 C           1.1790    1.6194   24.1774 C.ar    1  UNL1        0.0206
     14 C           1.6033    3.0553   24.0856 C.ar    1  UNL1        0.1021
     15 N           0.9410    4.0896   24.9468 N.ar    1  UNL1       -0.2101
     16 C          -2.0016    5.4720   26.2490 C.3     1  UNL1        0.2542
     17 O          -0.8076    4.7223   26.7612 O.3     1  UNL1       -0.4561
     18 C           0.5864    1.0943   21.0115 C.3     1  UNL1        0.1809
     19 O          -0.5704    0.3721   20.3869 O.3     1  UNL1       -0.3760
     20 H          -0.2399   -0.2617   19.7312 H       1  UNL1        0.2110
     21 C           2.5064   -1.3503   20.0181 C.3     1  UNL1        0.1333
     22 C           3.8320   -1.6163   19.3687 C.ar    1  UNL1        0.0110
     23 C           4.8085   -0.4949   19.1702 C.ar    1  UNL1       -0.0016
     24 C           6.1341   -0.7608   18.5207 C.ar    1  UNL1       -0.0002
     25 C           6.4834   -2.1481   18.0696 C.ar    1  UNL1        0.0008
     26 C           5.5070   -3.2694   18.2680 C.ar    1  UNL1        0.0111
     27 C           4.1814   -3.0035   18.9175 C.ar    1  UNL1        0.0555
     28 CL          3.2051   -4.1249   19.1159 Cl      1  UNL1       -0.0825
     29 O           5.2559   -1.9175   26.5565 O.3     1  UNL1       -0.4045
     30 C           5.2371   -0.8397   27.5995 C.3     1  UNL1        0.5753
     31 F           5.2181    0.2382   28.6426 F       1  UNL1       -0.1328
     32 F           4.0722   -1.5073   28.2684 F       1  UNL1       -0.1328
     33 F           6.4019   -0.1720   26.9307 F       1  UNL1       -0.1328
@<TRIPOS>BOND
     1    16    17    1
     2    17    10    1
     3    10    11   ar
     4    11    12   ar
     5    12    13   ar
     6    13     1    1
     7     1     2   ar
     8     2    18    1
     9    18    19    1
    10     2     3   ar
    11     3    21    1
    12    21    22    1
    13    22    23   ar
    14    23    24   ar
    15    24    25   ar
    16    25    26   ar
    17    26    27   ar
    18    27    28    1
    19     3     4   ar
    20     4     5   ar
    21     5     6   ar
    22     6     7   ar
    23     7    29    1
    24    29    30    1
    25    30    31    1
    26    30    32    1
    27    30    33    1
    28     7     8   ar
    29     8     9   ar
    30    13    14   ar
    31    14    15   ar
    32    15    10   ar
    33     9     1   ar
    34    27    22   ar
    35     9     4   ar
    36    19    20    1
@<TRIPOS>MOLECULE
*****
 33 36 0 0 0
SMALL
GASTEIGER

@<TRIPOS>ATOM
      1 C          -0.5718    2.4824   25.4412 C.ar    1  UNL1        0.0171
      2 C          -1.5652    3.6057   25.4052 C.ar    1  UNL1        0.0671
      3 N          -1.7595    4.0069   23.9730 N.ar    1  UNL1       -0.3243
      4 C          -0.8861    3.1316   23.1238 C.ar    1  UNL1        0.0602
      5 C          -0.6644    3.0708   21.6415 C.ar    1  UNL1        0.0203
      6 C           0.2913    2.0678   21.0667 C.ar    1  UNL1        0.0387
      7 C           1.0253    1.1255   21.9741 C.ar    1  UNL1        0.1469
      8 C           0.8036    1.1863   23.4564 C.ar    1  UNL1        0.0387
      9 C          -0.1521    2.1894   24.0312 C.ar    1  UNL1        0.0200
     10 C           0.8925    0.3634   29.1312 C.ar    1  UNL1        0.2250
     11 C          -0.5695    0.3615   28.7956 C.ar    1  UNL1        0.0577
     12 C          -1.0575    1.0679   27.5656 C.ar    1  UNL1        0.0064
     13 C          -0.0837    1.7760   26.6712 C.ar    1  UNL1        0.0206
     14 C           1.3783    1.7779   27.0068 C.ar    1  UNL1        0.1021
     15 N           1.8664    1.0716   28.2368 N.ar    1  UNL1       -0.2101
     16 C           2.8486   -0.5807   30.5568 C.3     1  UNL1        0.2542
     17 O           1.3806   -0.3430   30.3612 O.3     1  UNL1       -0.4561
     18 C          -2.2450    4.2199   26.5929 C.3     1  UNL1        0.1809
     19 O          -3.5818    3.7073   27.0401 O.3     1  UNL1       -0.3760
     20 H          -4.2451    3.8959   26.3579 H       1  UNL1        0.2110
     21 C          -2.6676    5.0928   23.4770 C.3     1  UNL1        0.1333
     22 C          -4.1547    4.9425   23.6024 C.ar    1  UNL1        0.0110
     23 C          -4.8984    5.7003   24.6621 C.ar    1  UNL1       -0.0016
     24 C          -6.3856    5.5501   24.7876 C.ar    1  UNL1       -0.0002
     25 C          -7.1291    4.6419   23.8535 C.ar    1  UNL1        0.0008
     26 C          -6.3854    3.8841   22.7939 C.ar    1  UNL1        0.0111
     27 C          -4.8983    4.0344   22.6684 C.ar    1  UNL1        0.0555
     28 CL         -4.1547    3.2766   21.6088 Cl      1  UNL1       -0.0825
     29 O           1.9811    0.1225   21.3992 O.3     1  UNL1       -0.4045
     30 C           2.0931   -0.0401   19.9123 C.3     1  UNL1        0.5753
     31 F           2.2052   -0.2027   18.4253 F       1  UNL1       -0.1328
     32 F           3.2217    0.9477   19.8893 F       1  UNL1       -0.1328
     33 F           0.9646   -1.0279   19.9352 F       1  UNL1       -0.1328
@<TRIPOS>BOND
     1    16    17    1
     2    17    10    1
     3    10    11   ar
     4    11    12   ar
     5    12    13   ar
     6    13     1    1
     7     1     2   ar
     8     2    18    1
     9    18    19    1
    10     2     3   ar
    11     3    21    1
    12    21    22    1
    13    22    23   ar
    14    23    24   ar
    15    24    25   ar
    16    25    26   ar
    17    26    27   ar
    18    27    28    1
    19     3     4   ar
    20     4     5   ar
    21     5     6   ar
    22     6     7   ar
    23     7    29    1
    24    29    30    1
    25    30    31    1
    26    30    32    1
    27    30    33    1
    28     7     8   ar
    29     8     9   ar
    30    13    14   ar
    31    14    15   ar
    32    15    10   ar
    33     9     1   ar
    34    27    22   ar
    35     9     4   ar
    36    19    20    1
