@<TRIPOS>MOLECULE
*****
 27 31 0 0 0
SMALL
GASTEIGER

@<TRIPOS>ATOM
      1 O           0.1831    5.8408   17.8792 O.2     1  UNL1       -0.2638
      2 C           0.1776    4.4854   18.5218 C.2     1  UNL1        0.3160
      3 N           1.2683    3.5036   18.2110 N.am    1  UNL1       -0.1720
      4 C           1.2628    2.1482   18.8536 C.ar    1  UNL1        0.0775
      5 C           2.3534    1.1665   18.5428 C.ar    1  UNL1        0.0168
      6 C           2.3480   -0.1889   19.1854 C.ar    1  UNL1        0.0028
      7 C           1.2518   -0.5625   20.1388 C.ar    1  UNL1        0.0003
      8 C           0.1612    0.4192   20.4496 C.ar    1  UNL1        0.0051
      9 C           0.1667    1.7746   19.8070 C.ar    1  UNL1        0.0623
     10 C          -0.9240    2.7564   20.1178 C.2     1  UNL1        0.2419
     11 N          -2.1264    2.6715   21.0105 N.2     1  UNL1       -0.0302
     12 C          -2.8641    3.9744   20.9196 C.2     1  UNL1        0.3765
     13 N          -2.1176    4.8645   19.9708 N.2     1  UNL1       -0.0256
     14 C          -0.9185    4.1118   19.4752 C.2     1  UNL1        0.2907
     15 C          -4.1267    4.3255   21.6495 C.ar    1  UNL1        0.0989
     16 C          -4.0569    5.0133   22.9807 C.ar    1  UNL1        0.0085
     17 C          -5.3194    5.3643   23.7105 C.ar    1  UNL1        0.0003
     18 C          -6.6517    5.0276   23.1092 C.ar    1  UNL1        0.0009
     19 C          -6.7215    4.3399   21.7780 C.ar    1  UNL1        0.0116
     20 C          -5.4590    3.9888   21.0482 C.ar    1  UNL1        0.0651
     21 CL         -5.5287    3.3010   19.7170 Cl      1  UNL1       -0.0820
     22 C           3.4386   -1.1707   18.8746 C.ar    1  UNL1        0.0192
     23 C           3.5348   -2.4538   19.6456 C.ar    1  UNL1        0.0031
     24 C           4.6254   -3.4356   19.3349 C.ar    1  UNL1        0.0207
     25 C           5.6199   -3.1344   18.2531 C.ar    1  UNL1        0.0989
     26 N           5.5237   -1.8513   17.4820 N.ar    1  UNL1       -0.2423
     27 C           4.4331   -0.8695   17.7928 C.ar    1  UNL1        0.0988
@<TRIPOS>BOND
     1     1     2    2
     2     2     3    1
     3     3     4    2
     4     4     5   ar
     5     5     6   ar
     6     6    22    1
     7    22    23   ar
     8    23    24   ar
     9    24    25   ar
    10    25    26   ar
    11    26    27   ar
    12     6     7   ar
    13     7     8   ar
    14     8     9   ar
    15     9    10    2
    16    10    11    1
    17    11    12    2
    18    12    15    1
    19    15    16   ar
    20    16    17   ar
    21    17    18   ar
    22    18    19   ar
    23    19    20   ar
    24    20    21    1
    25    12    13    1
    26    13    14    2
    27    14     2    1
    28     9     4   ar
    29    14    10    1
    30    27    22   ar
    31    20    15   ar
@<TRIPOS>MOLECULE
*****
 27 31 0 0 0
SMALL
GASTEIGER

@<TRIPOS>ATOM
      1 O           9.1903   -5.3542   20.8236 O.2     1  UNL1       -0.2638
      2 C           8.0363   -4.6387   21.4611 C.2     1  UNL1        0.3160
      3 N           7.0975   -3.8286   20.6171 N.am    1  UNL1       -0.1720
      4 C           5.9434   -3.1131   21.2546 C.ar    1  UNL1        0.0775
      5 C           5.0046   -2.3030   20.4106 C.ar    1  UNL1        0.0168
      6 C           3.8507   -1.5876   21.0481 C.ar    1  UNL1        0.0028
      7 C           3.6355   -1.6821   22.5295 C.ar    1  UNL1        0.0003
      8 C           4.5744   -2.4922   23.3735 C.ar    1  UNL1        0.0051
      9 C           5.7283   -3.2077   22.7360 C.ar    1  UNL1        0.0623
     10 C           6.6672   -4.0178   23.5801 C.2     1  UNL1        0.2419
     11 N           6.7080   -4.2934   25.0539 N.2     1  UNL1       -0.0302
     12 C           7.8872   -5.1792   25.3274 C.2     1  UNL1        0.3765
     13 N           8.5752   -5.4511   24.0225 N.2     1  UNL1       -0.0256
     14 C           7.8212   -4.7332   22.9426 C.2     1  UNL1        0.2907
     15 C           8.3050   -5.7015   26.6700 C.ar    1  UNL1        0.0989
     16 C           8.9768   -4.7897   27.6536 C.ar    1  UNL1        0.0085
     17 C           9.3946   -5.3121   28.9962 C.ar    1  UNL1        0.0003
     18 C           9.1406   -6.7461   29.3552 C.ar    1  UNL1        0.0009
     19 C           8.4688   -7.6579   28.3717 C.ar    1  UNL1        0.0116
     20 C           8.0510   -7.1356   27.0291 C.ar    1  UNL1        0.0651
     21 CL          7.3792   -8.0474   26.0455 Cl      1  UNL1       -0.0820
     22 C           2.9118   -0.7775   20.2040 C.ar    1  UNL1        0.0192
     23 C           1.5201   -0.4970   20.6884 C.ar    1  UNL1        0.0031
     24 C           0.5812    0.3130   19.8445 C.ar    1  UNL1        0.0207
     25 C           1.0340    0.8427   18.5161 C.ar    1  UNL1        0.0989
     26 N           2.4256    0.5623   18.0317 N.ar    1  UNL1       -0.2423
     27 C           3.3645   -0.2478   18.8757 C.ar    1  UNL1        0.0988
@<TRIPOS>BOND
     1     1     2    2
     2     2     3    1
     3     3     4    2
     4     4     5   ar
     5     5     6   ar
     6     6    22    1
     7    22    23   ar
     8    23    24   ar
     9    24    25   ar
    10    25    26   ar
    11    26    27   ar
    12     6     7   ar
    13     7     8   ar
    14     8     9   ar
    15     9    10    2
    16    10    11    1
    17    11    12    2
    18    12    15    1
    19    15    16   ar
    20    16    17   ar
    21    17    18   ar
    22    18    19   ar
    23    19    20   ar
    24    20    21    1
    25    12    13    1
    26    13    14    2
    27    14     2    1
    28     9     4   ar
    29    14    10    1
    30    27    22   ar
    31    20    15   ar
@<TRIPOS>MOLECULE
*****
 27 31 0 0 0
SMALL
GASTEIGER

@<TRIPOS>ATOM
      1 O         -10.2310   -5.4918   19.3232 O.2     1  UNL1       -0.2638
      2 C         -11.4546   -4.7114   18.9440 C.2     1  UNL1        0.3160
      3 N         -11.3628   -3.2295   18.7305 N.am    1  UNL1       -0.1720
      4 C         -12.5865   -2.4491   18.3513 C.ar    1  UNL1        0.0775
      5 C         -12.4946   -0.9672   18.1379 C.ar    1  UNL1        0.0168
      6 C         -13.7182   -0.1869   17.7587 C.ar    1  UNL1        0.0028
      7 C         -15.0337   -0.8885   17.5930 C.ar    1  UNL1        0.0003
      8 C         -15.1255   -2.3703   17.8065 C.ar    1  UNL1        0.0051
      9 C         -13.9019   -3.1506   18.1857 C.ar    1  UNL1        0.0623
     10 C         -13.9937   -4.6326   18.3991 C.2     1  UNL1        0.2419
     11 N         -15.1445   -5.5903   18.3082 N.2     1  UNL1       -0.0302
     12 C         -14.6322   -6.9626   18.6312 C.2     1  UNL1        0.3765
     13 N         -13.1647   -6.8529   18.9217 N.2     1  UNL1       -0.0256
     14 C         -12.7701   -5.4129   18.7783 C.2     1  UNL1        0.2907
     15 C         -15.4447   -8.2232   18.6588 C.ar    1  UNL1        0.0989
     16 C         -14.8967   -9.4821   18.0547 C.ar    1  UNL1        0.0085
     17 C         -15.7093  -10.7426   18.0823 C.ar    1  UNL1        0.0003
     18 C         -17.0698  -10.7443   18.7140 C.ar    1  UNL1        0.0009
     19 C         -17.6178   -9.4854   19.3180 C.ar    1  UNL1        0.0116
     20 C         -16.8052   -8.2249   19.2904 C.ar    1  UNL1        0.0651
     21 CL        -17.3532   -6.9659   19.8945 Cl      1  UNL1       -0.0820
     22 C         -13.6264    1.2950   17.5452 C.ar    1  UNL1        0.0192
     23 C         -14.8203    2.1654   17.8044 C.ar    1  UNL1        0.0031
     24 C         -14.7285    3.6473   17.5909 C.ar    1  UNL1        0.0207
     25 C         -13.4429    4.2588   17.1183 C.ar    1  UNL1        0.0989
     26 N         -12.2491    3.3884   16.8591 N.ar    1  UNL1       -0.2423
     27 C         -12.3409    1.9065   17.0726 C.ar    1  UNL1        0.0988
@<TRIPOS>BOND
     1     1     2    2
     2     2     3    1
     3     3     4    2
     4     4     5   ar
     5     5     6   ar
     6     6    22    1
     7    22    23   ar
     8    23    24   ar
     9    24    25   ar
    10    25    26   ar
    11    26    27   ar
    12     6     7   ar
    13     7     8   ar
    14     8     9   ar
    15     9    10    2
    16    10    11    1
    17    11    12    2
    18    12    15    1
    19    15    16   ar
    20    16    17   ar
    21    17    18   ar
    22    18    19   ar
    23    19    20   ar
    24    20    21    1
    25    12    13    1
    26    13    14    2
    27    14     2    1
    28     9     4   ar
    29    14    10    1
    30    27    22   ar
    31    20    15   ar
@<TRIPOS>MOLECULE
*****
 27 31 0 0 0
SMALL
GASTEIGER

@<TRIPOS>ATOM
      1 O           8.1695   -5.9542   22.8721 O.2     1  UNL1       -0.2638
      2 C           7.1840   -4.8751   23.2102 C.2     1  UNL1        0.3160
      3 N           6.3903   -4.2162   22.1212 N.am    1  UNL1       -0.1720
      4 C           5.4048   -3.1371   22.4593 C.ar    1  UNL1        0.0775
      5 C           4.6111   -2.4782   21.3703 C.ar    1  UNL1        0.0168
      6 C           3.6256   -1.3991   21.7084 C.ar    1  UNL1        0.0028
      7 C           3.4339   -0.9789   23.1355 C.ar    1  UNL1        0.0003
      8 C           4.2275   -1.6377   24.2245 C.ar    1  UNL1        0.0051
      9 C           5.2130   -2.7168   23.8864 C.ar    1  UNL1        0.0623
     10 C           6.0068   -3.3757   24.9754 C.2     1  UNL1        0.2419
     11 N           6.0327   -3.1732   26.4614 N.2     1  UNL1       -0.0302
     12 C           7.0343   -4.1273   27.0417 C.2     1  UNL1        0.3765
     13 N           7.6273   -4.9193   25.9144 N.2     1  UNL1       -0.0256
     14 C           6.9922   -4.4548   24.6373 C.2     1  UNL1        0.2907
     15 C           7.3818   -4.2650   28.4945 C.ar    1  UNL1        0.0989
     16 C           6.7217   -5.3243   29.3264 C.ar    1  UNL1        0.0085
     17 C           7.0692   -5.4620   30.7790 C.ar    1  UNL1        0.0003
     18 C           8.0768   -4.5404   31.3997 C.ar    1  UNL1        0.0009
     19 C           8.7369   -3.4811   30.5679 C.ar    1  UNL1        0.0116
     20 C           8.3894   -3.3434   29.1152 C.ar    1  UNL1        0.0651
     21 CL          9.0495   -2.2840   28.2832 Cl      1  UNL1       -0.0820
     22 C           2.8319   -0.7402   20.6194 C.ar    1  UNL1        0.0192
     23 C           3.4839   -0.4138   19.3085 C.ar    1  UNL1        0.0031
     24 C           2.6903    0.2450   18.2196 C.ar    1  UNL1        0.0207
     25 C           1.2445    0.5776   18.4414 C.ar    1  UNL1        0.0989
     26 N           0.5924    0.2512   19.7522 N.ar    1  UNL1       -0.2423
     27 C           1.3862   -0.4077   20.8412 C.ar    1  UNL1        0.0988
@<TRIPOS>BOND
     1     1     2    2
     2     2     3    1
     3     3     4    2
     4     4     5   ar
     5     5     6   ar
     6     6    22    1
     7    22    23   ar
     8    23    24   ar
     9    24    25   ar
    10    25    26   ar
    11    26    27   ar
    12     6     7   ar
    13     7     8   ar
    14     8     9   ar
    15     9    10    2
    16    10    11    1
    17    11    12    2
    18    12    15    1
    19    15    16   ar
    20    16    17   ar
    21    17    18   ar
    22    18    19   ar
    23    19    20   ar
    24    20    21    1
    25    12    13    1
    26    13    14    2
    27    14     2    1
    28     9     4   ar
    29    14    10    1
    30    27    22   ar
    31    20    15   ar
@<TRIPOS>MOLECULE
*****
 27 31 0 0 0
SMALL
GASTEIGER

@<TRIPOS>ATOM
      1 O           0.8814    3.7407   24.9615 O.2     1  UNL1       -0.2638
      2 C           0.7787    2.8675   23.7461 C.2     1  UNL1        0.3160
      3 N           1.8252    1.8264   23.4800 N.am    1  UNL1       -0.1720
      4 C           1.7225    0.9532   22.2647 C.ar    1  UNL1        0.0775
      5 C           2.7691   -0.0879   21.9986 C.ar    1  UNL1        0.0168
      6 C           2.6663   -0.9611   20.7833 C.ar    1  UNL1        0.0028
      7 C           1.5171   -0.7931   19.8341 C.ar    1  UNL1        0.0003
      8 C           0.4706    0.2480   20.1001 C.ar    1  UNL1        0.0051
      9 C           0.5733    1.1211   21.3154 C.ar    1  UNL1        0.0623
     10 C          -0.4733    2.1623   21.5816 C.2     1  UNL1        0.2419
     11 N          -1.7107    2.5563   20.8309 N.2     1  UNL1       -0.0302
     12 C          -2.3727    3.6730   21.5823 C.2     1  UNL1        0.3765
     13 N          -1.5445    3.9691   22.7973 N.2     1  UNL1       -0.0256
     14 C          -0.3706    3.0354   22.7969 C.2     1  UNL1        0.2907
     15 C          -3.6405    4.3711   21.1878 C.ar    1  UNL1        0.0989
     16 C          -3.6142    5.4308   20.1266 C.ar    1  UNL1        0.0085
     17 C          -4.8820    6.1288   19.7322 C.ar    1  UNL1        0.0003
     18 C          -6.1760    5.7671   20.3991 C.ar    1  UNL1        0.0009
     19 C          -6.2023    4.7074   21.4603 C.ar    1  UNL1        0.0116
     20 C          -4.9345    4.0094   21.8547 C.ar    1  UNL1        0.0651
     21 CL         -4.9608    2.9496   22.9160 Cl      1  UNL1       -0.0820
     22 C           3.7129   -2.0023   20.5172 C.ar    1  UNL1        0.0192
     23 C           3.4708   -3.0619   19.4834 C.ar    1  UNL1        0.0031
     24 C           4.5173   -4.1030   19.2173 C.ar    1  UNL1        0.0207
     25 C           5.8059   -4.0846   19.9849 C.ar    1  UNL1        0.0989
     26 N           6.0480   -3.0250   21.0186 N.ar    1  UNL1       -0.2423
     27 C           5.0015   -1.9838   21.2847 C.ar    1  UNL1        0.0988
@<TRIPOS>BOND
     1     1     2    2
     2     2     3    1
     3     3     4    2
     4     4     5   ar
     5     5     6   ar
     6     6    22    1
     7    22    23   ar
     8    23    24   ar
     9    24    25   ar
    10    25    26   ar
    11    26    27   ar
    12     6     7   ar
    13     7     8   ar
    14     8     9   ar
    15     9    10    2
    16    10    11    1
    17    11    12    2
    18    12    15    1
    19    15    16   ar
    20    16    17   ar
    21    17    18   ar
    22    18    19   ar
    23    19    20   ar
    24    20    21    1
    25    12    13    1
    26    13    14    2
    27    14     2    1
    28     9     4   ar
    29    14    10    1
    30    27    22   ar
    31    20    15   ar
@<TRIPOS>MOLECULE
*****
 27 31 0 0 0
SMALL
GASTEIGER

@<TRIPOS>ATOM
      1 O           7.0130   -2.3326   17.4569 O.2     1  UNL1       -0.2638
      2 C           6.5650   -2.3839   18.8875 C.2     1  UNL1        0.3160
      3 N           7.2077   -3.3474   19.8407 N.am    1  UNL1       -0.1720
      4 C           6.7597   -3.3987   21.2713 C.ar    1  UNL1        0.0775
      5 C           7.4024   -4.3622   22.2244 C.ar    1  UNL1        0.0168
      6 C           6.9544   -4.4135   23.6550 C.ar    1  UNL1        0.0028
      7 C           5.8636   -3.5012   24.1324 C.ar    1  UNL1        0.0003
      8 C           5.2208   -2.5377   23.1793 C.ar    1  UNL1        0.0051
      9 C           5.6688   -2.4865   21.7488 C.ar    1  UNL1        0.0623
     10 C           5.0261   -1.5229   20.7955 C.2     1  UNL1        0.2419
     11 N           3.9357   -0.5089   20.9765 N.2     1  UNL1       -0.0302
     12 C           3.7099    0.1691   19.6576 C.2     1  UNL1        0.3765
     13 N           4.6607   -0.4259   18.6617 N.2     1  UNL1       -0.0256
     14 C           5.4741   -1.4717   19.3650 C.2     1  UNL1        0.2907
     15 C           2.7090    1.2521   19.3830 C.ar    1  UNL1        0.0989
     16 C           3.1696    2.5914   18.8890 C.ar    1  UNL1        0.0085
     17 C           2.1687    3.6743   18.6144 C.ar    1  UNL1        0.0003
     18 C           0.7071    3.4179   18.8338 C.ar    1  UNL1        0.0009
     19 C           0.2465    2.0786   19.3278 C.ar    1  UNL1        0.0116
     20 C           1.2474    0.9957   19.6024 C.ar    1  UNL1        0.0651
     21 CL          0.7868   -0.3436   20.0964 Cl      1  UNL1       -0.0820
     22 C           7.5972   -5.3770   24.6082 C.ar    1  UNL1        0.0192
     23 C           8.0843   -6.7073   24.1153 C.ar    1  UNL1        0.0031
     24 C           8.7271   -7.6708   25.0684 C.ar    1  UNL1        0.0207
     25 C           8.8827   -7.3040   26.5146 C.ar    1  UNL1        0.0989
     26 N           8.3955   -5.9737   27.0075 N.ar    1  UNL1       -0.2423
     27 C           7.7527   -5.0102   26.0543 C.ar    1  UNL1        0.0988
@<TRIPOS>BOND
     1     1     2    2
     2     2     3    1
     3     3     4    2
     4     4     5   ar
     5     5     6   ar
     6     6    22    1
     7    22    23   ar
     8    23    24   ar
     9    24    25   ar
    10    25    26   ar
    11    26    27   ar
    12     6     7   ar
    13     7     8   ar
    14     8     9   ar
    15     9    10    2
    16    10    11    1
    17    11    12    2
    18    12    15    1
    19    15    16   ar
    20    16    17   ar
    21    17    18   ar
    22    18    19   ar
    23    19    20   ar
    24    20    21    1
    25    12    13    1
    26    13    14    2
    27    14     2    1
    28     9     4   ar
    29    14    10    1
    30    27    22   ar
    31    20    15   ar
@<TRIPOS>MOLECULE
*****
 27 31 0 0 0
SMALL
GASTEIGER

@<TRIPOS>ATOM
      1 O         -19.4178   -3.7647   20.3558 O.2     1  UNL1       -0.2638
      2 C         -18.0133   -3.2790   20.1518 C.2     1  UNL1        0.3160
      3 N         -16.9072   -4.2629   19.9102 N.am    1  UNL1       -0.1720
      4 C         -15.5027   -3.7772   19.7061 C.ar    1  UNL1        0.0775
      5 C         -14.3966   -4.7611   19.4645 C.ar    1  UNL1        0.0168
      6 C         -12.9922   -4.2754   19.2605 C.ar    1  UNL1        0.0028
      7 C         -12.6939   -2.8059   19.2980 C.ar    1  UNL1        0.0003
      8 C         -13.8000   -1.8220   19.5396 C.ar    1  UNL1        0.0051
      9 C         -15.2044   -2.3077   19.7437 C.ar    1  UNL1        0.0623
     10 C         -16.3106   -1.3238   19.9853 C.2     1  UNL1        0.2419
     11 N         -16.3201    0.1735   20.0756 N.2     1  UNL1       -0.0302
     12 C         -17.7305    0.6131   20.3354 C.2     1  UNL1        0.3765
     13 N         -18.5926   -0.6124   20.4057 N.2     1  UNL1       -0.0256
     14 C         -17.7150   -1.8094   20.1894 C.2     1  UNL1        0.2907
     15 C         -18.1969    2.0297   20.4966 C.ar    1  UNL1        0.0989
     16 C         -18.8735    2.7309   19.3562 C.ar    1  UNL1        0.0085
     17 C         -19.3398    4.1474   19.5174 C.ar    1  UNL1        0.0003
     18 C         -19.1297    4.8627   20.8191 C.ar    1  UNL1        0.0009
     19 C         -18.4532    4.1614   21.9595 C.ar    1  UNL1        0.0116
     20 C         -17.9868    2.7450   21.7982 C.ar    1  UNL1        0.0651
     21 CL        -17.3103    2.0436   22.9387 Cl      1  UNL1       -0.0820
     22 C         -11.8859   -5.2593   19.0188 C.ar    1  UNL1        0.0192
     23 C         -10.4569   -4.8046   19.0535 C.ar    1  UNL1        0.0031
     24 C          -9.3508   -5.7884   18.8119 C.ar    1  UNL1        0.0207
     25 C          -9.6735   -7.2270   18.5356 C.ar    1  UNL1        0.0989
     26 N         -11.1025   -7.6817   18.5009 N.ar    1  UNL1       -0.2423
     27 C         -12.2087   -6.6978   18.7425 C.ar    1  UNL1        0.0988
@<TRIPOS>BOND
     1     1     2    2
     2     2     3    1
     3     3     4    2
     4     4     5   ar
     5     5     6   ar
     6     6    22    1
     7    22    23   ar
     8    23    24   ar
     9    24    25   ar
    10    25    26   ar
    11    26    27   ar
    12     6     7   ar
    13     7     8   ar
    14     8     9   ar
    15     9    10    2
    16    10    11    1
    17    11    12    2
    18    12    15    1
    19    15    16   ar
    20    16    17   ar
    21    17    18   ar
    22    18    19   ar
    23    19    20   ar
    24    20    21    1
    25    12    13    1
    26    13    14    2
    27    14     2    1
    28     9     4   ar
    29    14    10    1
    30    27    22   ar
    31    20    15   ar
@<TRIPOS>MOLECULE
*****
 27 31 0 0 0
SMALL
GASTEIGER

@<TRIPOS>ATOM
      1 O         -11.8389    2.1814   17.1080 O.2     1  UNL1       -0.2638
      2 C         -12.4148    0.9227   17.6862 C.2     1  UNL1        0.3160
      3 N         -11.6712   -0.3730   17.5519 N.am    1  UNL1       -0.1720
      4 C         -12.2470   -1.6317   18.1301 C.ar    1  UNL1        0.0775
      5 C         -11.5034   -2.9274   17.9958 C.ar    1  UNL1        0.0168
      6 C         -12.0793   -4.1860   18.5740 C.ar    1  UNL1        0.0028
      7 C         -13.3988   -4.1488   19.2865 C.ar    1  UNL1        0.0003
      8 C         -14.1424   -2.8531   19.4208 C.ar    1  UNL1        0.0051
      9 C         -13.5665   -1.5945   18.8426 C.ar    1  UNL1        0.0623
     10 C         -14.3101   -0.2987   18.9769 C.2     1  UNL1        0.2419
     11 N         -15.6208    0.0442   19.6205 N.2     1  UNL1       -0.0302
     12 C         -15.8551    1.5148   19.4401 C.2     1  UNL1        0.3765
     13 N         -14.6891    2.0807   18.6850 N.2     1  UNL1       -0.0256
     14 C         -13.7342    0.9599   18.3987 C.2     1  UNL1        0.2907
     15 C         -17.0463    2.2844   19.9290 C.ar    1  UNL1        0.0989
     16 C         -17.1089    2.7429   21.3558 C.ar    1  UNL1        0.0085
     17 C         -18.3000    3.5125   21.8446 C.ar    1  UNL1        0.0003
     18 C         -19.4285    3.8235   20.9067 C.ar    1  UNL1        0.0009
     19 C         -19.3659    3.3649   19.4799 C.ar    1  UNL1        0.0116
     20 C         -18.1748    2.5954   18.9911 C.ar    1  UNL1        0.0651
     21 CL        -18.1121    2.1368   17.5642 Cl      1  UNL1       -0.0820
     22 C         -11.3357   -5.4818   18.4397 C.ar    1  UNL1        0.0192
     23 C         -10.0223   -5.6689   19.1398 C.ar    1  UNL1        0.0031
     24 C          -9.2787   -6.9646   19.0056 C.ar    1  UNL1        0.0207
     25 C          -9.8485   -8.0734   18.1712 C.ar    1  UNL1        0.0989
     26 N         -11.1618   -7.8863   17.4712 N.ar    1  UNL1       -0.2423
     27 C         -11.9054   -6.5905   17.6054 C.ar    1  UNL1        0.0988
@<TRIPOS>BOND
     1     1     2    2
     2     2     3    1
     3     3     4    2
     4     4     5   ar
     5     5     6   ar
     6     6    22    1
     7    22    23   ar
     8    23    24   ar
     9    24    25   ar
    10    25    26   ar
    11    26    27   ar
    12     6     7   ar
    13     7     8   ar
    14     8     9   ar
    15     9    10    2
    16    10    11    1
    17    11    12    2
    18    12    15    1
    19    15    16   ar
    20    16    17   ar
    21    17    18   ar
    22    18    19   ar
    23    19    20   ar
    24    20    21    1
    25    12    13    1
    26    13    14    2
    27    14     2    1
    28     9     4   ar
    29    14    10    1
    30    27    22   ar
    31    20    15   ar
@<TRIPOS>MOLECULE
*****
 27 31 0 0 0
SMALL
GASTEIGER

@<TRIPOS>ATOM
      1 O           8.6456   -6.4983   30.0759 O.2     1  UNL1       -0.2638
      2 C           7.9407   -5.4199   29.3075 C.2     1  UNL1        0.3160
      3 N           7.7561   -5.5537   27.8250 N.am    1  UNL1       -0.1720
      4 C           7.0512   -4.4753   27.0566 C.ar    1  UNL1        0.0775
      5 C           6.8665   -4.6091   25.5741 C.ar    1  UNL1        0.0168
      6 C           6.1618   -3.5307   24.8058 C.ar    1  UNL1        0.0028
      7 C           5.6417   -2.3185   25.5200 C.ar    1  UNL1        0.0003
      8 C           5.8264   -2.1847   27.0025 C.ar    1  UNL1        0.0051
      9 C           6.5312   -3.2631   27.7708 C.ar    1  UNL1        0.0623
     10 C           6.7159   -3.1293   29.2534 C.2     1  UNL1        0.2419
     11 N           6.3139   -2.0570   30.2222 N.2     1  UNL1       -0.0302
     12 C           6.7703   -2.4727   31.5893 C.2     1  UNL1        0.3765
     13 N           7.4543   -3.8019   31.4654 N.2     1  UNL1       -0.0256
     14 C           7.4207   -4.2077   30.0217 C.2     1  UNL1        0.2907
     15 C           6.5767   -1.6956   32.8577 C.ar    1  UNL1        0.0989
     16 C           7.7259   -0.9415   33.4581 C.ar    1  UNL1        0.0085
     17 C           7.5322   -0.1644   34.7264 C.ar    1  UNL1        0.0003
     18 C           6.1893   -0.1414   35.3942 C.ar    1  UNL1        0.0009
     19 C           5.0401   -0.8955   34.7938 C.ar    1  UNL1        0.0116
     20 C           5.2337   -1.6726   33.5255 C.ar    1  UNL1        0.0651
     21 CL          4.0845   -2.4267   32.9250 Cl      1  UNL1       -0.0820
     22 C           5.9770   -3.6644   23.3232 C.ar    1  UNL1        0.0192
     23 C           4.6621   -3.3073   22.6960 C.ar    1  UNL1        0.0031
     24 C           4.4773   -3.4410   21.2135 C.ar    1  UNL1        0.0207
     25 C           5.6075   -3.9319   20.3580 C.ar    1  UNL1        0.0989
     26 N           6.9225   -4.2890   20.9852 N.ar    1  UNL1       -0.2423
     27 C           7.1072   -4.1553   22.4678 C.ar    1  UNL1        0.0988
@<TRIPOS>BOND
     1     1     2    2
     2     2     3    1
     3     3     4    2
     4     4     5   ar
     5     5     6   ar
     6     6    22    1
     7    22    23   ar
     8    23    24   ar
     9    24    25   ar
    10    25    26   ar
    11    26    27   ar
    12     6     7   ar
    13     7     8   ar
    14     8     9   ar
    15     9    10    2
    16    10    11    1
    17    11    12    2
    18    12    15    1
    19    15    16   ar
    20    16    17   ar
    21    17    18   ar
    22    18    19   ar
    23    19    20   ar
    24    20    21    1
    25    12    13    1
    26    13    14    2
    27    14     2    1
    28     9     4   ar
    29    14    10    1
    30    27    22   ar
    31    20    15   ar
