@<TRIPOS>MOLECULE
*****
 21 23 0 0 0
SMALL
GASTEIGER

@<TRIPOS>ATOM
      1 C          -6.7914  -18.9229   21.8767 C.3     1  UNL1        0.2082
      2 S          -6.6149  -17.8213   22.8795 S.3     1  UNL1       -0.0751
      3 C          -5.2368  -17.3963   23.2919 C.2     1  UNL1        0.0470
      4 C          -4.0352  -18.0728   22.7016 C.2     1  UNL1        0.0551
      5 C          -2.6571  -17.6477   23.1141 C.3     1  UNL1        0.0512
      6 N          -4.2117  -19.1743   21.6989 N.ar    1  UNL1       -0.2279
      7 C          -5.5898  -19.5993   21.2864 C.ar    1  UNL1        0.2066
      8 N          -5.4528  -20.7070   20.2842 N.ar    1  UNL1       -0.0545
      9 O          -3.9900  -20.9665   20.0773 O.2     1  UNL1       -0.2950
     10 C          -3.2229  -20.0192   20.9516 C.ar    1  UNL1        0.4470
     11 O          -1.7294  -19.9322   21.0596 O.2     1  UNL1       -0.2203
     12 C          -8.2276  -18.5886   22.1520 C.ar    1  UNL1        0.0189
     13 C          -9.1520  -19.6394   22.6917 C.ar    1  UNL1       -0.0002
     14 C         -10.5881  -19.3052   22.9671 C.ar    1  UNL1        0.0065
     15 C         -11.0999  -17.9201   22.7027 C.ar    1  UNL1        0.0345
     16 BR        -12.5360  -17.5860   22.9781 Br      1  UNL1       -0.0490
     17 C         -10.1754  -16.8694   22.1630 C.ar    1  UNL1        0.0065
     18 C          -8.7392  -17.2036   21.8877 C.ar    1  UNL1       -0.0002
     19 O          -7.4667  -19.9083   20.9696 O.3     1  UNL1       -0.3379
     20 C          -9.1412  -20.0170   18.9861 C.3     1  UNL1        0.0347
     21 C          -7.8658  -19.4997   19.5826 C.3     1  UNL1        0.1440
@<TRIPOS>BOND
     1    20    21    1
     2    21    19    1
     3    19     1    1
     4     1    12    1
     5    12    13   ar
     6    13    14   ar
     7    14    15   ar
     8    15    16    1
     9    15    17   ar
    10    17    18   ar
    11     1     2    1
    12     2     3    1
    13     3     4    2
    14     4     5    1
    15     4     6    1
    16     6     7   ar
    17     7     8   ar
    18     8     9   ar
    19     9    10   ar
    20    10    11    2
    21     7     1    1
    22    18    12   ar
    23    10     6   ar
@<TRIPOS>MOLECULE
*****
 21 23 0 0 0
SMALL
GASTEIGER

@<TRIPOS>ATOM
      1 C          -7.1584  -18.3077   22.3525 C.3     1  UNL1        0.2082
      2 S          -7.6473  -19.3287   21.3683 S.3     1  UNL1       -0.0751
      3 C          -6.6649  -20.1047   20.5422 C.2     1  UNL1        0.0470
      4 C          -5.1935  -19.8598   20.7001 C.2     1  UNL1        0.0551
      5 C          -4.2111  -20.6358   19.8739 C.3     1  UNL1        0.0512
      6 N          -4.7045  -18.8388   21.6842 N.ar    1  UNL1       -0.2279
      7 C          -5.6870  -18.0627   22.5104 C.ar    1  UNL1        0.2066
      8 N          -4.9142  -17.1278   23.3928 N.ar    1  UNL1       -0.0545
      9 O          -3.4541  -17.3260   23.1119 O.2     1  UNL1       -0.2950
     10 C          -3.3245  -18.3834   22.0560 C.ar    1  UNL1        0.4470
     11 O          -2.0404  -18.8956   21.4740 O.2     1  UNL1       -0.2203
     12 C          -8.6385  -18.1831   22.5614 C.ar    1  UNL1        0.0189
     13 C          -9.2276  -18.4297   23.9187 C.ar    1  UNL1       -0.0002
     14 C         -10.7077  -18.3051   24.1278 C.ar    1  UNL1        0.0065
     15 C         -11.5988  -17.9340   22.9796 C.ar    1  UNL1        0.0345
     16 BR        -13.0789  -17.8094   23.1887 Br      1  UNL1       -0.0490
     17 C         -11.0097  -17.6874   21.6224 C.ar    1  UNL1        0.0065
     18 C          -9.5295  -17.8120   21.4133 C.ar    1  UNL1       -0.0002
     19 O          -7.1835  -17.2434   23.4091 O.3     1  UNL1       -0.3379
     20 C          -7.7491  -14.8104   24.1235 C.3     1  UNL1        0.0347
     21 C          -7.5482  -15.8345   23.0461 C.3     1  UNL1        0.1440
@<TRIPOS>BOND
     1    20    21    1
     2    21    19    1
     3    19     1    1
     4     1    12    1
     5    12    13   ar
     6    13    14   ar
     7    14    15   ar
     8    15    16    1
     9    15    17   ar
    10    17    18   ar
    11     1     2    1
    12     2     3    1
    13     3     4    2
    14     4     5    1
    15     4     6    1
    16     6     7   ar
    17     7     8   ar
    18     8     9   ar
    19     9    10   ar
    20    10    11    2
    21     7     1    1
    22    18    12   ar
    23    10     6   ar
@<TRIPOS>MOLECULE
*****
 21 23 0 0 0
SMALL
GASTEIGER

@<TRIPOS>ATOM
      1 C          -7.9531  -17.3879   23.1652 C.3     1  UNL1        0.2082
      2 S          -8.1250  -18.7902   22.6611 S.3     1  UNL1       -0.0751
      3 C          -6.9317  -19.5726   22.1990 C.2     1  UNL1        0.0470
      4 C          -5.5664  -18.9529   22.2410 C.2     1  UNL1        0.0551
      5 C          -4.3730  -19.7354   21.7788 C.3     1  UNL1        0.0512
      6 N          -5.3944  -17.5506   22.7451 N.ar    1  UNL1       -0.2279
      7 C          -6.5878  -16.7681   23.2072 C.ar    1  UNL1        0.2066
      8 N          -6.1125  -15.4160   23.6499 N.ar    1  UNL1       -0.0545
      9 O          -4.6254  -15.3629   23.4614 O.2     1  UNL1       -0.2950
     10 C          -4.1816  -16.6821   22.9022 C.ar    1  UNL1        0.4470
     11 O          -2.7723  -17.0655   22.5601 O.2     1  UNL1       -0.2203
     12 C          -9.4378  -17.5389   23.3165 C.ar    1  UNL1        0.0189
     13 C          -9.9953  -18.5774   24.2443 C.ar    1  UNL1       -0.0002
     14 C         -11.4799  -18.7286   24.3956 C.ar    1  UNL1        0.0065
     15 C         -12.4072  -17.8412   23.6192 C.ar    1  UNL1        0.0345
     16 BR        -13.8918  -17.9924   23.7706 Br      1  UNL1       -0.0490
     17 C         -11.8497  -16.8027   22.6915 C.ar    1  UNL1        0.0065
     18 C         -10.3650  -16.6516   22.5401 C.ar    1  UNL1       -0.0002
     19 O          -8.2968  -16.0381   23.7219 O.3     1  UNL1       -0.3379
     20 C          -8.0620  -15.9272   26.3070 C.3     1  UNL1        0.0347
     21 C          -8.9243  -15.9243   25.0796 C.3     1  UNL1        0.1440
@<TRIPOS>BOND
     1    20    21    1
     2    21    19    1
     3    19     1    1
     4     1    12    1
     5    12    13   ar
     6    13    14   ar
     7    14    15   ar
     8    15    16    1
     9    15    17   ar
    10    17    18   ar
    11     1     2    1
    12     2     3    1
    13     3     4    2
    14     4     5    1
    15     4     6    1
    16     6     7   ar
    17     7     8   ar
    18     8     9   ar
    19     9    10   ar
    20    10    11    2
    21     7     1    1
    22    18    12   ar
    23    10     6   ar
@<TRIPOS>MOLECULE
*****
 21 23 0 0 0
SMALL
GASTEIGER

@<TRIPOS>ATOM
      1 C          -8.6423  -18.0297   23.1032 C.3     1  UNL1        0.2082
      2 S          -8.7887  -16.7504   23.8726 S.3     1  UNL1       -0.0751
      3 C          -7.5893  -15.8860   24.1257 C.2     1  UNL1        0.0470
      4 C          -6.2435  -16.3008   23.6094 C.2     1  UNL1        0.0551
      5 C          -5.0440  -15.4363   23.8626 C.3     1  UNL1        0.0512
      6 N          -6.0970  -17.5801   22.8401 N.ar    1  UNL1       -0.2279
      7 C          -7.2965  -18.4445   22.5869 C.ar    1  UNL1        0.2066
      8 N          -6.8478  -19.6419   21.8028 N.ar    1  UNL1       -0.0545
      9 O          -5.3710  -19.5175   21.5713 O.2     1  UNL1       -0.2950
     10 C          -4.9070  -18.2432   22.2123 C.ar    1  UNL1        0.4470
     11 O          -3.5000  -17.7233   22.2236 O.2     1  UNL1       -0.2203
     12 C         -10.1150  -18.0631   23.3865 C.ar    1  UNL1        0.0189
     13 C         -10.6641  -19.0349   24.3886 C.ar    1  UNL1       -0.0002
     14 C         -12.1366  -19.0684   24.6720 C.ar    1  UNL1        0.0065
     15 C         -13.0603  -18.1301   23.9532 C.ar    1  UNL1        0.0345
     16 BR        -14.5328  -18.1636   24.2365 Br      1  UNL1       -0.0490
     17 C         -12.5112  -17.1584   22.9510 C.ar    1  UNL1        0.0065
     18 C         -11.0385  -17.1249   22.6677 C.ar    1  UNL1       -0.0002
     19 O          -9.0073  -19.3206   22.4322 O.3     1  UNL1       -0.3379
     20 C          -9.5502  -19.4475   19.8946 C.3     1  UNL1        0.0347
     21 C         -10.0107  -19.3289   21.3173 C.3     1  UNL1        0.1440
@<TRIPOS>BOND
     1    20    21    1
     2    21    19    1
     3    19     1    1
     4     1    12    1
     5    12    13   ar
     6    13    14   ar
     7    14    15   ar
     8    15    16    1
     9    15    17   ar
    10    17    18   ar
    11     1     2    1
    12     2     3    1
    13     3     4    2
    14     4     5    1
    15     4     6    1
    16     6     7   ar
    17     7     8   ar
    18     8     9   ar
    19     9    10   ar
    20    10    11    2
    21     7     1    1
    22    18    12   ar
    23    10     6   ar
@<TRIPOS>MOLECULE
*****
 21 23 0 0 0
SMALL
GASTEIGER

@<TRIPOS>ATOM
      1 C          -8.7592  -18.1306   22.4170 C.3     1  UNL1        0.2082
      2 S          -7.2916  -18.2906   22.6827 S.3     1  UNL1       -0.0751
      3 C          -6.4361  -19.0656   21.7249 C.2     1  UNL1        0.0470
      4 C          -7.0482  -19.6806   20.5013 C.2     1  UNL1        0.0551
      5 C          -6.1926  -20.4556   19.5435 C.3     1  UNL1        0.0512
      6 N          -8.5157  -19.5207   20.2356 N.ar    1  UNL1       -0.2279
      7 C          -9.3713  -18.7457   21.1934 C.ar    1  UNL1        0.2066
      8 N         -10.7776  -18.7560   20.6717 N.ar    1  UNL1       -0.0545
      9 O         -10.7912  -19.5374   19.3914 O.2     1  UNL1       -0.2950
     10 C          -9.3933  -20.0100   19.1218 C.ar    1  UNL1        0.4470
     11 O          -8.9507  -20.8282   17.9451 O.2     1  UNL1       -0.2203
     12 C          -8.6427  -17.3681   23.7034 C.ar    1  UNL1        0.0189
     13 C          -7.8541  -16.0930   23.7507 C.ar    1  UNL1       -0.0002
     14 C          -7.7375  -15.3304   25.0370 C.ar    1  UNL1        0.0065
     15 C          -8.4096  -15.8429   26.2763 C.ar    1  UNL1        0.0345
     16 BR         -8.2931  -15.0803   27.5626 Br      1  UNL1       -0.0490
     17 C          -9.1983  -17.1179   26.2290 C.ar    1  UNL1        0.0065
     18 C          -9.3149  -17.8805   24.9426 C.ar    1  UNL1       -0.0002
     19 O         -10.1863  -17.7058   22.5980 O.3     1  UNL1       -0.3379
     20 C         -12.0183  -15.8694   22.4509 C.3     1  UNL1        0.0347
     21 C         -10.6227  -16.3381   22.1634 C.3     1  UNL1        0.1440
@<TRIPOS>BOND
     1    20    21    1
     2    21    19    1
     3    19     1    1
     4     1    12    1
     5    12    13   ar
     6    13    14   ar
     7    14    15   ar
     8    15    16    1
     9    15    17   ar
    10    17    18   ar
    11     1     2    1
    12     2     3    1
    13     3     4    2
    14     4     5    1
    15     4     6    1
    16     6     7   ar
    17     7     8   ar
    18     8     9   ar
    19     9    10   ar
    20    10    11    2
    21     7     1    1
    22    18    12   ar
    23    10     6   ar
@<TRIPOS>MOLECULE
*****
 21 23 0 0 0
SMALL
GASTEIGER

@<TRIPOS>ATOM
      1 C         -14.6810   -6.1723   18.7031 C.3     1  UNL1        0.2082
      2 S         -15.7117   -5.2216   19.2361 S.3     1  UNL1       -0.0751
      3 C         -17.0526   -5.7351   19.6698 C.2     1  UNL1        0.0470
      4 C         -17.3629   -7.1993   19.5705 C.2     1  UNL1        0.0551
      5 C         -18.7039   -7.7128   20.0043 C.3     1  UNL1        0.0512
      6 N         -16.3323   -8.1500   19.0376 N.ar    1  UNL1       -0.2279
      7 C         -14.9913   -7.6364   18.6039 C.ar    1  UNL1        0.2066
      8 N         -14.1814   -8.8037   18.1227 N.ar    1  UNL1       -0.0545
      9 O         -15.0218  -10.0386   18.2591 O.2     1  UNL1       -0.2950
     10 C         -16.3512   -9.6346   18.8245 C.ar    1  UNL1        0.4470
     11 O         -17.4979  -10.5539   19.1242 O.2     1  UNL1       -0.2203
     12 C         -13.9212   -4.8827   18.6055 C.ar    1  UNL1        0.0189
     13 C         -13.4672   -4.3791   17.2675 C.ar    1  UNL1       -0.0002
     14 C         -12.7074   -3.0895   17.1698 C.ar    1  UNL1        0.0065
     15 C         -12.4014   -2.3034   18.4102 C.ar    1  UNL1        0.0345
     16 BR        -11.6416   -1.0138   18.3124 Br      1  UNL1       -0.0490
     17 C         -12.8554   -2.8070   19.7482 C.ar    1  UNL1        0.0065
     18 C         -13.6153   -4.0966   19.8459 C.ar    1  UNL1       -0.0002
     19 O         -13.3865   -6.6750   18.1363 O.3     1  UNL1       -0.3379
     20 C         -10.8223   -6.8929   18.4934 C.3     1  UNL1        0.0347
     21 C         -12.2178   -6.9254   19.0426 C.3     1  UNL1        0.1440
@<TRIPOS>BOND
     1    20    21    1
     2    21    19    1
     3    19     1    1
     4     1    12    1
     5    12    13   ar
     6    13    14   ar
     7    14    15   ar
     8    15    16    1
     9    15    17   ar
    10    17    18   ar
    11     1     2    1
    12     2     3    1
    13     3     4    2
    14     4     5    1
    15     4     6    1
    16     6     7   ar
    17     7     8   ar
    18     8     9   ar
    19     9    10   ar
    20    10    11    2
    21     7     1    1
    22    18    12   ar
    23    10     6   ar
@<TRIPOS>MOLECULE
*****
 21 23 0 0 0
SMALL
GASTEIGER

@<TRIPOS>ATOM
      1 C         -14.6433   -6.8176   18.5520 C.3     1  UNL1        0.2082
      2 S         -13.9866   -8.0615   18.0309 S.3     1  UNL1       -0.0751
      3 C         -14.7389   -9.3591   18.0213 C.2     1  UNL1        0.0470
      4 C         -16.1479   -9.4130   18.5328 C.2     1  UNL1        0.0551
      5 C         -16.9003  -10.7107   18.5231 C.3     1  UNL1        0.0512
      6 N         -16.8047   -8.1692   19.0539 N.ar    1  UNL1       -0.2279
      7 C         -16.0524   -6.8715   19.0635 C.ar    1  UNL1        0.2066
      8 N         -16.9542   -5.8170   19.6335 N.ar    1  UNL1       -0.0545
      9 O         -18.2639   -6.4630   19.9761 O.2     1  UNL1       -0.2950
     10 C         -18.1715   -7.9167   19.6179 C.ar    1  UNL1        0.4470
     11 O         -19.2556   -8.9385   19.7930 O.2     1  UNL1       -0.2203
     12 C         -13.3004   -6.2653   18.1762 C.ar    1  UNL1        0.0189
     13 C         -12.0682   -6.7401   18.8879 C.ar    1  UNL1       -0.0002
     14 C         -10.7252   -6.1878   18.5121 C.ar    1  UNL1        0.0065
     15 C         -10.6142   -5.1606   17.4245 C.ar    1  UNL1        0.0345
     16 BR         -9.2712   -4.6084   17.0488 Br      1  UNL1       -0.0490
     17 C         -11.8464   -4.6858   16.7129 C.ar    1  UNL1        0.0065
     18 C         -13.1894   -5.2381   17.0887 C.ar    1  UNL1       -0.0002
     19 O         -14.8337   -5.3820   18.9426 O.3     1  UNL1       -0.3379
     20 C         -13.9229   -3.4259   20.3898 C.3     1  UNL1        0.0347
     21 C         -14.2730   -4.8767   20.2389 C.3     1  UNL1        0.1440
@<TRIPOS>BOND
     1    20    21    1
     2    21    19    1
     3    19     1    1
     4     1    12    1
     5    12    13   ar
     6    13    14   ar
     7    14    15   ar
     8    15    16    1
     9    15    17   ar
    10    17    18   ar
    11     1     2    1
    12     2     3    1
    13     3     4    2
    14     4     5    1
    15     4     6    1
    16     6     7   ar
    17     7     8   ar
    18     8     9   ar
    19     9    10   ar
    20    10    11    2
    21     7     1    1
    22    18    12   ar
    23    10     6   ar
@<TRIPOS>MOLECULE
*****
 21 23 0 0 0
SMALL
GASTEIGER

@<TRIPOS>ATOM
      1 C         -14.2758   -5.6966   18.8248 C.3     1  UNL1        0.2082
      2 S         -14.8604   -4.3173   18.7485 S.3     1  UNL1       -0.0751
      3 C         -13.9601   -3.1182   18.7826 C.2     1  UNL1        0.0470
      4 C         -12.4750   -3.2982   18.8930 C.2     1  UNL1        0.0551
      5 C         -11.5746   -2.0990   18.9270 C.3     1  UNL1        0.0512
      6 N         -11.8904   -4.6774   18.9692 N.ar    1  UNL1       -0.2279
      7 C         -12.7908   -5.8767   18.9351 C.ar    1  UNL1        0.2066
      8 N         -11.9326   -7.1035   19.0271 N.ar    1  UNL1       -0.0545
      9 O         -10.5018   -6.6624   19.1180 O.2     1  UNL1       -0.2950
     10 C         -10.4757   -5.1631   19.0822 C.ar    1  UNL1        0.4470
     11 O          -9.2501   -4.3008   19.1479 O.2     1  UNL1       -0.2203
     12 C         -15.7337   -6.0365   18.7295 C.ar    1  UNL1        0.0189
     13 C         -16.5448   -5.5416   17.5688 C.ar    1  UNL1       -0.0002
     14 C         -18.0026   -5.8814   17.4733 C.ar    1  UNL1        0.0065
     15 C         -18.6495   -6.7162   18.5386 C.ar    1  UNL1        0.0345
     16 BR        -20.1073   -7.0559   18.4431 Br      1  UNL1       -0.0490
     17 C         -17.8384   -7.2111   19.6993 C.ar    1  UNL1        0.0065
     18 C         -16.3805   -6.8713   19.7947 C.ar    1  UNL1       -0.0002
     19 O         -14.1975   -7.1939   18.8680 O.3     1  UNL1       -0.3379
     20 C         -14.8929   -9.3571   17.6081 C.3     1  UNL1        0.0347
     21 C         -14.2836   -7.9864   17.5973 C.3     1  UNL1        0.1440
@<TRIPOS>BOND
     1    20    21    1
     2    21    19    1
     3    19     1    1
     4     1    12    1
     5    12    13   ar
     6    13    14   ar
     7    14    15   ar
     8    15    16    1
     9    15    17   ar
    10    17    18   ar
    11     1     2    1
    12     2     3    1
    13     3     4    2
    14     4     5    1
    15     4     6    1
    16     6     7   ar
    17     7     8   ar
    18     8     9   ar
    19     9    10   ar
    20    10    11    2
    21     7     1    1
    22    18    12   ar
    23    10     6   ar
@<TRIPOS>MOLECULE
*****
 21 23 0 0 0
SMALL
GASTEIGER

@<TRIPOS>ATOM
      1 C          -7.6204  -18.7000   21.0080 C.3     1  UNL1        0.2082
      2 S          -7.2750  -17.9496   22.2601 S.3     1  UNL1       -0.0751
      3 C          -8.3544  -17.2697   23.0490 C.2     1  UNL1        0.0470
      4 C          -9.7794  -17.3401   22.5859 C.2     1  UNL1        0.0551
      5 C         -10.8588  -16.6602   23.3749 C.3     1  UNL1        0.0512
      6 N         -10.1249  -18.0905   21.3339 N.ar    1  UNL1       -0.2279
      7 C          -9.0454  -18.7705   20.5450 C.ar    1  UNL1        0.2066
      8 N          -9.6840  -19.4313   19.3594 N.ar    1  UNL1       -0.0545
      9 O         -11.1581  -19.1598   19.4157 O.2     1  UNL1       -0.2950
     10 C         -11.4306  -18.3312   20.6360 C.ar    1  UNL1        0.4470
     11 O         -12.7732  -17.8310   21.0803 O.2     1  UNL1       -0.2203
     12 C          -6.1365  -18.9162   21.0402 C.ar    1  UNL1        0.0189
     13 C          -5.3335  -18.7957   19.7790 C.ar    1  UNL1       -0.0002
     14 C          -3.8495  -19.0119   19.8110 C.ar    1  UNL1        0.0065
     15 C          -3.1684  -19.3485   21.1045 C.ar    1  UNL1        0.0345
     16 BR         -1.6844  -19.5647   21.1365 Br      1  UNL1       -0.0490
     17 C          -3.9714  -19.4690   22.3657 C.ar    1  UNL1        0.0065
     18 C          -5.4554  -19.2528   22.3336 C.ar    1  UNL1       -0.0002
     19 O          -7.4506  -19.5255   19.7672 O.3     1  UNL1       -0.3379
     20 C          -7.3711  -21.8993   18.7143 C.3     1  UNL1        0.0347
     21 C          -7.1204  -20.9846   19.8764 C.3     1  UNL1        0.1440
@<TRIPOS>BOND
     1    20    21    1
     2    21    19    1
     3    19     1    1
     4     1    12    1
     5    12    13   ar
     6    13    14   ar
     7    14    15   ar
     8    15    16    1
     9    15    17   ar
    10    17    18   ar
    11     1     2    1
    12     2     3    1
    13     3     4    2
    14     4     5    1
    15     4     6    1
    16     6     7   ar
    17     7     8   ar
    18     8     9   ar
    19     9    10   ar
    20    10    11    2
    21     7     1    1
    22    18    12   ar
    23    10     6   ar
