@<TRIPOS>MOLECULE
*****
 30 31 0 0 0
SMALL
GASTEIGER

@<TRIPOS>ATOM
      1 C          -9.8786  -17.7580   22.2932 C.ar    1  UNL1        0.0176
      2 C          -8.6074  -16.9687   22.1881 C.ar    1  UNL1        0.0020
      3 C          -7.2830  -17.6722   22.2181 C.ar    1  UNL1        0.0373
      4 C          -7.2298  -19.1652   22.3531 C.ar    1  UNL1        0.1477
      5 C          -8.5009  -19.9545   22.4582 C.ar    1  UNL1        0.0668
      6 C          -9.8253  -19.2509   22.4282 C.ar    1  UNL1        0.1401
      7 F         -11.0965  -20.0404   22.5333 F       1  UNL1       -0.2044
      8 C         -11.2030  -17.0544   22.2632 C.3     1  UNL1        0.0939
      9 C         -14.5416  -18.4277   24.9498 C.3     1  UNL1        0.0900
     10 C         -13.4288  -17.9700   24.0543 C.1     1  UNL1       -0.0897
     11 C         -12.3159  -17.5122   23.1587 C.1     1  UNL1       -0.0871
     12 C         -11.4146  -15.8931   21.3378 C.3     1  UNL1        0.0591
     13 C         -11.3132  -16.0883   19.8540 C.2     1  UNL1        0.0517
     14 O         -11.7634  -17.3782   19.2347 O.co2   1  UNL1       -0.5491
     15 O         -10.7615  -14.9936   18.9894 O.co2   1  UNL1       -0.5491
     16 O          -5.9053  -19.8688   22.3831 O.3     1  UNL1       -0.4504
     17 C          -4.6784  -19.1802   21.8631 C.ar    1  UNL1        0.1791
     18 C          -4.1969  -19.4565   20.4696 C.ar    1  UNL1        0.0406
     19 C          -2.9700  -18.7680   19.9496 C.ar    1  UNL1        0.0072
     20 C          -2.2243  -17.8031   20.8232 C.ar    1  UNL1        0.0746
     21 C          -2.7057  -17.5268   22.2167 C.ar    1  UNL1        0.0441
     22 C          -3.9328  -18.2153   22.7367 C.ar    1  UNL1        0.1785
     23 C          -0.9973  -17.1146   20.3032 C.3     1  UNL1        0.4187
     24 F           0.2297  -16.4261   19.7831 F       1  UNL1       -0.1659
     25 F          -1.2402  -15.9714   21.2434 F       1  UNL1       -0.1659
     26 F          -0.7544  -18.2577   19.3629 F       1  UNL1       -0.1659
     27 O          -4.4141  -17.9390   24.1302 O.3     1  UNL1       -0.4205
     28 C          -4.7429  -16.5357   24.5457 C.3     1  UNL1        0.5087
     29 F          -4.8353  -16.1867   26.0016 F       1  UNL1       -0.1550
     30 F          -4.9792  -15.4814   23.5053 F       1  UNL1       -0.1550
@<TRIPOS>UNITY_ATOM_ATTR
14 1
charge -1
@<TRIPOS>BOND
     1     9    10    1
     2    10    11    3
     3    11     8    1
     4     8    12    1
     5    12    13    1
     6    13    14   ar
     7    13    15   ar
     8     8     1    1
     9     1     2   ar
    10     2     3   ar
    11     3     4   ar
    12     4    16    1
    13    16    17    1
    14    17    18   ar
    15    18    19   ar
    16    19    20   ar
    17    20    23    1
    18    23    24    1
    19    23    25    1
    20    23    26    1
    21    20    21   ar
    22    21    22   ar
    23    22    27    1
    24    27    28    1
    25    28    29    1
    26    28    30    1
    27     4     5   ar
    28     5     6   ar
    29     6     7    1
    30     6     1   ar
    31    22    17   ar
@<TRIPOS>MOLECULE
*****
 30 31 0 0 0
SMALL
GASTEIGER

@<TRIPOS>ATOM
      1 C          -9.7340  -17.7500   22.2553 C.ar    1  UNL1        0.0176
      2 C          -9.7101  -19.2380   22.4433 C.ar    1  UNL1        0.0020
      3 C          -8.3998  -19.9659   22.4997 C.ar    1  UNL1        0.0373
      4 C          -7.1134  -19.2059   22.3681 C.ar    1  UNL1        0.1477
      5 C          -7.1372  -17.7179   22.1801 C.ar    1  UNL1        0.0668
      6 C          -8.4476  -16.9900   22.1237 C.ar    1  UNL1        0.1401
      7 F          -8.4714  -15.5020   21.9357 F       1  UNL1       -0.2044
      8 C         -11.0443  -17.0221   22.1990 C.3     1  UNL1        0.0939
      9 C         -14.4794  -18.3695   24.7748 C.3     1  UNL1        0.0900
     10 C         -13.3344  -17.9203   23.9162 C.1     1  UNL1       -0.0897
     11 C         -12.1893  -17.4712   23.0575 C.1     1  UNL1       -0.0871
     12 C         -11.2097  -15.8451   21.2840 C.3     1  UNL1        0.0591
     13 C         -11.2859  -16.0532   19.8005 C.2     1  UNL1        0.0517
     14 O         -11.8482  -17.3303   19.2502 O.co2   1  UNL1       -0.5491
     15 O         -10.7997  -14.9841   18.8672 O.co2   1  UNL1       -0.5491
     16 O          -5.8030  -19.9338   22.4245 O.3     1  UNL1       -0.4504
     17 C          -4.5589  -19.2803   21.9002 C.ar    1  UNL1        0.1791
     18 C          -4.0790  -19.5858   20.5122 C.ar    1  UNL1        0.0406
     19 C          -2.8348  -18.9323   19.9880 C.ar    1  UNL1        0.0072
     20 C          -2.0705  -17.9732   20.8516 C.ar    1  UNL1        0.0746
     21 C          -2.5503  -17.6676   22.2395 C.ar    1  UNL1        0.0441
     22 C          -3.7945  -18.3212   22.7639 C.ar    1  UNL1        0.1785
     23 C          -0.8262  -17.3196   20.3273 C.3     1  UNL1        0.4187
     24 F           0.4180  -16.6662   19.8030 F       1  UNL1       -0.1659
     25 F          -1.1696  -16.0657   21.0753 F       1  UNL1       -0.1659
     26 F          -0.4828  -18.5736   19.5793 F       1  UNL1       -0.1659
     27 O          -4.2743  -18.0156   24.1518 O.3     1  UNL1       -0.4205
     28 C          -4.6438  -16.6106   24.5253 C.3     1  UNL1        0.5087
     29 F          -4.7576  -15.5575   23.4633 F       1  UNL1       -0.1550
     30 F          -4.8993  -16.2587   25.9608 F       1  UNL1       -0.1550
@<TRIPOS>UNITY_ATOM_ATTR
14 1
charge -1
@<TRIPOS>BOND
     1     9    10    1
     2    10    11    3
     3    11     8    1
     4     8    12    1
     5    12    13    1
     6    13    14   ar
     7    13    15   ar
     8     8     1    1
     9     1     2   ar
    10     2     3   ar
    11     3     4   ar
    12     4    16    1
    13    16    17    1
    14    17    18   ar
    15    18    19   ar
    16    19    20   ar
    17    20    23    1
    18    23    24    1
    19    23    25    1
    20    23    26    1
    21    20    21   ar
    22    21    22   ar
    23    22    27    1
    24    27    28    1
    25    28    29    1
    26    28    30    1
    27     4     5   ar
    28     5     6   ar
    29     6     7    1
    30     6     1   ar
    31    22    17   ar
@<TRIPOS>MOLECULE
*****
 30 31 0 0 0
SMALL
GASTEIGER

@<TRIPOS>ATOM
      1 C         -10.5477  -18.0752   22.4390 C.ar    1  UNL1        0.0176
      2 C         -10.5300  -19.5751   22.4401 C.ar    1  UNL1        0.0020
      3 C          -9.2242  -20.3097   22.5115 C.ar    1  UNL1        0.0373
      4 C          -7.9360  -19.5445   22.5818 C.ar    1  UNL1        0.1477
      5 C          -7.9537  -18.0447   22.5807 C.ar    1  UNL1        0.0668
      6 C          -9.2595  -17.3100   22.5092 C.ar    1  UNL1        0.1401
      7 F          -9.2771  -15.8101   22.5081 F       1  UNL1       -0.2044
      8 C         -11.8535  -17.3406   22.3675 C.3     1  UNL1        0.0939
      9 C         -15.2430  -18.5068   25.0880 C.3     1  UNL1        0.0900
     10 C         -14.1132  -18.1181   24.1812 C.1     1  UNL1       -0.0897
     11 C         -12.9833  -17.7293   23.2743 C.1     1  UNL1       -0.0871
     12 C         -12.0295  -16.2172   21.3893 C.3     1  UNL1        0.0591
     13 C         -11.5437  -16.3684   19.9782 C.2     1  UNL1        0.0517
     14 O         -11.6874  -17.6841   19.2725 O.co2   1  UNL1       -0.5491
     15 O         -10.9143  -15.2037   19.2729 O.co2   1  UNL1       -0.5491
     16 O          -6.6302  -20.2792   22.6532 O.3     1  UNL1       -0.4504
     17 C          -5.4509  -19.7910   21.8652 C.ar    1  UNL1        0.1791
     18 C          -4.4190  -18.9216   22.5205 C.ar    1  UNL1        0.0406
     19 C          -3.2397  -18.4334   21.7325 C.ar    1  UNL1        0.0072
     20 C          -3.0923  -18.8146   20.2893 C.ar    1  UNL1        0.0746
     21 C          -4.1241  -19.6840   19.6340 C.ar    1  UNL1        0.0441
     22 C          -5.3035  -20.1722   20.4220 C.ar    1  UNL1        0.1785
     23 C          -1.9129  -18.3264   19.5013 C.3     1  UNL1        0.4187
     24 F          -0.7336  -17.8382   18.7134 F       1  UNL1       -0.1659
     25 F          -2.8378  -17.6228   18.5529 F       1  UNL1       -0.1659
     26 F          -0.9881  -19.0299   20.4497 F       1  UNL1       -0.1659
     27 O          -6.3354  -21.0416   19.7667 O.3     1  UNL1       -0.4205
     28 C          -7.5653  -20.4252   19.1689 C.3     1  UNL1        0.5087
     29 F          -7.8511  -18.9676   19.3778 F       1  UNL1       -0.1550
     30 F          -8.5095  -21.2665   18.3622 F       1  UNL1       -0.1550
@<TRIPOS>UNITY_ATOM_ATTR
14 1
charge -1
@<TRIPOS>BOND
     1     9    10    1
     2    10    11    3
     3    11     8    1
     4     8    12    1
     5    12    13    1
     6    13    14   ar
     7    13    15   ar
     8     8     1    1
     9     1     2   ar
    10     2     3   ar
    11     3     4   ar
    12     4    16    1
    13    16    17    1
    14    17    18   ar
    15    18    19   ar
    16    19    20   ar
    17    20    23    1
    18    23    24    1
    19    23    25    1
    20    23    26    1
    21    20    21   ar
    22    21    22   ar
    23    22    27    1
    24    27    28    1
    25    28    29    1
    26    28    30    1
    27     4     5   ar
    28     5     6   ar
    29     6     7    1
    30     6     1   ar
    31    22    17   ar
@<TRIPOS>MOLECULE
*****
 30 31 0 0 0
SMALL
GASTEIGER

@<TRIPOS>ATOM
      1 C          -8.6439  -18.1215   23.1135 C.ar    1  UNL1        0.0176
      2 C          -8.4013  -19.5982   23.2152 C.ar    1  UNL1        0.0020
      3 C          -7.3517  -20.2464   22.3619 C.ar    1  UNL1        0.0373
      4 C          -6.5447  -19.4178   21.4069 C.ar    1  UNL1        0.1477
      5 C          -6.7873  -17.9411   21.3052 C.ar    1  UNL1        0.0668
      6 C          -7.8369  -17.2929   22.1585 C.ar    1  UNL1        0.1401
      7 F          -8.0795  -15.8161   22.0567 F       1  UNL1       -0.2044
      8 C          -9.6936  -17.4733   23.9669 C.3     1  UNL1        0.0939
      9 C          -8.4901  -15.0613   27.5702 C.3     1  UNL1        0.0900
     10 C          -8.8912  -15.8653   26.3691 C.1     1  UNL1       -0.0897
     11 C          -9.2924  -16.6693   25.1679 C.1     1  UNL1       -0.0871
     12 C         -11.1443  -17.6292   23.6191 C.3     1  UNL1        0.0591
     13 C         -11.6537  -17.1474   22.2931 C.2     1  UNL1        0.0517
     14 O         -11.2102  -15.8184   21.7572 O.co2   1  UNL1       -0.5491
     15 O         -12.6065  -17.9946   21.5029 O.co2   1  UNL1       -0.5491
     16 O          -5.4951  -20.0660   20.5535 O.3     1  UNL1       -0.4504
     17 C          -4.1355  -19.4436   20.4348 C.ar    1  UNL1        0.1791
     18 C          -3.4919  -19.2990   19.0876 C.ar    1  UNL1        0.0406
     19 C          -2.1323  -18.6766   18.9688 C.ar    1  UNL1        0.0072
     20 C          -1.4162  -18.1989   20.1973 C.ar    1  UNL1        0.0746
     21 C          -2.0597  -18.3436   21.5444 C.ar    1  UNL1        0.0441
     22 C          -3.4194  -18.9659   21.6632 C.ar    1  UNL1        0.1785
     23 C          -0.0565  -17.5766   20.0785 C.3     1  UNL1        0.4187
     24 F           1.3030  -16.9542   19.9597 F       1  UNL1       -0.1659
     25 F           0.5159  -18.9036   19.6771 F       1  UNL1       -0.1659
     26 F          -0.6290  -16.2495   20.4799 F       1  UNL1       -0.1659
     27 O          -4.0629  -19.1106   23.0104 O.3     1  UNL1       -0.4205
     28 C          -4.1081  -17.9417   23.9494 C.3     1  UNL1        0.5087
     29 F          -4.9684  -16.7553   23.6293 F       1  UNL1       -0.1550
     30 F          -3.2931  -17.9592   25.2085 F       1  UNL1       -0.1550
@<TRIPOS>UNITY_ATOM_ATTR
14 1
charge -1
@<TRIPOS>BOND
     1     9    10    1
     2    10    11    3
     3    11     8    1
     4     8    12    1
     5    12    13    1
     6    13    14   ar
     7    13    15   ar
     8     8     1    1
     9     1     2   ar
    10     2     3   ar
    11     3     4   ar
    12     4    16    1
    13    16    17    1
    14    17    18   ar
    15    18    19   ar
    16    19    20   ar
    17    20    23    1
    18    23    24    1
    19    23    25    1
    20    23    26    1
    21    20    21   ar
    22    21    22   ar
    23    22    27    1
    24    27    28    1
    25    28    29    1
    26    28    30    1
    27     4     5   ar
    28     5     6   ar
    29     6     7    1
    30     6     1   ar
    31    22    17   ar
@<TRIPOS>MOLECULE
*****
 30 31 0 0 0
SMALL
GASTEIGER

@<TRIPOS>ATOM
      1 C          -8.7110  -17.8574   23.1388 C.ar    1  UNL1        0.0176
      2 C          -8.5365  -19.3381   23.3023 C.ar    1  UNL1        0.0020
      3 C          -7.4886  -20.0619   22.5099 C.ar    1  UNL1        0.0373
      4 C          -6.6151  -19.3049   21.5539 C.ar    1  UNL1        0.1477
      5 C          -6.7896  -17.8241   21.3903 C.ar    1  UNL1        0.0668
      6 C          -7.8375  -17.1004   22.1828 C.ar    1  UNL1        0.1401
      7 F          -8.0120  -15.6195   22.0192 F       1  UNL1       -0.2044
      8 C          -9.7589  -17.1336   23.9312 C.3     1  UNL1        0.0939
      9 C         -14.0882  -18.2910   23.5223 C.3     1  UNL1        0.0900
     10 C         -12.6452  -17.9052   23.6586 C.1     1  UNL1       -0.0897
     11 C         -11.2020  -17.5194   23.7949 C.1     1  UNL1       -0.0871
     12 C          -9.3638  -16.0240   24.8599 C.3     1  UNL1        0.0591
     13 C          -8.8582  -16.3418   26.2359 C.2     1  UNL1        0.0517
     14 O          -8.8686  -17.7580   26.7302 O.co2   1  UNL1       -0.5491
     15 O          -8.3423  -15.2435   27.1177 O.co2   1  UNL1       -0.5491
     16 O          -5.5672  -20.0287   20.7614 O.3     1  UNL1       -0.4504
     17 C          -4.2068  -19.4216   20.5862 C.ar    1  UNL1        0.1791
     18 C          -3.6064  -19.3091   19.2162 C.ar    1  UNL1        0.0406
     19 C          -2.2461  -18.7020   19.0410 C.ar    1  UNL1        0.0072
     20 C          -1.4860  -18.2074   20.2358 C.ar    1  UNL1        0.0746
     21 C          -2.0862  -18.3199   21.6058 C.ar    1  UNL1        0.0441
     22 C          -3.4467  -18.9270   21.7811 C.ar    1  UNL1        0.1785
     23 C          -0.1255  -17.6002   20.0606 C.3     1  UNL1        0.4187
     24 F           1.2349  -16.9931   19.8854 F       1  UNL1       -0.1659
     25 F           0.4092  -18.9278   19.6117 F       1  UNL1       -0.1659
     26 F          -0.6602  -16.2726   20.5095 F       1  UNL1       -0.1659
     27 O          -4.0470  -19.0395   23.1511 O.3     1  UNL1       -0.4205
     28 C          -4.0912  -17.8405   24.0513 C.3     1  UNL1        0.5087
     29 F          -3.4805  -17.9070   25.4197 F       1  UNL1       -0.1550
     30 F          -4.7463  -16.5749   23.5832 F       1  UNL1       -0.1550
@<TRIPOS>UNITY_ATOM_ATTR
14 1
charge -1
@<TRIPOS>BOND
     1     9    10    1
     2    10    11    3
     3    11     8    1
     4     8    12    1
     5    12    13    1
     6    13    14   ar
     7    13    15   ar
     8     8     1    1
     9     1     2   ar
    10     2     3   ar
    11     3     4   ar
    12     4    16    1
    13    16    17    1
    14    17    18   ar
    15    18    19   ar
    16    19    20   ar
    17    20    23    1
    18    23    24    1
    19    23    25    1
    20    23    26    1
    21    20    21   ar
    22    21    22   ar
    23    22    27    1
    24    27    28    1
    25    28    29    1
    26    28    30    1
    27     4     5   ar
    28     5     6   ar
    29     6     7    1
    30     6     1   ar
    31    22    17   ar
@<TRIPOS>MOLECULE
*****
 30 31 0 0 0
SMALL
GASTEIGER

@<TRIPOS>ATOM
      1 C          -5.8761  -18.9216   21.1087 C.ar    1  UNL1        0.0176
      2 C          -6.4869  -19.7403   20.0103 C.ar    1  UNL1        0.0020
      3 C          -7.9726  -19.7291   19.8039 C.ar    1  UNL1        0.0373
      4 C          -8.8475  -18.8993   20.6960 C.ar    1  UNL1        0.1477
      5 C          -8.2366  -18.0806   21.7944 C.ar    1  UNL1        0.0668
      6 C          -6.7509  -18.0917   22.0008 C.ar    1  UNL1        0.1401
      7 F          -6.1401  -17.2730   23.0993 F       1  UNL1       -0.2044
      8 C          -4.3904  -18.9327   21.3150 C.3     1  UNL1        0.0939
      9 C          -1.6448  -17.6991   17.9699 C.3     1  UNL1        0.0900
     10 C          -2.5600  -18.1103   19.0849 C.1     1  UNL1       -0.0897
     11 C          -3.4752  -18.5215   20.2000 C.1     1  UNL1       -0.0871
     12 C          -3.8198  -19.3551   22.6364 C.3     1  UNL1        0.0591
     13 C          -3.0998  -18.3584   23.4955 C.2     1  UNL1        0.0517
     14 O          -1.7736  -17.8108   23.0582 O.co2   1  UNL1       -0.5491
     15 O          -3.7060  -17.9092   24.7920 O.co2   1  UNL1       -0.5491
     16 O         -10.3331  -18.8881   20.4897 O.3     1  UNL1       -0.4504
     17 C         -11.2536  -18.7939   21.6702 C.ar    1  UNL1        0.1791
     18 C         -11.0206  -19.6582   22.8739 C.ar    1  UNL1        0.0406
     19 C         -11.9411  -19.5639   24.0545 C.ar    1  UNL1        0.0072
     20 C         -13.0946  -18.6054   24.0315 C.ar    1  UNL1        0.0746
     21 C         -13.3277  -17.7411   22.8279 C.ar    1  UNL1        0.0441
     22 C         -12.4072  -17.8353   21.6472 C.ar    1  UNL1        0.1785
     23 C         -14.0151  -18.5112   25.2121 C.3     1  UNL1        0.4187
     24 F         -14.9355  -18.4170   26.3927 F       1  UNL1       -0.1659
     25 F         -15.1989  -18.5377   24.2913 F       1  UNL1       -0.1659
     26 F         -12.8313  -18.4847   26.1329 F       1  UNL1       -0.1659
     27 O         -12.6403  -16.9711   20.4436 O.3     1  UNL1       -0.4205
     28 C         -11.6178  -15.9484   20.0453 C.3     1  UNL1        0.5087
     29 F         -11.7118  -15.2752   18.7082 F       1  UNL1       -0.1550
     30 F         -10.5012  -15.5990   20.9840 F       1  UNL1       -0.1550
@<TRIPOS>UNITY_ATOM_ATTR
14 1
charge -1
@<TRIPOS>BOND
     1     9    10    1
     2    10    11    3
     3    11     8    1
     4     8    12    1
     5    12    13    1
     6    13    14   ar
     7    13    15   ar
     8     8     1    1
     9     1     2   ar
    10     2     3   ar
    11     3     4   ar
    12     4    16    1
    13    16    17    1
    14    17    18   ar
    15    18    19   ar
    16    19    20   ar
    17    20    23    1
    18    23    24    1
    19    23    25    1
    20    23    26    1
    21    20    21   ar
    22    21    22   ar
    23    22    27    1
    24    27    28    1
    25    28    29    1
    26    28    30    1
    27     4     5   ar
    28     5     6   ar
    29     6     7    1
    30     6     1   ar
    31    22    17   ar
@<TRIPOS>MOLECULE
*****
 30 31 0 0 0
SMALL
GASTEIGER

@<TRIPOS>ATOM
      1 C          -9.3286  -18.1669   22.4175 C.ar    1  UNL1        0.0176
      2 C          -9.2081  -19.6294   22.7279 C.ar    1  UNL1        0.0020
      3 C          -7.8551  -20.2741   22.7894 C.ar    1  UNL1        0.0373
      4 C          -6.6226  -19.4563   22.5404 C.ar    1  UNL1        0.1477
      5 C          -6.7431  -17.9937   22.2300 C.ar    1  UNL1        0.0668
      6 C          -8.0961  -17.3491   22.1685 C.ar    1  UNL1        0.1401
      7 F          -8.2166  -15.8864   21.8580 F       1  UNL1       -0.2044
      8 C         -10.6816  -17.5222   22.3560 C.3     1  UNL1        0.0939
      9 C         -11.9192  -15.2347   18.6838 C.3     1  UNL1        0.0900
     10 C         -11.5067  -15.9972   19.9078 C.1     1  UNL1       -0.0897
     11 C         -11.0941  -16.7597   21.1319 C.1     1  UNL1       -0.0871
     12 C         -11.6221  -17.6401   23.5185 C.3     1  UNL1        0.0591
     13 C         -13.0668  -17.9685   23.2842 C.2     1  UNL1        0.0517
     14 O         -13.5753  -18.1597   21.8860 O.co2   1  UNL1       -0.5491
     15 O         -14.0031  -18.1057   24.4481 O.co2   1  UNL1       -0.5491
     16 O          -5.2696  -20.1009   22.6019 O.3     1  UNL1       -0.4504
     17 C          -4.0798  -19.4054   22.0099 C.ar    1  UNL1        0.1791
     18 C          -3.5329  -19.8504   20.6859 C.ar    1  UNL1        0.0406
     19 C          -2.3431  -19.1549   20.0938 C.ar    1  UNL1        0.0072
     20 C          -1.7001  -18.0143   20.8258 C.ar    1  UNL1        0.0746
     21 C          -2.2469  -17.5693   22.1497 C.ar    1  UNL1        0.0441
     22 C          -3.4368  -18.2648   22.7418 C.ar    1  UNL1        0.1785
     23 C          -0.5103  -17.3187   20.2336 C.3     1  UNL1        0.4187
     24 F           0.6795  -16.6232   19.6416 F       1  UNL1       -0.1659
     25 F          -0.0919  -18.5980   19.5716 F       1  UNL1       -0.1659
     26 F          -0.9287  -16.0395   20.8957 F       1  UNL1       -0.1659
     27 O          -3.9836  -17.8198   24.0658 O.3     1  UNL1       -0.4205
     28 C          -4.6445  -16.4791   24.1919 C.3     1  UNL1        0.5087
     29 F          -4.2521  -15.3602   23.2733 F       1  UNL1       -0.1550
     30 F          -5.6976  -16.2574   25.2367 F       1  UNL1       -0.1550
@<TRIPOS>UNITY_ATOM_ATTR
14 1
charge -1
@<TRIPOS>BOND
     1     9    10    1
     2    10    11    3
     3    11     8    1
     4     8    12    1
     5    12    13    1
     6    13    14   ar
     7    13    15   ar
     8     8     1    1
     9     1     2   ar
    10     2     3   ar
    11     3     4   ar
    12     4    16    1
    13    16    17    1
    14    17    18   ar
    15    18    19   ar
    16    19    20   ar
    17    20    23    1
    18    23    24    1
    19    23    25    1
    20    23    26    1
    21    20    21   ar
    22    21    22   ar
    23    22    27    1
    24    27    28    1
    25    28    29    1
    26    28    30    1
    27     4     5   ar
    28     5     6   ar
    29     6     7    1
    30     6     1   ar
    31    22    17   ar
@<TRIPOS>MOLECULE
*****
 30 31 0 0 0
SMALL
GASTEIGER

@<TRIPOS>ATOM
      1 C          -5.3830  -18.1542   22.4460 C.ar    1  UNL1        0.0176
      2 C          -5.8007  -19.3083   21.5838 C.ar    1  UNL1        0.0020
      3 C          -7.2158  -19.4063   21.0959 C.ar    1  UNL1        0.0373
      4 C          -8.2130  -18.3502   21.4702 C.ar    1  UNL1        0.1477
      5 C          -7.7953  -17.1961   22.3324 C.ar    1  UNL1        0.0668
      6 C          -6.3802  -17.0981   22.8203 C.ar    1  UNL1        0.1401
      7 F          -5.9625  -15.9439   23.6826 F       1  UNL1       -0.2044
      8 C          -3.9679  -18.0561   22.9340 C.3     1  UNL1        0.0939
      9 C          -3.1258  -17.7257   27.3421 C.3     1  UNL1        0.0900
     10 C          -3.4065  -17.8358   25.8727 C.1     1  UNL1       -0.0897
     11 C          -3.6872  -17.9460   24.4033 C.1     1  UNL1       -0.0871
     12 C          -2.8337  -18.0682   21.9526 C.3     1  UNL1        0.0591
     13 C          -2.2537  -16.7753   21.4606 C.2     1  UNL1        0.0517
     14 O          -2.8626  -15.4713   21.8833 O.co2   1  UNL1       -0.5491
     15 O          -1.0648  -16.7865   20.5459 O.co2   1  UNL1       -0.5491
     16 O          -9.6281  -18.4483   20.9822 O.3     1  UNL1       -0.4504
     17 C         -10.7609  -18.4653   21.9652 C.ar    1  UNL1        0.1791
     18 C         -10.5948  -19.1507   23.2892 C.ar    1  UNL1        0.0406
     19 C         -11.7277  -19.1678   24.2722 C.ar    1  UNL1        0.0072
     20 C         -13.0266  -18.4994   23.9313 C.ar    1  UNL1        0.0746
     21 C         -13.1927  -17.8140   22.6075 C.ar    1  UNL1        0.0441
     22 C         -12.0598  -17.7970   21.6244 C.ar    1  UNL1        0.1785
     23 C         -14.1594  -18.5165   24.9144 C.3     1  UNL1        0.4187
     24 F         -15.2923  -18.5335   25.8975 F       1  UNL1       -0.1659
     25 F         -13.1768  -18.5844   26.0457 F       1  UNL1       -0.1659
     26 F         -15.1421  -18.4486   23.7832 F       1  UNL1       -0.1659
     27 O         -12.2259  -17.1116   20.3005 O.3     1  UNL1       -0.4205
     28 C         -11.3986  -15.9042   19.9720 C.3     1  UNL1        0.5087
     29 F         -11.5579  -15.2245   18.6444 F       1  UNL1       -0.1550
     30 F         -10.4120  -15.3766   20.9711 F       1  UNL1       -0.1550
@<TRIPOS>UNITY_ATOM_ATTR
14 1
charge -1
@<TRIPOS>BOND
     1     9    10    1
     2    10    11    3
     3    11     8    1
     4     8    12    1
     5    12    13    1
     6    13    14   ar
     7    13    15   ar
     8     8     1    1
     9     1     2   ar
    10     2     3   ar
    11     3     4   ar
    12     4    16    1
    13    16    17    1
    14    17    18   ar
    15    18    19   ar
    16    19    20   ar
    17    20    23    1
    18    23    24    1
    19    23    25    1
    20    23    26    1
    21    20    21   ar
    22    21    22   ar
    23    22    27    1
    24    27    28    1
    25    28    29    1
    26    28    30    1
    27     4     5   ar
    28     5     6   ar
    29     6     7    1
    30     6     1   ar
    31    22    17   ar
@<TRIPOS>MOLECULE
*****
 30 31 0 0 0
SMALL
GASTEIGER

@<TRIPOS>ATOM
      1 C           4.7319   -2.9098   21.1451 C.ar    1  UNL1        0.0176
      2 C           4.4619   -3.5006   22.4971 C.ar    1  UNL1        0.0020
      3 C           5.5511   -3.5446   23.5275 C.ar    1  UNL1        0.0373
      4 C           6.9102   -2.9977   23.2059 C.ar    1  UNL1        0.1477
      5 C           7.1802   -2.4069   21.8539 C.ar    1  UNL1        0.0668
      6 C           6.0910   -2.3629   20.8235 C.ar    1  UNL1        0.1401
      7 F           6.3611   -1.7720   19.4714 F       1  UNL1       -0.2044
      8 C           3.6427   -2.8658   20.1147 C.3     1  UNL1        0.0939
      9 C           0.6523    0.4968   20.1437 C.3     1  UNL1        0.0900
     10 C           1.6491   -0.6241   20.1340 C.1     1  UNL1       -0.0897
     11 C           2.6459   -1.7450   20.1243 C.1     1  UNL1       -0.0871
     12 C           3.5502   -3.9427   19.0746 C.3     1  UNL1        0.0591
     13 C           3.9190   -5.3545   19.4220 C.2     1  UNL1        0.0517
     14 O           3.1271   -6.1049   20.4515 O.co2   1  UNL1       -0.5491
     15 O           5.0797   -6.0160   18.7399 O.co2   1  UNL1       -0.5491
     16 O           7.9994   -3.0417   24.2363 O.3     1  UNL1       -0.4504
     17 C           7.7335   -3.6453   25.5834 C.ar    1  UNL1        0.1791
     18 C           7.0157   -2.8499   26.6333 C.ar    1  UNL1        0.0406
     19 C           6.7497   -3.4535   27.9804 C.ar    1  UNL1        0.0072
     20 C           7.2016   -4.8526   28.2778 C.ar    1  UNL1        0.0746
     21 C           7.9194   -5.6480   27.2281 C.ar    1  UNL1        0.0441
     22 C           8.1854   -5.0444   25.8809 C.ar    1  UNL1        0.1785
     23 C           6.9357   -5.4562   29.6251 C.3     1  UNL1        0.4187
     24 F           6.6697   -6.0598   30.9722 F       1  UNL1       -0.1659
     25 F           6.3415   -4.1594   30.0889 F       1  UNL1       -0.1659
     26 F           7.5299   -6.7530   29.1613 F       1  UNL1       -0.1659
     27 O           8.9032   -5.8398   24.8311 O.3     1  UNL1       -0.4205
     28 C           8.3170   -7.1283   24.3349 C.3     1  UNL1        0.5087
     29 F           8.6082   -7.5966   22.9400 F       1  UNL1       -0.1550
     30 F           7.4396   -7.9483   25.2335 F       1  UNL1       -0.1550
@<TRIPOS>UNITY_ATOM_ATTR
14 1
charge -1
@<TRIPOS>BOND
     1     9    10    1
     2    10    11    3
     3    11     8    1
     4     8    12    1
     5    12    13    1
     6    13    14   ar
     7    13    15   ar
     8     8     1    1
     9     1     2   ar
    10     2     3   ar
    11     3     4   ar
    12     4    16    1
    13    16    17    1
    14    17    18   ar
    15    18    19   ar
    16    19    20   ar
    17    20    23    1
    18    23    24    1
    19    23    25    1
    20    23    26    1
    21    20    21   ar
    22    21    22   ar
    23    22    27    1
    24    27    28    1
    25    28    29    1
    26    28    30    1
    27     4     5   ar
    28     5     6   ar
    29     6     7    1
    30     6     1   ar
    31    22    17   ar
