@<TRIPOS>MOLECULE
*****
 33 37 0 0 0
SMALL
GASTEIGER

@<TRIPOS>ATOM
      1 N           1.1513   -0.9136   19.9697 N.pl3   1  UNL1       -0.2802
      2 H           0.5821   -1.6908   19.7668 H       1  UNL1        0.1552
      3 C           0.6331    0.4754   19.7415 C.ar    1  UNL1        0.2208
      4 N           0.9634    1.1996   18.4701 N.ar    1  UNL1       -0.2111
      5 C           0.4452    2.5887   18.2419 C.ar    1  UNL1        0.1147
      6 C          -0.4032    3.2535   19.2851 C.ar    1  UNL1        0.0960
      7 CL         -0.9213    4.6425   19.0569 Cl      1  UNL1       -0.0790
      8 C          -0.7334    2.5292   20.5566 C.ar    1  UNL1        0.1138
      9 N          -0.2152    1.1403   20.7847 N.ar    1  UNL1       -0.2111
     10 C          -1.5818    3.1941   21.5998 C.ar    1  UNL1        0.1031
     11 C          -1.1152    3.6703   22.9435 C.ar    1  UNL1        0.1196
     12 N          -2.2908    4.2699   23.6565 N.ar    1  UNL1       -0.2248
     13 C          -3.4839    4.1643   22.7535 C.ar    1  UNL1        0.1479
     14 C          -4.9126    4.5877   22.9246 C.ar    1  UNL1        0.0374
     15 C          -5.9032    4.3462   21.8244 C.ar    1  UNL1        0.0046
     16 C          -5.4650    3.6813   20.5533 C.ar    1  UNL1        0.0191
     17 C          -4.0363    3.2579   20.3822 C.ar    1  UNL1        0.0815
     18 N          -3.0457    3.4994   21.4824 N.ar    1  UNL1       -0.2874
     19 C           3.6578   -1.4721   19.5752 C.ar    1  UNL1        0.1518
     20 C           5.0433   -1.6770   20.1125 C.ar    1  UNL1        0.0353
     21 C           5.3075   -1.5283   21.5815 C.ar    1  UNL1       -0.0030
     22 C           4.1864   -1.1747   22.5132 C.ar    1  UNL1       -0.0014
     23 C           2.8011   -0.9698   21.9759 C.ar    1  UNL1        0.0175
     24 C           2.5367   -1.1185   20.5069 C.ar    1  UNL1        0.0849
     25 C           3.9283   -0.6045   17.1412 C.3     1  UNL1        0.2525
     26 O           3.3935   -1.6208   18.1061 O.3     1  UNL1       -0.4702
     27 C           6.6929   -1.7332   22.1188 C.3     1  UNL1        0.0994
     28 N           7.2528   -3.1195   22.2400 N.3     1  UNL1       -0.2646
     29 C           7.9837   -3.7369   21.0848 C.3     1  UNL1        0.1049
     30 C           8.5435   -5.1232   21.2061 C.3     1  UNL1        0.1595
     31 O           8.3726   -5.8922   22.4826 O.3     1  UNL1       -0.3508
     32 C           7.6417   -5.2748   23.6379 C.3     1  UNL1        0.1595
     33 C           7.0818   -3.8885   23.5166 C.3     1  UNL1        0.1049
@<TRIPOS>BOND
     1    25    26    1
     2    26    19    1
     3    19    20   ar
     4    20    21   ar
     5    21    27    1
     6    27    28    1
     7    28    29    1
     8    29    30    1
     9    30    31    1
    10    31    32    1
    11    32    33    1
    12    21    22   ar
    13    22    23   ar
    14    23    24   ar
    15    24     1    1
    16     1     3    1
    17     3     4   ar
    18     4     5   ar
    19     5     6   ar
    20     6     7    1
    21     6     8   ar
    22     8    10    1
    23    10    11   ar
    24    11    12   ar
    25    12    13   ar
    26    13    14   ar
    27    14    15   ar
    28    15    16   ar
    29    16    17   ar
    30    17    18   ar
    31     8     9   ar
    32    24    19   ar
    33     9     3   ar
    34    33    28    1
    35    18    10   ar
    36    18    13   ar
    37     1     2    1
@<TRIPOS>MOLECULE
*****
 33 37 0 0 0
SMALL
GASTEIGER

@<TRIPOS>ATOM
      1 N           4.6100   -3.1052   19.3395 N.pl3   1  UNL1       -0.2802
      2 H           4.4350   -3.9539   18.8723 H       1  UNL1        0.1552
      3 C           5.8047   -2.9757   20.2372 C.ar    1  UNL1        0.2208
      4 N           6.9396   -2.0745   19.8500 N.ar    1  UNL1       -0.2111
      5 C           8.1343   -1.9450   20.7477 C.ar    1  UNL1        0.1147
      6 C           8.1941   -2.7167   22.0326 C.ar    1  UNL1        0.0960
      7 CL          9.3888   -2.5873   22.9303 Cl      1  UNL1       -0.0790
      8 C           7.0592   -3.6180   22.4198 C.ar    1  UNL1        0.1138
      9 N           5.8645   -3.7474   21.5221 N.ar    1  UNL1       -0.2111
     10 C           7.1190   -4.3897   23.7046 C.ar    1  UNL1        0.1031
     11 C           6.3814   -4.0575   24.9678 C.ar    1  UNL1        0.1196
     12 N           6.7336   -5.0916   25.9957 N.ar    1  UNL1       -0.2248
     13 C           7.6888   -6.0629   25.3679 C.ar    1  UNL1        0.1479
     14 C           8.3724   -7.2863   25.9026 C.ar    1  UNL1        0.0374
     15 C           9.2942   -8.0759   25.0213 C.ar    1  UNL1        0.0046
     16 C           9.5325   -7.6420   23.6053 C.ar    1  UNL1        0.0191
     17 C           8.8488   -6.4187   23.0706 C.ar    1  UNL1        0.0815
     18 N           7.9270   -5.6291   23.9519 N.ar    1  UNL1       -0.2874
     19 C           3.9171   -0.9652   18.0394 C.ar    1  UNL1        0.1518
     20 C           2.9890    0.1985   17.8534 C.ar    1  UNL1        0.0353
     21 C           1.8256    0.3857   18.7817 C.ar    1  UNL1       -0.0030
     22 C           1.5904   -0.5907   19.8958 C.ar    1  UNL1       -0.0014
     23 C           2.5185   -1.7543   20.0817 C.ar    1  UNL1        0.0175
     24 C           3.6819   -1.9416   19.1535 C.ar    1  UNL1        0.0849
     25 C           6.1023   -0.0647   16.9604 C.3     1  UNL1        0.2525
     26 O           5.0805   -1.1524   17.1111 O.3     1  UNL1       -0.4702
     27 C           0.8976    1.5494   18.5957 C.3     1  UNL1        0.0994
     28 N           1.2568    2.8926   19.1585 N.3     1  UNL1       -0.2646
     29 C           2.1866    3.7971   18.4051 C.3     1  UNL1        0.1049
     30 C           2.5458    5.1403   18.9680 C.3     1  UNL1        0.1595
     31 O           1.9754    5.5790   20.2841 O.3     1  UNL1       -0.3508
     32 C           1.0457    4.6745   21.0374 C.3     1  UNL1        0.1595
     33 C           0.6864    3.3313   20.4747 C.3     1  UNL1        0.1049
@<TRIPOS>BOND
     1    25    26    1
     2    26    19    1
     3    19    20   ar
     4    20    21   ar
     5    21    27    1
     6    27    28    1
     7    28    29    1
     8    29    30    1
     9    30    31    1
    10    31    32    1
    11    32    33    1
    12    21    22   ar
    13    22    23   ar
    14    23    24   ar
    15    24     1    1
    16     1     3    1
    17     3     4   ar
    18     4     5   ar
    19     5     6   ar
    20     6     7    1
    21     6     8   ar
    22     8    10    1
    23    10    11   ar
    24    11    12   ar
    25    12    13   ar
    26    13    14   ar
    27    14    15   ar
    28    15    16   ar
    29    16    17   ar
    30    17    18   ar
    31     8     9   ar
    32    24    19   ar
    33     9     3   ar
    34    33    28    1
    35    18    10   ar
    36    18    13   ar
    37     1     2    1
@<TRIPOS>MOLECULE
*****
 33 37 0 0 0
SMALL
GASTEIGER

@<TRIPOS>ATOM
      1 N           2.3015    2.0018   24.8646 N.pl3   1  UNL1       -0.2802
      2 H           2.8950    2.7857   24.9141 H       1  UNL1        0.1552
      3 C           1.4224    1.6520   26.0286 C.ar    1  UNL1        0.2208
      4 N          -0.0673    1.6133   25.8584 N.ar    1  UNL1       -0.2111
      5 C          -0.9464    1.2634   27.0224 C.ar    1  UNL1        0.1147
      6 C          -0.3356    0.9523   28.3566 C.ar    1  UNL1        0.0960
      7 CL         -1.2146    0.6024   29.5206 Cl      1  UNL1       -0.0790
      8 C           1.1543    0.9910   28.5268 C.ar    1  UNL1        0.1138
      9 N           2.0332    1.3408   27.3628 N.ar    1  UNL1       -0.2111
     10 C           1.7651    0.6798   29.8610 C.ar    1  UNL1        0.1031
     11 C           2.4540   -0.5980   30.2389 C.ar    1  UNL1        0.1196
     12 N           2.9088   -0.4756   31.6630 N.ar    1  UNL1       -0.2248
     13 C           2.5011    0.8777   32.1653 C.ar    1  UNL1        0.1479
     14 C           2.6822    1.5520   33.4929 C.ar    1  UNL1        0.0374
     15 C           2.1563    2.9404   33.7067 C.ar    1  UNL1        0.0046
     16 C           1.4495    3.6545   32.5930 C.ar    1  UNL1        0.0191
     17 C           1.2684    2.9802   31.2655 C.ar    1  UNL1        0.0815
     18 N           1.7942    1.5918   31.0516 N.ar    1  UNL1       -0.2874
     19 C           3.2379    0.0161   23.4754 C.ar    1  UNL1        0.1518
     20 C           3.2125   -0.8283   22.2358 C.ar    1  UNL1        0.0353
     21 C           2.2254   -0.5314   21.1461 C.ar    1  UNL1       -0.0030
     22 C           1.2637    0.6099   21.2959 C.ar    1  UNL1       -0.0014
     23 C           1.2891    1.4543   22.5354 C.ar    1  UNL1        0.0175
     24 C           2.2762    1.1574   23.6252 C.ar    1  UNL1        0.0849
     25 C           3.9034   -1.3093   25.6085 C.3     1  UNL1        0.2525
     26 O           4.2250   -0.2808   24.5651 O.3     1  UNL1       -0.4702
     27 C           2.2001   -1.3758   19.9066 C.3     1  UNL1        0.0994
     28 N           3.4554   -1.5770   19.1105 N.3     1  UNL1       -0.2646
     29 C           4.0466   -0.4334   18.3407 C.3     1  UNL1        0.1049
     30 C           5.3020   -0.6346   17.5446 C.3     1  UNL1        0.1595
     31 O           5.9660   -1.9794   17.5183 O.3     1  UNL1       -0.3508
     32 C           5.3748   -3.1229   18.2881 C.3     1  UNL1        0.1595
     33 C           4.1195   -2.9218   19.0842 C.3     1  UNL1        0.1049
@<TRIPOS>BOND
     1    25    26    1
     2    26    19    1
     3    19    20   ar
     4    20    21   ar
     5    21    27    1
     6    27    28    1
     7    28    29    1
     8    29    30    1
     9    30    31    1
    10    31    32    1
    11    32    33    1
    12    21    22   ar
    13    22    23   ar
    14    23    24   ar
    15    24     1    1
    16     1     3    1
    17     3     4   ar
    18     4     5   ar
    19     5     6   ar
    20     6     7    1
    21     6     8   ar
    22     8    10    1
    23    10    11   ar
    24    11    12   ar
    25    12    13   ar
    26    13    14   ar
    27    14    15   ar
    28    15    16   ar
    29    16    17   ar
    30    17    18   ar
    31     8     9   ar
    32    24    19   ar
    33     9     3   ar
    34    33    28    1
    35    18    10   ar
    36    18    13   ar
    37     1     2    1
@<TRIPOS>MOLECULE
*****
 33 37 0 0 0
SMALL
GASTEIGER

@<TRIPOS>ATOM
      1 N           5.8085   -3.1305   25.4498 N.pl3   1  UNL1       -0.2802
      2 H           6.0694   -3.9084   25.9940 H       1  UNL1        0.1552
      3 C           5.5200   -1.8155   26.1111 C.ar    1  UNL1        0.2208
      4 N           6.5412   -0.7174   26.0743 N.ar    1  UNL1       -0.2111
      5 C           6.2527    0.5977   26.7356 C.ar    1  UNL1        0.1147
      6 C           4.9429    0.8147   27.4337 C.ar    1  UNL1        0.0960
      7 CL          4.6544    2.1298   28.0950 Cl      1  UNL1       -0.0790
      8 C           3.9216   -0.2834   27.4706 C.ar    1  UNL1        0.1138
      9 N           4.2102   -1.5984   26.8093 N.ar    1  UNL1       -0.2111
     10 C           2.6119   -0.0664   28.1687 C.ar    1  UNL1        0.1031
     11 C           2.2588   -0.5394   29.5477 C.ar    1  UNL1        0.1196
     12 N           0.8539   -0.1036   29.8417 N.ar    1  UNL1       -0.2248
     13 C           0.3388    0.6388   28.6444 C.ar    1  UNL1        0.1479
     14 C          -0.9793    1.2968   28.3621 C.ar    1  UNL1        0.0374
     15 C          -1.2108    1.9778   27.0459 C.ar    1  UNL1        0.0046
     16 C          -0.1244    2.0008   26.0119 C.ar    1  UNL1        0.0191
     17 C           1.1937    1.3428   26.2942 C.ar    1  UNL1        0.0815
     18 N           1.4252    0.6618   27.6105 N.ar    1  UNL1       -0.2874
     19 C           6.7876   -3.9428   23.1846 C.ar    1  UNL1        0.1518
     20 C           6.6786   -4.0728   21.6941 C.ar    1  UNL1        0.0353
     21 C           5.4815   -3.5204   20.9787 C.ar    1  UNL1       -0.0030
     22 C           4.3934   -2.8381   21.7536 C.ar    1  UNL1       -0.0014
     23 C           4.5024   -2.7082   23.2440 C.ar    1  UNL1        0.0175
     24 C           5.6996   -3.2605   23.9595 C.ar    1  UNL1        0.0849
     25 C           7.9815   -5.9159   24.3811 C.3     1  UNL1        0.2525
     26 O           7.9847   -4.4952   23.9000 O.3     1  UNL1       -0.4702
     27 C           5.3725   -3.6504   19.4883 C.3     1  UNL1        0.0994
     28 N           5.3261   -2.4213   18.6297 N.3     1  UNL1       -0.2646
     29 C           4.0191   -1.9507   18.0639 C.3     1  UNL1        0.1049
     30 C           3.9727   -0.7215   17.2053 C.3     1  UNL1        0.1595
     31 O           5.2333    0.0369   16.9126 O.3     1  UNL1       -0.3508
     32 C           6.5403   -0.4337   17.4785 C.3     1  UNL1        0.1595
     33 C           6.5867   -1.6628   18.3370 C.3     1  UNL1        0.1049
@<TRIPOS>BOND
     1    25    26    1
     2    26    19    1
     3    19    20   ar
     4    20    21   ar
     5    21    27    1
     6    27    28    1
     7    28    29    1
     8    29    30    1
     9    30    31    1
    10    31    32    1
    11    32    33    1
    12    21    22   ar
    13    22    23   ar
    14    23    24   ar
    15    24     1    1
    16     1     3    1
    17     3     4   ar
    18     4     5   ar
    19     5     6   ar
    20     6     7    1
    21     6     8   ar
    22     8    10    1
    23    10    11   ar
    24    11    12   ar
    25    12    13   ar
    26    13    14   ar
    27    14    15   ar
    28    15    16   ar
    29    16    17   ar
    30    17    18   ar
    31     8     9   ar
    32    24    19   ar
    33     9     3   ar
    34    33    28    1
    35    18    10   ar
    36    18    13   ar
    37     1     2    1
@<TRIPOS>MOLECULE
*****
 33 37 0 0 0
SMALL
GASTEIGER

@<TRIPOS>ATOM
      1 N          -9.7780  -19.4556   19.2089 N.pl3   1  UNL1       -0.2802
      2 H         -10.2492  -19.7412   18.3930 H       1  UNL1        0.1552
      3 C         -10.5051  -18.6681   20.2582 C.ar    1  UNL1        0.2208
      4 N         -11.7737  -17.9473   19.9102 N.ar    1  UNL1       -0.2111
      5 C         -12.5008  -17.1598   20.9595 C.ar    1  UNL1        0.1147
      6 C         -11.9594  -17.0931   22.3568 C.ar    1  UNL1        0.0960
      7 CL        -12.6866  -16.3056   23.4061 Cl      1  UNL1       -0.0790
      8 C         -10.6908  -17.8140   22.7048 C.ar    1  UNL1        0.1138
      9 N          -9.9637  -18.6014   21.6555 N.ar    1  UNL1       -0.2111
     10 C         -10.1493  -17.7473   24.1021 C.ar    1  UNL1        0.1031
     11 C         -10.5570  -18.6246   25.2484 C.ar    1  UNL1        0.1196
     12 N          -9.7648  -18.2111   26.4531 N.ar    1  UNL1       -0.2248
     13 C          -8.8675  -17.0782   26.0514 C.ar    1  UNL1        0.1479
     14 C          -7.8648  -16.2706   26.8209 C.ar    1  UNL1        0.0374
     15 C          -7.0997  -15.1764   26.1374 C.ar    1  UNL1        0.0046
     16 C          -7.3373  -14.8897   24.6844 C.ar    1  UNL1        0.0191
     17 C          -8.3401  -15.6973   23.9148 C.ar    1  UNL1        0.0815
     18 N          -9.1052  -16.7916   24.5983 N.ar    1  UNL1       -0.2874
     19 C          -7.7869  -21.0797   18.8242 C.ar    1  UNL1        0.1518
     20 C          -6.3417  -21.4321   19.0179 C.ar    1  UNL1        0.0353
     21 C          -5.4426  -20.5126   19.7899 C.ar    1  UNL1       -0.0030
     22 C          -5.9885  -19.2408   20.3683 C.ar    1  UNL1       -0.0014
     23 C          -7.4336  -18.8885   20.1746 C.ar    1  UNL1        0.0175
     24 C          -8.3329  -19.8080   19.4025 C.ar    1  UNL1        0.0849
     25 C          -9.1515  -21.6147   16.6790 C.3     1  UNL1        0.2525
     26 O          -8.6861  -21.9992   18.0521 O.3     1  UNL1       -0.4702
     27 C          -3.9975  -20.8649   19.9836 C.3     1  UNL1        0.0994
     28 N          -2.9956  -19.7876   20.2759 N.3     1  UNL1       -0.2646
     29 C          -2.5209  -19.5662   21.6815 C.3     1  UNL1        0.1049
     30 C          -1.5189  -18.4888   21.9738 C.3     1  UNL1        0.1595
     31 O          -0.9917  -17.6328   20.8606 O.3     1  UNL1       -0.3508
     32 C          -1.4664  -17.8541   19.4550 C.3     1  UNL1        0.1595
     33 C          -2.4683  -18.9315   19.1626 C.3     1  UNL1        0.1049
@<TRIPOS>BOND
     1    25    26    1
     2    26    19    1
     3    19    20   ar
     4    20    21   ar
     5    21    27    1
     6    27    28    1
     7    28    29    1
     8    29    30    1
     9    30    31    1
    10    31    32    1
    11    32    33    1
    12    21    22   ar
    13    22    23   ar
    14    23    24   ar
    15    24     1    1
    16     1     3    1
    17     3     4   ar
    18     4     5   ar
    19     5     6   ar
    20     6     7    1
    21     6     8   ar
    22     8    10    1
    23    10    11   ar
    24    11    12   ar
    25    12    13   ar
    26    13    14   ar
    27    14    15   ar
    28    15    16   ar
    29    16    17   ar
    30    17    18   ar
    31     8     9   ar
    32    24    19   ar
    33     9     3   ar
    34    33    28    1
    35    18    10   ar
    36    18    13   ar
    37     1     2    1
@<TRIPOS>MOLECULE
*****
 33 37 0 0 0
SMALL
GASTEIGER

@<TRIPOS>ATOM
      1 N          -0.9913    2.4735   20.7244 N.pl3   1  UNL1       -0.2802
      2 H          -1.7422    2.6846   20.1237 H       1  UNL1        0.1552
      3 C          -0.9720    3.0195   22.1214 C.ar    1  UNL1        0.2208
      4 N          -1.9373    4.0965   22.5190 N.ar    1  UNL1       -0.2111
      5 C          -1.9180    4.6425   23.9160 C.ar    1  UNL1        0.1147
      6 C          -0.9333    4.1115   24.9153 C.ar    1  UNL1        0.0960
      7 CL         -0.9140    4.6575   26.3122 Cl      1  UNL1       -0.0790
      8 C           0.0320    3.0344   24.5175 C.ar    1  UNL1        0.1138
      9 N           0.0127    2.4885   23.1206 N.ar    1  UNL1       -0.2111
     10 C           1.0167    2.5034   25.5168 C.ar    1  UNL1        0.1031
     11 C           2.4943    2.7612   25.5213 C.ar    1  UNL1        0.1196
     12 N           3.0874    2.0385   26.6943 N.ar    1  UNL1       -0.2248
     13 C           1.9762    1.3341   27.4148 C.ar    1  UNL1        0.1479
     14 C           1.9644    0.4681   28.6395 C.ar    1  UNL1        0.0374
     15 C           0.6729   -0.1105   29.1365 C.ar    1  UNL1        0.0046
     16 C          -0.6069    0.1768   28.4087 C.ar    1  UNL1        0.0191
     17 C          -0.5951    1.0428   27.1840 C.ar    1  UNL1        0.0815
     18 N           0.6964    1.6214   26.6871 N.ar    1  UNL1       -0.2874
     19 C           1.2422    2.2001   19.4257 C.ar    1  UNL1        0.1518
     20 C           2.3670    1.3324   18.9439 C.ar    1  UNL1        0.0353
     21 C           2.3829   -0.1296   19.2790 C.ar    1  UNL1       -0.0030
     22 C           1.2741   -0.7239   20.0960 C.ar    1  UNL1       -0.0014
     23 C           0.1494    0.1438   20.5777 C.ar    1  UNL1        0.0175
     24 C           0.1334    1.6058   20.2426 C.ar    1  UNL1        0.0849
     25 C           2.0770    4.6198   19.8710 C.3     1  UNL1        0.2525
     26 O           1.2263    3.6621   19.0906 O.3     1  UNL1       -0.4702
     27 C           3.5076   -0.9973   18.7973 C.3     1  UNL1        0.0994
     28 N           3.8737   -2.2395   19.5541 N.3     1  UNL1       -0.2646
     29 C           3.4820   -3.5856   19.0206 C.3     1  UNL1        0.1049
     30 C           3.8481   -4.8278   19.7776 C.3     1  UNL1        0.1595
     31 O           4.6058   -4.7240   21.0679 O.3     1  UNL1       -0.3508
     32 C           4.9975   -3.3779   21.6014 C.3     1  UNL1        0.1595
     33 C           4.6315   -2.1357   20.8445 C.3     1  UNL1        0.1049
@<TRIPOS>BOND
     1    25    26    1
     2    26    19    1
     3    19    20   ar
     4    20    21   ar
     5    21    27    1
     6    27    28    1
     7    28    29    1
     8    29    30    1
     9    30    31    1
    10    31    32    1
    11    32    33    1
    12    21    22   ar
    13    22    23   ar
    14    23    24   ar
    15    24     1    1
    16     1     3    1
    17     3     4   ar
    18     4     5   ar
    19     5     6   ar
    20     6     7    1
    21     6     8   ar
    22     8    10    1
    23    10    11   ar
    24    11    12   ar
    25    12    13   ar
    26    13    14   ar
    27    14    15   ar
    28    15    16   ar
    29    16    17   ar
    30    17    18   ar
    31     8     9   ar
    32    24    19   ar
    33     9     3   ar
    34    33    28    1
    35    18    10   ar
    36    18    13   ar
    37     1     2    1
@<TRIPOS>MOLECULE
*****
 33 37 0 0 0
SMALL
GASTEIGER

@<TRIPOS>ATOM
      1 N          -4.3675    2.8099   20.9524 N.pl3   1  UNL1       -0.2802
      2 H          -4.7191    2.0495   20.4353 H       1  UNL1        0.1552
      3 C          -2.9392    3.2356   20.7830 C.ar    1  UNL1        0.2208
      4 N          -2.5582    4.6743   20.9703 N.ar    1  UNL1       -0.2111
      5 C          -1.1299    5.1000   20.8008 C.ar    1  UNL1        0.1147
      6 C          -0.0826    4.0871   20.4442 C.ar    1  UNL1        0.0960
      7 CL          1.3457    4.5128   20.2748 Cl      1  UNL1       -0.0790
      8 C          -0.4637    2.6484   20.2569 C.ar    1  UNL1        0.1138
      9 N          -1.8919    2.2227   20.4263 N.ar    1  UNL1       -0.2111
     10 C           0.5836    1.6354   19.9003 C.ar    1  UNL1        0.1031
     11 C           0.9705    1.2185   18.5123 C.ar    1  UNL1        0.1196
     12 N           2.0539    0.1870   18.6232 N.ar    1  UNL1       -0.2248
     13 C           2.3366   -0.0335   20.0798 C.ar    1  UNL1        0.1479
     14 C           3.3040   -0.9338   20.7893 C.ar    1  UNL1        0.0374
     15 C           3.3627   -0.9390   22.2881 C.ar    1  UNL1        0.0046
     16 C           2.4541   -0.0438   23.0774 C.ar    1  UNL1        0.0191
     17 C           1.4866    0.8565   22.3678 C.ar    1  UNL1        0.0815
     18 N           1.4279    0.8616   20.8690 N.ar    1  UNL1       -0.2874
     19 C          -6.3872    4.3847   21.3894 C.ar    1  UNL1        0.1518
     20 C          -7.2798    5.1175   22.3467 C.ar    1  UNL1        0.0353
     21 C          -7.0453    5.0082   23.8242 C.ar    1  UNL1       -0.0030
     22 C          -5.9182    4.1662   24.3445 C.ar    1  UNL1       -0.0014
     23 C          -5.0256    3.4334   23.3872 C.ar    1  UNL1        0.0175
     24 C          -5.2601    3.5426   21.9096 C.ar    1  UNL1        0.0849
     25 C          -5.8816    5.5223   19.1090 C.3     1  UNL1        0.2525
     26 O          -6.6217    4.4939   19.9118 O.3     1  UNL1       -0.4702
     27 C          -7.9378    5.7409   24.7814 C.3     1  UNL1        0.0994
     28 N          -9.4281    5.6295   24.6522 N.3     1  UNL1       -0.2646
     29 C         -10.2568    6.8616   24.4400 C.3     1  UNL1        0.1049
     30 C         -11.7471    6.7500   24.3109 C.3     1  UNL1        0.1595
     31 O         -12.4087    5.4064   24.3939 O.3     1  UNL1       -0.3508
     32 C         -11.5800    4.1742   24.6061 C.3     1  UNL1        0.1595
     33 C         -10.0897    4.2857   24.7353 C.3     1  UNL1        0.1049
@<TRIPOS>BOND
     1    25    26    1
     2    26    19    1
     3    19    20   ar
     4    20    21   ar
     5    21    27    1
     6    27    28    1
     7    28    29    1
     8    29    30    1
     9    30    31    1
    10    31    32    1
    11    32    33    1
    12    21    22   ar
    13    22    23   ar
    14    23    24   ar
    15    24     1    1
    16     1     3    1
    17     3     4   ar
    18     4     5   ar
    19     5     6   ar
    20     6     7    1
    21     6     8   ar
    22     8    10    1
    23    10    11   ar
    24    11    12   ar
    25    12    13   ar
    26    13    14   ar
    27    14    15   ar
    28    15    16   ar
    29    16    17   ar
    30    17    18   ar
    31     8     9   ar
    32    24    19   ar
    33     9     3   ar
    34    33    28    1
    35    18    10   ar
    36    18    13   ar
    37     1     2    1
@<TRIPOS>MOLECULE
*****
 33 37 0 0 0
SMALL
GASTEIGER

@<TRIPOS>ATOM
      1 N          -0.6642    4.3459   25.3177 N.pl3   1  UNL1       -0.2802
      2 H          -0.4444    5.2768   25.5507 H       1  UNL1        0.1552
      3 C          -1.4191    4.0466   24.0565 C.ar    1  UNL1        0.2208
      4 N          -2.9158    4.1432   24.0374 N.ar    1  UNL1       -0.2111
      5 C          -3.6706    3.8439   22.7762 C.ar    1  UNL1        0.1147
      6 C          -2.9287    3.4481   21.5341 C.ar    1  UNL1        0.0960
      7 CL         -3.6836    3.1488   20.2729 Cl      1  UNL1       -0.0790
      8 C          -1.4319    3.3516   21.5532 C.ar    1  UNL1        0.1138
      9 N          -0.6771    3.6508   22.8143 N.ar    1  UNL1       -0.2111
     10 C          -0.6899    2.9558   20.3110 C.ar    1  UNL1        0.1031
     11 C          -0.6776    3.7088   19.0138 C.ar    1  UNL1        0.1196
     12 N           0.1899    2.9559   18.0491 N.ar    1  UNL1       -0.2248
     13 C           0.7136    1.7375   18.7501 C.ar    1  UNL1        0.1479
     14 C           1.6154    0.6282   18.2961 C.ar    1  UNL1        0.0374
     15 C           1.9734   -0.4812   19.2401 C.ar    1  UNL1        0.0046
     16 C           1.4296   -0.4812   20.6380 C.ar    1  UNL1        0.0191
     17 C           0.5278    0.6281   21.0920 C.ar    1  UNL1        0.0815
     18 N           0.1698    1.7375   20.1481 N.ar    1  UNL1       -0.2874
     19 C           1.2049    2.8563   26.3363 C.ar    1  UNL1        0.1518
     20 C           1.6248    1.7371   27.2427 C.ar    1  UNL1        0.0353
     21 C           0.5955    0.9886   28.0366 C.ar    1  UNL1       -0.0030
     22 C          -0.8537    1.3592   27.9242 C.ar    1  UNL1       -0.0014
     23 C          -1.2735    2.4783   27.0179 C.ar    1  UNL1        0.0175
     24 C          -0.2443    3.2269   26.2239 C.ar    1  UNL1        0.0849
     25 C           3.1585    4.5656   26.2296 C.3     1  UNL1        0.2525
     26 O           2.2342    3.6048   25.5424 O.3     1  UNL1       -0.4702
     27 C           1.0154   -0.1304   28.9428 C.3     1  UNL1        0.0994
     28 N           1.6929    0.1740   30.2461 N.3     1  UNL1       -0.2646
     29 C           1.2887    1.3827   31.0371 C.3     1  UNL1        0.1049
     30 C           1.9662    1.6871   32.3403 C.3     1  UNL1        0.1595
     31 O           3.0479    0.7828   32.8525 O.3     1  UNL1       -0.3508
     32 C           3.4521   -0.4258   32.0615 C.3     1  UNL1        0.1595
     33 C           2.7746   -0.7302   30.7583 C.3     1  UNL1        0.1049
@<TRIPOS>BOND
     1    25    26    1
     2    26    19    1
     3    19    20   ar
     4    20    21   ar
     5    21    27    1
     6    27    28    1
     7    28    29    1
     8    29    30    1
     9    30    31    1
    10    31    32    1
    11    32    33    1
    12    21    22   ar
    13    22    23   ar
    14    23    24   ar
    15    24     1    1
    16     1     3    1
    17     3     4   ar
    18     4     5   ar
    19     5     6   ar
    20     6     7    1
    21     6     8   ar
    22     8    10    1
    23    10    11   ar
    24    11    12   ar
    25    12    13   ar
    26    13    14   ar
    27    14    15   ar
    28    15    16   ar
    29    16    17   ar
    30    17    18   ar
    31     8     9   ar
    32    24    19   ar
    33     9     3   ar
    34    33    28    1
    35    18    10   ar
    36    18    13   ar
    37     1     2    1
@<TRIPOS>MOLECULE
*****
 33 37 0 0 0
SMALL
GASTEIGER

@<TRIPOS>ATOM
      1 N           7.1477   -1.7058   26.8612 N.pl3   1  UNL1       -0.2802
      2 H           7.6545   -0.8629   26.8177 H       1  UNL1        0.1552
      3 C           7.0495   -2.4558   28.1565 C.ar    1  UNL1        0.2208
      4 N           7.6268   -3.8356   28.2698 N.ar    1  UNL1       -0.2111
      5 C           7.5286   -4.5857   29.5651 C.ar    1  UNL1        0.1147
      6 C           6.8531   -3.9559   30.7471 C.ar    1  UNL1        0.0960
      7 CL          6.7549   -4.7059   32.0424 Cl      1  UNL1       -0.0790
      8 C           6.2758   -2.5760   30.6338 C.ar    1  UNL1        0.1138
      9 N           6.3740   -1.8261   29.3385 N.ar    1  UNL1       -0.2111
     10 C           5.6003   -1.9462   31.8158 C.ar    1  UNL1        0.1031
     11 C           4.1197   -1.8363   32.0300 C.ar    1  UNL1        0.1196
     12 N           3.8912   -1.1380   33.3377 N.ar    1  UNL1       -0.2248
     13 C           5.2305   -0.8163   33.9317 C.ar    1  UNL1        0.1479
     14 C           5.6247   -0.1331   35.2075 C.ar    1  UNL1        0.0374
     15 C           7.0752    0.0506   35.5427 C.ar    1  UNL1        0.0046
     16 C           8.1314   -0.4490   34.6021 C.ar    1  UNL1        0.0191
     17 C           7.7373   -1.1322   33.3263 C.ar    1  UNL1        0.0815
     18 N           6.2868   -1.3159   32.9911 N.ar    1  UNL1       -0.2874
     19 C           5.1047   -1.7550   25.2569 C.ar    1  UNL1        0.1518
     20 C           4.4307   -2.2892   24.0278 C.ar    1  UNL1        0.0353
     21 C           5.1257   -3.3082   23.1742 C.ar    1  UNL1       -0.0030
     22 C           6.4946   -3.7931   23.5496 C.ar    1  UNL1       -0.0014
     23 C           7.1685   -3.2589   24.7786 C.ar    1  UNL1        0.0175
     24 C           6.4736   -2.2399   25.6323 C.ar    1  UNL1        0.0849
     25 C           3.4915   -1.1795   27.2105 C.3     1  UNL1        0.2525
     26 O           4.4098   -0.7359   26.1104 O.3     1  UNL1       -0.4702
     27 C           4.4516   -3.8423   21.9453 C.3     1  UNL1        0.0994
     28 N           4.6146   -3.1344   20.6329 N.3     1  UNL1       -0.2646
     29 C           3.5611   -2.1762   20.1618 C.3     1  UNL1        0.1049
     30 C           3.7242   -1.4682   18.8494 C.3     1  UNL1        0.1595
     31 O           4.9406   -1.7185   18.0082 O.3     1  UNL1       -0.3508
     32 C           5.9941   -2.6767   18.4793 C.3     1  UNL1        0.1595
     33 C           5.8311   -3.3847   19.7917 C.3     1  UNL1        0.1049
@<TRIPOS>BOND
     1    25    26    1
     2    26    19    1
     3    19    20   ar
     4    20    21   ar
     5    21    27    1
     6    27    28    1
     7    28    29    1
     8    29    30    1
     9    30    31    1
    10    31    32    1
    11    32    33    1
    12    21    22   ar
    13    22    23   ar
    14    23    24   ar
    15    24     1    1
    16     1     3    1
    17     3     4   ar
    18     4     5   ar
    19     5     6   ar
    20     6     7    1
    21     6     8   ar
    22     8    10    1
    23    10    11   ar
    24    11    12   ar
    25    12    13   ar
    26    13    14   ar
    27    14    15   ar
    28    15    16   ar
    29    16    17   ar
    30    17    18   ar
    31     8     9   ar
    32    24    19   ar
    33     9     3   ar
    34    33    28    1
    35    18    10   ar
    36    18    13   ar
    37     1     2    1
