@<TRIPOS>MOLECULE
*****
 24 26 0 0 0
SMALL
GASTEIGER

@<TRIPOS>ATOM
      1 C          -8.1906  -19.5848   19.9905 C.2     1  UNL1        0.2667
      2 O          -8.4364  -20.2710   18.6796 O.2     1  UNL1       -0.2683
      3 N          -6.7871  -19.3847   20.4808 N.am    1  UNL1       -0.2748
      4 C          -6.5413  -18.6985   21.7918 C.3     1  UNL1        0.0938
      5 C          -5.1379  -18.4984   22.2821 C.3     1  UNL1        0.0216
      6 C          -3.9803  -18.9845   21.4612 C.3     1  UNL1        0.0057
      7 C          -4.2261  -19.6707   20.1503 C.3     1  UNL1        0.0216
      8 C          -5.6295  -19.8708   19.6600 C.3     1  UNL1        0.0938
      9 C         -14.0171  -18.2938   25.0904 C.3     1  UNL1        0.0267
     10 C         -13.0746  -18.1117   23.9378 C.2     1  UNL1       -0.0394
     11 C         -13.1946  -16.9056   23.0542 C.2     1  UNL1       -0.0066
     12 C         -12.2521  -16.7235   21.9016 C.2     1  UNL1        0.0182
     13 C         -11.1896  -17.7475   21.6326 C.2     1  UNL1        0.0778
     14 N         -10.1257  -17.8372   20.5789 N.2     1  UNL1       -0.2411
     15 C          -9.3482  -19.0987   20.8113 C.2     1  UNL1        0.1344
     16 C          -9.9316  -19.7888   22.0086 C.2     1  UNL1        0.0213
     17 C         -11.0696  -18.9537   22.5161 C.2     1  UNL1        0.0012
     18 C         -12.0121  -19.1358   23.6687 C.3     1  UNL1        0.0499
     19 C          -2.5768  -18.7844   21.9515 C.3     1  UNL1        0.0270
     20 C          -1.7449  -17.6615   21.4064 C.3     1  UNL1        0.0885
     21 C          -1.0994  -18.6092   20.4393 C.3     1  UNL1        0.0293
     22 C          -2.3905  -16.7139   22.3735 C.3     1  UNL1        0.0293
     23 O          -0.9131  -16.5386   20.8614 O.3     1  UNL1       -0.3867
     24 H          -0.3402  -16.8743   20.1543 H       1  UNL1        0.2102
@<TRIPOS>BOND
     1     9    10    1
     2    10    11    2
     3    11    12    1
     4    12    13    2
     5    13    14    1
     6    14    15    2
     7    15     1    1
     8     1     2    2
     9     1     3   am
    10     3     4    1
    11     4     5    1
    12     5     6    1
    13     6    19    1
    14    19    20    1
    15    20    21    1
    16    20    22    1
    17    20    23    1
    18     6     7    1
    19     7     8    1
    20    15    16    1
    21    16    17    2
    22    17    18    1
    23    18    10    1
    24    17    13    1
    25     8     3    1
    26    23    24    1
@<TRIPOS>MOLECULE
*****
 24 26 0 0 0
SMALL
GASTEIGER

@<TRIPOS>ATOM
      1 C          -6.8808  -16.1859   24.0399 C.2     1  UNL1        0.2667
      2 O          -6.5156  -15.1028   25.0113 O.2     1  UNL1       -0.2683
      3 N          -5.8035  -16.9700   23.3510 N.am    1  UNL1       -0.2748
      4 C          -6.1688  -18.0531   22.3796 C.3     1  UNL1        0.0938
      5 C          -5.0915  -18.8372   21.6907 C.3     1  UNL1        0.0216
      6 C          -3.6489  -18.5382   21.9732 C.3     1  UNL1        0.0057
      7 C          -3.2837  -17.4552   22.9446 C.3     1  UNL1        0.0216
      8 C          -4.3610  -16.6711   23.6335 C.3     1  UNL1        0.0938
      9 C         -14.3898  -18.4694   23.8850 C.3     1  UNL1        0.0267
     10 C         -13.0911  -17.8366   23.4815 C.2     1  UNL1       -0.0394
     11 C         -12.9922  -17.0886   22.1851 C.2     1  UNL1       -0.0066
     12 C         -11.6935  -16.4558   21.7815 C.2     1  UNL1        0.0182
     13 C         -10.4937  -16.5709   22.6744 C.2     1  UNL1        0.0778
     14 N          -9.0912  -16.0554   22.5425 N.2     1  UNL1       -0.2411
     15 C          -8.3234  -16.4848   23.7574 C.2     1  UNL1        0.1344
     16 C          -9.2513  -17.2656   24.6402 C.2     1  UNL1        0.0213
     17 C         -10.5926  -17.3188   23.9708 C.2     1  UNL1        0.0012
     18 C         -11.8913  -17.9517   24.3744 C.3     1  UNL1        0.0499
     19 C          -2.5716  -19.3224   21.2843 C.3     1  UNL1        0.0270
     20 C          -2.0844  -18.8982   19.9304 C.3     1  UNL1        0.0885
     21 C          -0.9228  -18.1957   20.5686 C.3     1  UNL1        0.0293
     22 C          -3.2460  -19.6008   19.2924 C.3     1  UNL1        0.0293
     23 O          -1.5972  -18.4742   18.5767 O.3     1  UNL1       -0.3867
     24 H          -0.7840  -17.9544   18.6739 H       1  UNL1        0.2102
@<TRIPOS>BOND
     1     9    10    1
     2    10    11    2
     3    11    12    1
     4    12    13    2
     5    13    14    1
     6    14    15    2
     7    15     1    1
     8     1     2    2
     9     1     3   am
    10     3     4    1
    11     4     5    1
    12     5     6    1
    13     6    19    1
    14    19    20    1
    15    20    21    1
    16    20    22    1
    17    20    23    1
    18     6     7    1
    19     7     8    1
    20    15    16    1
    21    16    17    2
    22    17    18    1
    23    18    10    1
    24    17    13    1
    25     8     3    1
    26    23    24    1
@<TRIPOS>MOLECULE
*****
 24 26 0 0 0
SMALL
GASTEIGER

@<TRIPOS>ATOM
      1 C          -6.4113  -20.2524   22.2296 C.2     1  UNL1        0.2667
      2 O          -6.3960  -21.6637   22.7374 O.2     1  UNL1       -0.2683
      3 N          -7.6456  -19.4138   22.3821 N.am    1  UNL1       -0.2748
      4 C          -7.6609  -18.0024   21.8744 C.3     1  UNL1        0.0938
      5 C          -8.8952  -17.1638   22.0269 C.3     1  UNL1        0.0216
      6 C         -10.1143  -17.7367   22.6871 C.3     1  UNL1        0.0057
      7 C         -10.0989  -19.1480   23.1949 C.3     1  UNL1        0.0216
      8 C          -8.8646  -19.9866   23.0424 C.3     1  UNL1        0.0938
      9 C           0.5864  -17.3708   20.1435 C.3     1  UNL1        0.0267
     10 C          -0.8372  -17.8364   20.0625 C.2     1  UNL1       -0.0394
     11 C          -1.5731  -17.7754   18.7568 C.2     1  UNL1       -0.0066
     12 C          -2.9967  -18.2411   18.6758 C.2     1  UNL1        0.0182
     13 C          -3.6844  -18.7676   19.9004 C.2     1  UNL1        0.0778
     14 N          -5.0711  -19.2935   20.1249 N.2     1  UNL1       -0.2411
     15 C          -5.1923  -19.6795   21.5694 C.2     1  UNL1        0.1344
     16 C          -3.8805  -19.3922   22.2376 C.2     1  UNL1        0.0213
     17 C          -2.9485  -18.8285   21.2061 C.2     1  UNL1        0.0012
     18 C          -1.5249  -18.3629   21.2871 C.3     1  UNL1        0.0499
     19 C         -11.3486  -16.8981   22.8396 C.3     1  UNL1        0.0270
     20 C         -12.6074  -17.2781   22.1177 C.3     1  UNL1        0.0885
     21 C         -13.1892  -17.7903   23.4020 C.3     1  UNL1        0.0293
     22 C         -12.0256  -16.7660   20.8336 C.3     1  UNL1        0.0293
     23 O         -13.8661  -17.6582   21.3959 O.3     1  UNL1       -0.3867
     24 H         -14.4922  -18.0523   22.0232 H       1  UNL1        0.2102
@<TRIPOS>BOND
     1     9    10    1
     2    10    11    2
     3    11    12    1
     4    12    13    2
     5    13    14    1
     6    14    15    2
     7    15     1    1
     8     1     2    2
     9     1     3   am
    10     3     4    1
    11     4     5    1
    12     5     6    1
    13     6    19    1
    14    19    20    1
    15    20    21    1
    16    20    22    1
    17    20    23    1
    18     6     7    1
    19     7     8    1
    20    15    16    1
    21    16    17    2
    22    17    18    1
    23    18    10    1
    24    17    13    1
    25     8     3    1
    26    23    24    1
@<TRIPOS>MOLECULE
*****
 24 26 0 0 0
SMALL
GASTEIGER

@<TRIPOS>ATOM
      1 C          -7.3624  -19.9387   20.0504 C.2     1  UNL1        0.2667
      2 O          -7.6293  -20.9749   18.9991 O.2     1  UNL1       -0.2683
      3 N          -8.5039  -19.3260   20.8064 N.am    1  UNL1       -0.2748
      4 C          -8.2369  -18.2898   21.8577 C.3     1  UNL1        0.0938
      5 C          -9.3783  -17.6770   22.6137 C.3     1  UNL1        0.0216
      6 C         -10.7868  -18.1004   22.3184 C.3     1  UNL1        0.0057
      7 C         -11.0537  -19.1365   21.2672 C.3     1  UNL1        0.0216
      8 C          -9.9122  -19.7493   20.5111 C.3     1  UNL1        0.0938
      9 C           0.1400  -17.6289   20.0976 C.3     1  UNL1        0.0267
     10 C          -1.2135  -18.0630   20.5767 C.2     1  UNL1       -0.0394
     11 C          -1.4811  -18.1980   22.0465 C.2     1  UNL1       -0.0066
     12 C          -2.8346  -18.6322   22.5256 C.2     1  UNL1        0.0182
     13 C          -3.9205  -18.9313   21.5350 C.2     1  UNL1        0.0778
     14 N          -5.3426  -19.3757   21.7083 N.2     1  UNL1       -0.2411
     15 C          -5.9539  -19.5153   20.3457 C.2     1  UNL1        0.1344
     16 C          -4.9096  -19.1573   19.3302 C.2     1  UNL1        0.0213
     17 C          -3.6529  -18.7963   20.0653 C.2     1  UNL1        0.0012
     18 C          -2.2994  -18.3622   19.5862 C.3     1  UNL1        0.0499
     19 C         -11.9283  -17.4876   23.0744 C.3     1  UNL1        0.0270
     20 C         -12.5248  -18.2090   24.2465 C.3     1  UNL1        0.0885
     21 C         -11.1486  -18.5374   24.7449 C.3     1  UNL1        0.0293
     22 C         -13.9009  -17.8807   23.7482 C.3     1  UNL1        0.0293
     23 O         -13.1214  -18.9304   25.4186 O.3     1  UNL1       -0.3867
     24 H         -12.4109  -19.2861   25.9750 H       1  UNL1        0.2102
@<TRIPOS>BOND
     1     9    10    1
     2    10    11    2
     3    11    12    1
     4    12    13    2
     5    13    14    1
     6    14    15    2
     7    15     1    1
     8     1     2    2
     9     1     3   am
    10     3     4    1
    11     4     5    1
    12     5     6    1
    13     6    19    1
    14    19    20    1
    15    20    21    1
    16    20    22    1
    17    20    23    1
    18     6     7    1
    19     7     8    1
    20    15    16    1
    21    16    17    2
    22    17    18    1
    23    18    10    1
    24    17    13    1
    25     8     3    1
    26    23    24    1
@<TRIPOS>MOLECULE
*****
 24 26 0 0 0
SMALL
GASTEIGER

@<TRIPOS>ATOM
      1 C          -0.4942    2.9669   19.6480 C.2     1  UNL1        0.2667
      2 O          -0.3983    3.9909   18.5562 O.2     1  UNL1       -0.2683
      3 N           0.4084    1.7689   19.6341 N.am    1  UNL1       -0.2748
      4 C           0.3124    0.7449   20.7260 C.3     1  UNL1        0.0938
      5 C           1.2150   -0.4531   20.7121 C.3     1  UNL1        0.0216
      6 C           2.2136   -0.6270   19.6064 C.3     1  UNL1        0.0057
      7 C           2.3095    0.3971   18.5146 C.3     1  UNL1        0.0216
      8 C           1.4069    1.5950   18.5285 C.3     1  UNL1        0.0938
      9 C          -4.5141    4.2060   26.2760 C.3     1  UNL1        0.0267
     10 C          -4.2042    3.8825   24.8444 C.2     1  UNL1       -0.0394
     11 C          -5.3140    3.5365   23.8965 C.2     1  UNL1       -0.0066
     12 C          -5.0041    3.2129   22.4650 C.2     1  UNL1        0.0182
     13 C          -3.5844    3.2353   21.9814 C.2     1  UNL1        0.0778
     14 N          -2.9777    2.9630   20.6369 N.2     1  UNL1       -0.2411
     15 C          -1.4928    3.1408   20.7538 C.2     1  UNL1        0.1344
     16 C          -1.1819    3.5229   22.1706 C.2     1  UNL1        0.0213
     17 C          -2.4746    3.5813   22.9293 C.2     1  UNL1        0.0012
     18 C          -2.7845    3.9049   24.3608 C.3     1  UNL1        0.0499
     19 C           3.1162   -1.8249   19.5925 C.3     1  UNL1        0.0270
     20 C           4.6035   -1.6426   19.5229 C.3     1  UNL1        0.0885
     21 C           4.6025   -1.1003   20.9215 C.3     1  UNL1        0.0293
     22 C           4.6045   -2.1849   18.1244 C.3     1  UNL1        0.0293
     23 O           6.0907   -1.4603   19.4533 O.3     1  UNL1       -0.3867
     24 H           6.4107   -1.0904   20.2910 H       1  UNL1        0.2102
@<TRIPOS>BOND
     1     9    10    1
     2    10    11    2
     3    11    12    1
     4    12    13    2
     5    13    14    1
     6    14    15    2
     7    15     1    1
     8     1     2    2
     9     1     3   am
    10     3     4    1
    11     4     5    1
    12     5     6    1
    13     6    19    1
    14    19    20    1
    15    20    21    1
    16    20    22    1
    17    20    23    1
    18     6     7    1
    19     7     8    1
    20    15    16    1
    21    16    17    2
    22    17    18    1
    23    18    10    1
    24    17    13    1
    25     8     3    1
    26    23    24    1
@<TRIPOS>MOLECULE
*****
 24 26 0 0 0
SMALL
GASTEIGER

@<TRIPOS>ATOM
      1 C           0.5180    1.7330   22.0661 C.2     1  UNL1        0.2667
      2 O          -0.3864    2.5464   21.1884 O.2     1  UNL1       -0.2683
      3 N           0.3547    1.7766   23.5565 N.am    1  UNL1       -0.2748
      4 C           1.2592    0.9632   24.4342 C.3     1  UNL1        0.0938
      5 C           1.0959    1.0068   25.9247 C.3     1  UNL1        0.0216
      6 C           0.0280    1.8638   26.5374 C.3     1  UNL1        0.0057
      7 C          -0.8764    2.6771   25.6597 C.3     1  UNL1        0.0216
      8 C          -0.7131    2.6335   24.1693 C.3     1  UNL1        0.0938
      9 C           4.9793   -3.7182   18.6012 C.3     1  UNL1        0.0267
     10 C           4.5666   -2.4515   19.2905 C.2     1  UNL1       -0.0394
     11 C           5.5906   -1.4024   19.6080 C.2     1  UNL1       -0.0066
     12 C           5.1779   -0.1358   20.2974 C.2     1  UNL1        0.0182
     13 C           3.7411    0.0819   20.6692 C.2     1  UNL1        0.0778
     14 N           3.0420    1.2210   21.3500 N.2     1  UNL1       -0.2411
     15 C           1.5859    0.8760   21.4533 C.2     1  UNL1        0.1344
     16 C           1.3850   -0.4764   20.8364 C.2     1  UNL1        0.0213
     17 C           2.7171   -0.9672   20.3518 C.2     1  UNL1        0.0012
     18 C           3.1299   -2.2339   19.6624 C.3     1  UNL1        0.0499
     19 C          -0.1353    1.9074   28.0278 C.3     1  UNL1        0.0270
     20 C           0.1859    0.6967   28.8533 C.3     1  UNL1        0.0885
     21 C          -1.1128    0.0702   28.4396 C.3     1  UNL1        0.0293
     22 C           1.4844    1.3232   29.2669 C.3     1  UNL1        0.0293
     23 O           0.5070   -0.5139   29.6786 O.3     1  UNL1       -0.3867
     24 H          -0.2155   -1.1568   29.6044 H       1  UNL1        0.2102
@<TRIPOS>BOND
     1     9    10    1
     2    10    11    2
     3    11    12    1
     4    12    13    2
     5    13    14    1
     6    14    15    2
     7    15     1    1
     8     1     2    2
     9     1     3   am
    10     3     4    1
    11     4     5    1
    12     5     6    1
    13     6    19    1
    14    19    20    1
    15    20    21    1
    16    20    22    1
    17    20    23    1
    18     6     7    1
    19     7     8    1
    20    15    16    1
    21    16    17    2
    22    17    18    1
    23    18    10    1
    24    17    13    1
    25     8     3    1
    26    23    24    1
@<TRIPOS>MOLECULE
*****
 24 26 0 0 0
SMALL
GASTEIGER

@<TRIPOS>ATOM
      1 C           2.3169    1.9627   22.3112 C.2     1  UNL1        0.2667
      2 O           2.3169    3.3821   21.8262 O.2     1  UNL1       -0.2683
      3 N           2.7370    0.8555   21.3906 N.am    1  UNL1       -0.2748
      4 C           2.7370   -0.5639   21.8756 C.3     1  UNL1        0.0938
      5 C           3.1571   -1.6711   20.9550 C.3     1  UNL1        0.0216
      6 C           3.5773   -1.3588   19.5493 C.3     1  UNL1        0.0057
      7 C           3.5774    0.0606   19.0643 C.3     1  UNL1        0.0216
      8 C           3.1572    1.1677   19.9849 C.3     1  UNL1        0.0938
      9 C          -1.2800    0.5164   29.1372 C.3     1  UNL1        0.0267
     10 C          -0.1969    0.7080   28.1173 C.2     1  UNL1       -0.0394
     11 C           1.2415    0.5502   28.5123 C.2     1  UNL1       -0.0066
     12 C           2.3247    0.7418   27.4924 C.2     1  UNL1        0.0182
     13 C           1.9693    1.0911   26.0776 C.2     1  UNL1        0.0778
     14 N           2.8134    1.3393   24.8627 N.2     1  UNL1       -0.2411
     15 C           1.8967    1.6505   23.7170 C.2     1  UNL1        0.1344
     16 C           0.4860    1.5945   24.2237 C.2     1  UNL1        0.0213
     17 C           0.5309    1.2488   25.6827 C.2     1  UNL1        0.0012
     18 C          -0.5522    1.0572   26.7025 C.3     1  UNL1        0.0499
     19 C           3.9975   -2.4660   18.6286 C.3     1  UNL1        0.0270
     20 C           4.7089   -3.6677   19.1764 C.3     1  UNL1        0.0885
     21 C           3.4302   -4.4500   19.1208 C.3     1  UNL1        0.0293
     22 C           5.9874   -2.8853   19.2321 C.3     1  UNL1        0.0293
     23 O           5.4203   -4.8692   19.7242 O.3     1  UNL1       -0.3867
     24 H           4.7941   -5.6052   19.8084 H       1  UNL1        0.2102
@<TRIPOS>BOND
     1     9    10    1
     2    10    11    2
     3    11    12    1
     4    12    13    2
     5    13    14    1
     6    14    15    2
     7    15     1    1
     8     1     2    2
     9     1     3   am
    10     3     4    1
    11     4     5    1
    12     5     6    1
    13     6    19    1
    14    19    20    1
    15    20    21    1
    16    20    22    1
    17    20    23    1
    18     6     7    1
    19     7     8    1
    20    15    16    1
    21    16    17    2
    22    17    18    1
    23    18    10    1
    24    17    13    1
    25     8     3    1
    26    23    24    1
@<TRIPOS>MOLECULE
*****
 24 26 0 0 0
SMALL
GASTEIGER

@<TRIPOS>ATOM
      1 C          -6.0873  -19.8881   21.0210 C.2     1  UNL1        0.2667
      2 O          -6.5854  -21.1773   20.4382 O.2     1  UNL1       -0.2683
      3 N          -6.9364  -19.1283   21.9965 N.am    1  UNL1       -0.2748
      4 C          -6.4382  -17.8390   22.5793 C.3     1  UNL1        0.0938
      5 C          -7.2874  -17.0793   23.5549 C.3     1  UNL1        0.0216
      6 C          -8.6348  -17.6089   23.9477 C.3     1  UNL1        0.0057
      7 C          -9.1329  -18.8981   23.3649 C.3     1  UNL1        0.0216
      8 C          -8.2838  -19.6578   22.3893 C.3     1  UNL1        0.0938
      9 C           1.3791  -17.5602   20.3444 C.3     1  UNL1        0.0267
     10 C          -0.0603  -17.8226   20.0140 C.2     1  UNL1       -0.0394
     11 C          -0.6055  -17.4302   18.6728 C.2     1  UNL1       -0.0066
     12 C          -2.0450  -17.6926   18.3424 C.2     1  UNL1        0.0182
     13 C          -2.9392  -18.3474   19.3531 C.2     1  UNL1        0.0778
     14 N          -4.3890  -18.7298   19.3123 N.2     1  UNL1       -0.2411
     15 C          -4.7399  -19.3585   20.6282 C.2     1  UNL1        0.1344
     16 C          -3.5069  -19.3647   21.4824 C.2     1  UNL1        0.0213
     17 C          -2.3940  -18.7398   20.6943 C.2     1  UNL1        0.0012
     18 C          -0.9545  -18.4773   21.0247 C.3     1  UNL1        0.0499
     19 C          -9.4839  -16.8491   24.9232 C.3     1  UNL1        0.0270
     20 C          -8.8399  -15.9513   25.9378 C.3     1  UNL1        0.0885
     21 C          -8.8877  -14.8136   24.9614 C.3     1  UNL1        0.0293
     22 C          -8.7921  -17.0890   26.9141 C.3     1  UNL1        0.0293
     23 O          -8.1959  -15.0536   26.9524 O.3     1  UNL1       -0.3867
     24 H          -8.0863  -14.1665   26.5758 H       1  UNL1        0.2102
@<TRIPOS>BOND
     1     9    10    1
     2    10    11    2
     3    11    12    1
     4    12    13    2
     5    13    14    1
     6    14    15    2
     7    15     1    1
     8     1     2    2
     9     1     3   am
    10     3     4    1
    11     4     5    1
    12     5     6    1
    13     6    19    1
    14    19    20    1
    15    20    21    1
    16    20    22    1
    17    20    23    1
    18     6     7    1
    19     7     8    1
    20    15    16    1
    21    16    17    2
    22    17    18    1
    23    18    10    1
    24    17    13    1
    25     8     3    1
    26    23    24    1
@<TRIPOS>MOLECULE
*****
 24 26 0 0 0
SMALL
GASTEIGER

@<TRIPOS>ATOM
      1 C           0.5500    2.9226   21.4380 C.2     1  UNL1        0.2667
      2 O           1.0496    3.9346   22.4260 O.2     1  UNL1       -0.2683
      3 N           1.3291    1.6641   21.1944 N.am    1  UNL1       -0.2748
      4 C           0.8294    0.6521   20.2063 C.3     1  UNL1        0.0938
      5 C           1.6085   -0.6064   19.9628 C.3     1  UNL1        0.0216
      6 C           2.8872   -0.8528   20.7073 C.3     1  UNL1        0.0057
      7 C           3.3868    0.1592   21.6954 C.3     1  UNL1        0.0216
      8 C           2.6077    1.4177   21.9389 C.3     1  UNL1        0.0938
      9 C          -6.8019    3.8457   18.8454 C.3     1  UNL1        0.0267
     10 C          -5.3027    3.8038   18.8741 C.2     1  UNL1       -0.0394
     11 C          -4.5191    4.1466   17.6419 C.2     1  UNL1       -0.0066
     12 C          -3.0200    4.1047   17.6706 C.2     1  UNL1        0.0182
     13 C          -2.3045    3.7198   18.9315 C.2     1  UNL1        0.0778
     14 N          -0.8463    3.5913   19.2589 N.2     1  UNL1       -0.2411
     15 C          -0.7287    3.1691   20.6934 C.2     1  UNL1        0.1344
     16 C          -2.1142    3.0365   21.2527 C.2     1  UNL1        0.0213
     17 C          -3.0881    3.3769   20.1637 C.2     1  UNL1        0.0012
     18 C          -4.5872    3.4189   20.1350 C.3     1  UNL1        0.0499
     19 C           3.6662   -2.1113   20.4638 C.3     1  UNL1        0.0270
     20 C           4.1520   -2.4372   19.0825 C.3     1  UNL1        0.0885
     21 C           4.9227   -1.1507   19.0499 C.3     1  UNL1        0.0293
     22 C           3.3814   -3.7237   19.1151 C.3     1  UNL1        0.0293
     23 O           4.6377   -2.7631   17.7013 O.3     1  UNL1       -0.3867
     24 H           5.2122   -2.0491   17.3837 H       1  UNL1        0.2102
@<TRIPOS>BOND
     1     9    10    1
     2    10    11    2
     3    11    12    1
     4    12    13    2
     5    13    14    1
     6    14    15    2
     7    15     1    1
     8     1     2    2
     9     1     3   am
    10     3     4    1
    11     4     5    1
    12     5     6    1
    13     6    19    1
    14    19    20    1
    15    20    21    1
    16    20    22    1
    17    20    23    1
    18     6     7    1
    19     7     8    1
    20    15    16    1
    21    16    17    2
    22    17    18    1
    23    18    10    1
    24    17    13    1
    25     8     3    1
    26    23    24    1
