@<TRIPOS>MOLECULE
*****
 26 29 0 0 0
SMALL
GASTEIGER

@<TRIPOS>ATOM
      1 C          -6.9956  -20.4465   21.3683 C.ar    1  UNL1        0.1385
      2 C          -7.4564  -20.8780   22.7289 C.ar    1  UNL1        0.0384
      3 C          -8.7658  -20.3842   23.2689 C.ar    1  UNL1        0.0203
      4 C          -9.6143  -19.4587   22.4482 C.ar    1  UNL1        0.0602
      5 C          -9.1536  -19.0272   21.0876 C.ar    1  UNL1        0.0204
      6 C          -7.8442  -19.5211   20.5476 C.ar    1  UNL1        0.0384
      7 C         -10.1961  -18.1145   20.5130 C.ar    1  UNL1        0.0233
      8 C         -11.3012  -17.9820   21.5186 C.ar    1  UNL1        0.1140
      9 N         -10.9417  -18.8128   22.7146 N.ar    1  UNL1       -0.3219
     10 C         -11.8694  -18.8737   23.8917 C.3     1  UNL1        0.1256
     11 C         -13.1566  -18.1039   23.8728 C.3     1  UNL1        0.0945
     12 C         -14.0843  -18.1648   25.0499 C.3     1  UNL1        0.0233
     13 N         -13.5161  -17.2731   22.6768 N.am    1  UNL1       -0.2994
     14 C         -12.5884  -17.2122   21.4996 C.2     1  UNL1        0.2618
     15 O         -12.9480  -16.3814   20.3035 O.2     1  UNL1       -0.2686
     16 H         -14.3610  -16.7678   22.6643 H       1  UNL1        0.1498
     17 O          -5.6862  -20.9404   20.8282 O.3     1  UNL1       -0.4791
     18 N          -2.1552  -18.1603   20.5975 N.3     1  UNL1       -0.2737
     19 C          -2.6602  -18.8359   19.3571 C.3     1  UNL1        0.0758
     20 C          -3.8372  -19.7626   19.4340 C.3     1  UNL1        0.0609
     21 C          -4.5092  -20.0137   20.7513 C.3     1  UNL1        0.1687
     22 C          -4.0042  -19.3381   21.9917 C.3     1  UNL1        0.0609
     23 C          -2.8273  -18.4114   21.9148 C.3     1  UNL1        0.0758
     24 C           0.2358  -17.6271   19.7324 C.3     1  UNL1        0.0173
     25 C          -0.9783  -17.2337   20.5205 C.3     1  UNL1        0.0576
     26 C          -1.0153  -15.9135   21.2318 C.3     1  UNL1        0.0173
@<TRIPOS>BOND
     1    24    25    1
     2    25    26    1
     3    25    18    1
     4    18    19    1
     5    19    20    1
     6    20    21    1
     7    21    17    1
     8    17     1    1
     9     1     2   ar
    10     2     3   ar
    11     3     4   ar
    12     4     5   ar
    13     5     6   ar
    14     5     7   ar
    15     7     8   ar
    16     8     9   ar
    17     9    10    1
    18    10    11    1
    19    11    12    1
    20    11    13    1
    21    13    14   am
    22    14    15    2
    23    21    22    1
    24    22    23    1
    25    23    18    1
    26     6     1   ar
    27    14     8    1
    28     9     4   ar
    29    13    16    1
@<TRIPOS>MOLECULE
*****
 26 29 0 0 0
SMALL
GASTEIGER

@<TRIPOS>ATOM
      1 C           0.7433    2.1063   20.2154 C.ar    1  UNL1        0.1385
      2 C           0.2518    0.7718   20.6924 C.ar    1  UNL1        0.0384
      3 C           1.0358   -0.4695   20.3854 C.ar    1  UNL1        0.0203
      4 C           2.3113   -0.3764   19.6015 C.ar    1  UNL1        0.0602
      5 C           2.8028    0.9580   19.1245 C.ar    1  UNL1        0.0204
      6 C           2.0188    2.1994   19.4315 C.ar    1  UNL1        0.0384
      7 C           4.0855    0.7399   18.3782 C.ar    1  UNL1        0.0233
      8 C           4.3867   -0.7295   18.3938 C.ar    1  UNL1        0.1140
      9 N           3.2902   -1.4195   19.1499 N.ar    1  UNL1       -0.3219
     10 C           3.3249   -2.9082   19.3294 C.3     1  UNL1        0.1256
     11 C           4.4560   -3.7071   18.7530 C.3     1  UNL1        0.0945
     12 C           4.4906   -5.1959   18.9325 C.3     1  UNL1        0.0233
     13 N           5.5525   -3.0171   17.9969 N.am    1  UNL1       -0.2994
     14 C           5.5178   -1.5283   17.8173 C.2     1  UNL1        0.2618
     15 O           6.6144   -0.8383   17.0612 O.2     1  UNL1       -0.2686
     16 H           6.2949   -3.5414   17.6185 H       1  UNL1        0.1498
     17 O          -0.0407    3.3478   20.5224 O.3     1  UNL1       -0.4791
     18 N          -4.1592    3.8931   18.7932 N.3     1  UNL1       -0.2737
     19 C          -3.9962    3.4566   20.2189 C.3     1  UNL1        0.0758
     20 C          -2.6233    3.2748   20.7954 C.3     1  UNL1        0.0609
     21 C          -1.4135    3.5296   19.9460 C.3     1  UNL1        0.1687
     22 C          -1.5766    3.9661   18.5202 C.3     1  UNL1        0.0609
     23 C          -2.9494    4.1479   17.9438 C.3     1  UNL1        0.0758
     24 C          -6.6789    3.2621   18.7403 C.3     1  UNL1        0.0173
     25 C          -5.5321    4.0749   18.2168 C.3     1  UNL1        0.0576
     26 C          -5.7581    5.0694   17.1168 C.3     1  UNL1        0.0173
@<TRIPOS>BOND
     1    24    25    1
     2    25    26    1
     3    25    18    1
     4    18    19    1
     5    19    20    1
     6    20    21    1
     7    21    17    1
     8    17     1    1
     9     1     2   ar
    10     2     3   ar
    11     3     4   ar
    12     4     5   ar
    13     5     6   ar
    14     5     7   ar
    15     7     8   ar
    16     8     9   ar
    17     9    10    1
    18    10    11    1
    19    11    12    1
    20    11    13    1
    21    13    14   am
    22    14    15    2
    23    21    22    1
    24    22    23    1
    25    23    18    1
    26     6     1   ar
    27    14     8    1
    28     9     4   ar
    29    13    16    1
@<TRIPOS>MOLECULE
*****
 26 29 0 0 0
SMALL
GASTEIGER

@<TRIPOS>ATOM
      1 C           0.6762    2.3123   19.6988 C.ar    1  UNL1        0.1385
      2 C           0.1467    1.0233   20.2538 C.ar    1  UNL1        0.0384
      3 C           0.9326   -0.2435   20.0880 C.ar    1  UNL1        0.0203
      4 C           2.2478   -0.2214   19.3672 C.ar    1  UNL1        0.0602
      5 C           2.7773    1.0676   18.8121 C.ar    1  UNL1        0.0204
      6 C           1.9914    2.3345   18.9779 C.ar    1  UNL1        0.0384
      7 C           4.0945    0.7825   18.1538 C.ar    1  UNL1        0.0233
      8 C           4.3792   -0.6828   18.3019 C.ar    1  UNL1        0.1140
      9 N           3.2379   -1.3033   19.0518 N.ar    1  UNL1       -0.3219
     10 C           3.2476   -2.7731   19.3507 C.3     1  UNL1        0.1256
     11 C           4.3987   -3.6225   18.8996 C.3     1  UNL1        0.0945
     12 C           4.4084   -5.0925   19.1984 C.3     1  UNL1        0.0233
     13 N           5.5400   -3.0021   18.1497 N.am    1  UNL1       -0.2994
     14 C           5.5303   -1.5322   17.8508 C.2     1  UNL1        0.2618
     15 O           6.6717   -0.9117   17.1009 O.2     1  UNL1       -0.2686
     16 H           6.2955   -3.5596   17.8536 H       1  UNL1        0.1498
     17 O          -0.1096    3.5793   19.8646 O.3     1  UNL1       -0.4791
     18 N          -3.7757    3.6279   22.4737 N.3     1  UNL1       -0.2737
     19 C          -3.9091    3.4013   20.9970 C.3     1  UNL1        0.0758
     20 C          -2.6871    3.3850   20.1272 C.3     1  UNL1        0.0609
     21 C          -1.3317    3.5955   20.7343 C.3     1  UNL1        0.1687
     22 C          -1.1983    3.8221   22.2111 C.3     1  UNL1        0.0609
     23 C          -2.4203    3.8384   23.0808 C.3     1  UNL1        0.0758
     24 C          -6.3451    3.9069   22.7388 C.3     1  UNL1        0.0173
     25 C          -4.9977    3.6442   23.3434 C.3     1  UNL1        0.0576
     26 C          -4.8724    3.3976   24.8177 C.3     1  UNL1        0.0173
@<TRIPOS>BOND
     1    24    25    1
     2    25    26    1
     3    25    18    1
     4    18    19    1
     5    19    20    1
     6    20    21    1
     7    21    17    1
     8    17     1    1
     9     1     2   ar
    10     2     3   ar
    11     3     4   ar
    12     4     5   ar
    13     5     6   ar
    14     5     7   ar
    15     7     8   ar
    16     8     9   ar
    17     9    10    1
    18    10    11    1
    19    11    12    1
    20    11    13    1
    21    13    14   am
    22    14    15    2
    23    21    22    1
    24    22    23    1
    25    23    18    1
    26     6     1   ar
    27    14     8    1
    28     9     4   ar
    29    13    16    1
@<TRIPOS>MOLECULE
*****
 26 29 0 0 0
SMALL
GASTEIGER

@<TRIPOS>ATOM
      1 C           7.7452   -4.0479   25.4630 C.ar    1  UNL1        0.1385
      2 C           7.2946   -2.6925   25.9209 C.ar    1  UNL1        0.0384
      3 C           6.9249   -2.4708   27.3576 C.ar    1  UNL1        0.0203
      4 C           7.0059   -3.6046   28.3364 C.ar    1  UNL1        0.0602
      5 C           7.4565   -4.9600   27.8785 C.ar    1  UNL1        0.0204
      6 C           7.8261   -5.1816   26.4418 C.ar    1  UNL1        0.0384
      7 C           7.4372   -5.8796   29.0634 C.ar    1  UNL1        0.0233
      8 C           6.9746   -5.0925   30.2536 C.ar    1  UNL1        0.1140
      9 N           6.7081   -3.6865   29.8044 N.ar    1  UNL1       -0.3219
     10 C           6.2287   -2.6624   30.7899 C.3     1  UNL1        0.1256
     11 C           6.0158   -3.0444   32.2247 C.3     1  UNL1        0.0945
     12 C           5.5363   -2.0203   33.2103 C.3     1  UNL1        0.0233
     13 N           6.2823   -4.4505   32.6739 N.am    1  UNL1       -0.2994
     14 C           6.7618   -5.4746   31.6883 C.2     1  UNL1        0.2618
     15 O           7.0283   -6.8808   32.1376 O.2     1  UNL1       -0.2686
     16 H           6.1426   -4.7012   33.6157 H       1  UNL1        0.1498
     17 O           8.1149   -4.2696   24.0262 O.3     1  UNL1       -0.4791
     18 N           5.0451   -3.6592   20.7930 N.3     1  UNL1       -0.2737
     19 C           4.6278   -3.6551   22.2338 C.3     1  UNL1        0.0758
     20 C           5.6511   -3.8586   23.3116 C.3     1  UNL1        0.0609
     21 C           7.0916   -4.0661   22.9485 C.3     1  UNL1        0.1687
     22 C           7.5089   -4.0702   21.5077 C.3     1  UNL1        0.0609
     23 C           6.4856   -3.8668   20.4300 C.3     1  UNL1        0.0758
     24 C           3.6884   -2.0693   19.2498 C.3     1  UNL1        0.0173
     25 C           4.0218   -3.4557   19.7153 C.3     1  UNL1        0.0576
     26 C           3.3320   -4.6387   19.1031 C.3     1  UNL1        0.0173
@<TRIPOS>BOND
     1    24    25    1
     2    25    26    1
     3    25    18    1
     4    18    19    1
     5    19    20    1
     6    20    21    1
     7    21    17    1
     8    17     1    1
     9     1     2   ar
    10     2     3   ar
    11     3     4   ar
    12     4     5   ar
    13     5     6   ar
    14     5     7   ar
    15     7     8   ar
    16     8     9   ar
    17     9    10    1
    18    10    11    1
    19    11    12    1
    20    11    13    1
    21    13    14   am
    22    14    15    2
    23    21    22    1
    24    22    23    1
    25    23    18    1
    26     6     1   ar
    27    14     8    1
    28     9     4   ar
    29    13    16    1
@<TRIPOS>MOLECULE
*****
 26 29 0 0 0
SMALL
GASTEIGER

@<TRIPOS>ATOM
      1 C           0.9762    2.2883   19.8535 C.ar    1  UNL1        0.1385
      2 C           1.0733    1.5176   18.5704 C.ar    1  UNL1        0.0384
      3 C           1.7671    0.1880   18.5448 C.ar    1  UNL1        0.0203
      4 C           2.3637   -0.3710   19.8024 C.ar    1  UNL1        0.0602
      5 C           2.2666    0.3997   21.0856 C.ar    1  UNL1        0.0204
      6 C           1.5728    1.7293   21.1112 C.ar    1  UNL1        0.0384
      7 C           2.9451   -0.3992   22.1586 C.ar    1  UNL1        0.0233
      8 C           3.4617   -1.6637   21.5385 C.ar    1  UNL1        0.1140
      9 N           3.1023   -1.6463   20.0823 N.ar    1  UNL1       -0.3219
     10 C           3.4941   -2.7937   19.1994 C.3     1  UNL1        0.1256
     11 C           4.2452   -3.9587   19.7726 C.3     1  UNL1        0.0945
     12 C           4.6370   -5.1063   18.8897 C.3     1  UNL1        0.0233
     13 N           4.6045   -3.9762   21.2288 N.am    1  UNL1       -0.2994
     14 C           4.2127   -2.8286   22.1118 C.2     1  UNL1        0.2618
     15 O           4.5721   -2.8460   23.5681 O.2     1  UNL1       -0.2686
     16 H           5.0975   -4.7408   21.6051 H       1  UNL1        0.1498
     17 O           0.2823    3.6180   19.8792 O.3     1  UNL1       -0.4791
     18 N          -4.0305    3.9299   18.6334 N.3     1  UNL1       -0.2737
     19 C          -2.9433    4.3177   17.6756 C.3     1  UNL1        0.0758
     20 C          -1.5056    4.2138   18.0908 C.3     1  UNL1        0.0609
     21 C          -1.1553    3.7219   19.4639 C.3     1  UNL1        0.1687
     22 C          -2.2426    3.3341   20.4218 C.3     1  UNL1        0.0609
     23 C          -3.6802    3.4380   20.0065 C.3     1  UNL1        0.0758
     24 C          -6.4958    3.1371   18.8424 C.3     1  UNL1        0.0173
     25 C          -5.4681    4.0338   18.2182 C.3     1  UNL1        0.0576
     26 C          -5.8780    5.0346   17.1786 C.3     1  UNL1        0.0173
@<TRIPOS>BOND
     1    24    25    1
     2    25    26    1
     3    25    18    1
     4    18    19    1
     5    19    20    1
     6    20    21    1
     7    21    17    1
     8    17     1    1
     9     1     2   ar
    10     2     3   ar
    11     3     4   ar
    12     4     5   ar
    13     5     6   ar
    14     5     7   ar
    15     7     8   ar
    16     8     9   ar
    17     9    10    1
    18    10    11    1
    19    11    12    1
    20    11    13    1
    21    13    14   am
    22    14    15    2
    23    21    22    1
    24    22    23    1
    25    23    18    1
    26     6     1   ar
    27    14     8    1
    28     9     4   ar
    29    13    16    1
@<TRIPOS>MOLECULE
*****
 26 29 0 0 0
SMALL
GASTEIGER

@<TRIPOS>ATOM
      1 C           2.2302    1.6821   23.0725 C.ar    1  UNL1        0.1385
      2 C           2.3723    0.3068   23.6542 C.ar    1  UNL1        0.0384
      3 C           2.8328   -0.8292   22.7897 C.ar    1  UNL1        0.0203
      4 C           3.1512   -0.5899   21.3435 C.ar    1  UNL1        0.0602
      5 C           3.0091    0.7854   20.7619 C.ar    1  UNL1        0.0204
      6 C           2.5486    1.9214   21.6264 C.ar    1  UNL1        0.0384
      7 C           3.3929    0.7180   19.3134 C.ar    1  UNL1        0.0233
      8 C           3.7722   -0.6990   18.9998 C.ar    1  UNL1        0.1140
      9 N           3.6229   -1.5073   20.2545 N.ar    1  UNL1       -0.3219
     10 C           3.9356   -2.9742   20.2432 C.3     1  UNL1        0.1256
     11 C           4.3977   -3.6329   18.9773 C.3     1  UNL1        0.0945
     12 C           4.7104   -5.0999   18.9660 C.3     1  UNL1        0.0233
     13 N           4.5471   -2.8246   17.7226 N.am    1  UNL1       -0.2994
     14 C           4.2343   -1.3576   17.7339 C.2     1  UNL1        0.2618
     15 O           4.3837   -0.5492   16.4791 O.2     1  UNL1       -0.2686
     16 H           4.8503   -3.2569   16.8917 H       1  UNL1        0.1498
     17 O           1.7697    2.8182   23.9371 O.3     1  UNL1       -0.4791
     18 N          -2.6267    3.4718   24.6402 N.3     1  UNL1       -0.2737
     19 C          -1.7563    2.9668   25.7525 C.3     1  UNL1        0.0758
     20 C          -0.2907    2.7489   25.5181 C.3     1  UNL1        0.0609
     21 C           0.3043    3.0360   24.1714 C.3     1  UNL1        0.1687
     22 C          -0.5662    3.5411   23.0591 C.3     1  UNL1        0.0609
     23 C          -2.0317    3.7590   23.2935 C.3     1  UNL1        0.0758
     24 C          -5.0736    3.4432   23.7673 C.3     1  UNL1        0.0173
     25 C          -4.0921    3.6897   24.8745 C.3     1  UNL1        0.0576
     26 C          -4.5762    4.1542   26.2162 C.3     1  UNL1        0.0173
@<TRIPOS>BOND
     1    24    25    1
     2    25    26    1
     3    25    18    1
     4    18    19    1
     5    19    20    1
     6    20    21    1
     7    21    17    1
     8    17     1    1
     9     1     2   ar
    10     2     3   ar
    11     3     4   ar
    12     4     5   ar
    13     5     6   ar
    14     5     7   ar
    15     7     8   ar
    16     8     9   ar
    17     9    10    1
    18    10    11    1
    19    11    12    1
    20    11    13    1
    21    13    14   am
    22    14    15    2
    23    21    22    1
    24    22    23    1
    25    23    18    1
    26     6     1   ar
    27    14     8    1
    28     9     4   ar
    29    13    16    1
@<TRIPOS>MOLECULE
*****
 26 29 0 0 0
SMALL
GASTEIGER

@<TRIPOS>ATOM
      1 C          -6.4982  -16.4606   24.2197 C.ar    1  UNL1        0.1385
      2 C          -7.3438  -16.6991   25.4354 C.ar    1  UNL1        0.0384
      3 C          -8.8029  -17.0126   25.2843 C.ar    1  UNL1        0.0203
      4 C          -9.4163  -17.0876   23.9175 C.ar    1  UNL1        0.0602
      5 C          -8.5707  -16.8491   22.7018 C.ar    1  UNL1        0.0204
      6 C          -7.1116  -16.5356   22.8529 C.ar    1  UNL1        0.0384
      7 C          -9.4474  -16.9887   21.4927 C.ar    1  UNL1        0.0233
      8 C         -10.8348  -17.3135   21.9612 C.ar    1  UNL1        0.1140
      9 N         -10.8157  -17.3747   23.4598 N.ar    1  UNL1       -0.3219
     10 C         -12.0748  -17.6838   24.2139 C.3     1  UNL1        0.1256
     11 C         -13.3532  -17.9318   23.4695 C.3     1  UNL1        0.0945
     12 C         -14.6125  -18.2410   24.2237 C.3     1  UNL1        0.0233
     13 N         -13.3724  -17.8707   21.9709 N.am    1  UNL1       -0.2994
     14 C         -12.1132  -17.5615   21.2167 C.2     1  UNL1        0.2618
     15 O         -12.1324  -17.5004   19.7180 O.2     1  UNL1       -0.2686
     16 H         -14.2114  -18.0335   21.4823 H       1  UNL1        0.1498
     17 O          -5.0391  -16.1470   24.3707 O.3     1  UNL1       -0.4791
     18 N          -2.1268  -17.3960   21.1756 N.3     1  UNL1       -0.2737
     19 C          -2.9484  -18.4298   21.8872 C.3     1  UNL1        0.0758
     20 C          -3.9192  -18.0135   22.9522 C.3     1  UNL1        0.0609
     21 C          -4.0684  -16.5634   23.3057 C.3     1  UNL1        0.1687
     22 C          -3.2467  -15.5296   22.5941 C.3     1  UNL1        0.0609
     23 C          -2.2760  -15.9459   21.5291 C.3     1  UNL1        0.0758
     24 C          -1.6603  -18.2803   18.7776 C.3     1  UNL1        0.0173
     25 C          -1.1561  -17.8124   20.1106 C.3     1  UNL1        0.0576
     26 C           0.3189  -17.7608   20.3786 C.3     1  UNL1        0.0173
@<TRIPOS>BOND
     1    24    25    1
     2    25    26    1
     3    25    18    1
     4    18    19    1
     5    19    20    1
     6    20    21    1
     7    21    17    1
     8    17     1    1
     9     1     2   ar
    10     2     3   ar
    11     3     4   ar
    12     4     5   ar
    13     5     6   ar
    14     5     7   ar
    15     7     8   ar
    16     8     9   ar
    17     9    10    1
    18    10    11    1
    19    11    12    1
    20    11    13    1
    21    13    14   am
    22    14    15    2
    23    21    22    1
    24    22    23    1
    25    23    18    1
    26     6     1   ar
    27    14     8    1
    28     9     4   ar
    29    13    16    1
@<TRIPOS>MOLECULE
*****
 26 29 0 0 0
SMALL
GASTEIGER

@<TRIPOS>ATOM
      1 C          -1.0029    2.9623   20.2812 C.ar    1  UNL1        0.1385
      2 C          -0.3870    3.2802   21.6114 C.ar    1  UNL1        0.0384
      3 C          -1.2577    3.6872   22.7630 C.ar    1  UNL1        0.0203
      4 C          -2.7444    3.7763   22.5844 C.ar    1  UNL1        0.0602
      5 C          -3.3603    3.4584   21.2542 C.ar    1  UNL1        0.0204
      6 C          -2.4896    3.0514   20.1026 C.ar    1  UNL1        0.0384
      7 C          -4.8450    3.6325   21.3774 C.ar    1  UNL1        0.0233
      8 C          -5.1467    4.0581   22.7838 C.ar    1  UNL1        0.1140
      9 N          -3.8484    4.1469   23.5298 N.ar    1  UNL1       -0.3219
     10 C          -3.8393    4.5538   24.9734 C.3     1  UNL1        0.1256
     11 C          -5.1285    4.8719   25.6712 C.3     1  UNL1        0.0945
     12 C          -5.1194    5.2788   27.1149 C.3     1  UNL1        0.0233
     13 N          -6.4268    4.7830   24.9252 N.am    1  UNL1       -0.2994
     14 C          -6.4359    4.3761   23.4814 C.2     1  UNL1        0.2618
     15 O          -7.7343    4.2873   22.7354 O.2     1  UNL1       -0.2686
     16 H          -7.2729    4.9918   25.3831 H       1  UNL1        0.1498
     17 O          -0.1322    2.5553   19.1295 O.3     1  UNL1       -0.4791
     18 N           2.7947   -0.8292   19.6078 N.3     1  UNL1       -0.2737
     19 C           1.4595   -0.8905   20.2885 C.3     1  UNL1        0.0758
     20 C           0.4838    0.2377   20.1291 C.3     1  UNL1        0.0609
     21 C           0.8434    1.4271   19.2890 C.3     1  UNL1        0.1687
     22 C           2.1787    1.4884   18.6082 C.3     1  UNL1        0.0609
     23 C           3.1543    0.3603   18.7677 C.3     1  UNL1        0.0758
     24 C           5.0091   -1.7668   20.5913 C.3     1  UNL1        0.0173
     25 C           3.7703   -1.9573   19.7672 C.3     1  UNL1        0.0576
     26 C           3.5071   -3.2761   19.1025 C.3     1  UNL1        0.0173
@<TRIPOS>BOND
     1    24    25    1
     2    25    26    1
     3    25    18    1
     4    18    19    1
     5    19    20    1
     6    20    21    1
     7    21    17    1
     8    17     1    1
     9     1     2   ar
    10     2     3   ar
    11     3     4   ar
    12     4     5   ar
    13     5     6   ar
    14     5     7   ar
    15     7     8   ar
    16     8     9   ar
    17     9    10    1
    18    10    11    1
    19    11    12    1
    20    11    13    1
    21    13    14   am
    22    14    15    2
    23    21    22    1
    24    22    23    1
    25    23    18    1
    26     6     1   ar
    27    14     8    1
    28     9     4   ar
    29    13    16    1
@<TRIPOS>MOLECULE
*****
 26 29 0 0 0
SMALL
GASTEIGER

@<TRIPOS>ATOM
      1 C           0.1539    3.0477   20.8244 C.ar    1  UNL1        0.1385
      2 C          -1.0223    3.2396   19.9135 C.ar    1  UNL1        0.0384
      3 C          -2.3874    3.4721   20.4902 C.ar    1  UNL1        0.0203
      4 C          -2.5762    3.5126   21.9777 C.ar    1  UNL1        0.0602
      5 C          -1.4001    3.3207   22.8885 C.ar    1  UNL1        0.0204
      6 C          -0.0350    3.0882   22.3119 C.ar    1  UNL1        0.0384
      7 C          -1.8899    3.4113   24.3034 C.ar    1  UNL1        0.0233
      8 C          -3.3688    3.6592   24.2670 C.ar    1  UNL1        0.1140
      9 N          -3.7931    3.7218   22.8296 N.ar    1  UNL1       -0.3219
     10 C          -5.2324    3.9613   22.4822 C.3     1  UNL1        0.1256
     11 C          -6.2477    4.1381   23.5722 C.3     1  UNL1        0.0945
     12 C          -7.6871    4.3775   23.2247 C.3     1  UNL1        0.0233
     13 N          -5.8234    4.0754   25.0095 N.am    1  UNL1       -0.2994
     14 C          -4.3840    3.8360   25.3570 C.2     1  UNL1        0.2618
     15 O          -3.9598    3.7734   26.7944 O.2     1  UNL1       -0.2686
     16 H          -6.4898    4.1915   25.7249 H       1  UNL1        0.1498
     17 O           1.5190    2.8152   20.2478 O.3     1  UNL1       -0.4791
     18 N           3.2827   -1.3247   20.2389 N.3     1  UNL1       -0.2737
     19 C           1.7970   -1.1423   20.1428 C.3     1  UNL1        0.0758
     20 C           1.2090    0.2378   20.1457 C.3     1  UNL1        0.0609
     21 C           2.1069    1.4353   20.2448 C.3     1  UNL1        0.1687
     22 C           3.5927    1.2528   20.3410 C.3     1  UNL1        0.0609
     23 C           4.1805   -0.1272   20.3380 C.3     1  UNL1        0.0758
     24 C           4.7030   -3.1678   21.3947 C.3     1  UNL1        0.0173
     25 C           3.8706   -2.7047   20.2360 C.3     1  UNL1        0.0576
     26 C           3.6260   -3.6216   19.0743 C.3     1  UNL1        0.0173
@<TRIPOS>BOND
     1    24    25    1
     2    25    26    1
     3    25    18    1
     4    18    19    1
     5    19    20    1
     6    20    21    1
     7    21    17    1
     8    17     1    1
     9     1     2   ar
    10     2     3   ar
    11     3     4   ar
    12     4     5   ar
    13     5     6   ar
    14     5     7   ar
    15     7     8   ar
    16     8     9   ar
    17     9    10    1
    18    10    11    1
    19    11    12    1
    20    11    13    1
    21    13    14   am
    22    14    15    2
    23    21    22    1
    24    22    23    1
    25    23    18    1
    26     6     1   ar
    27    14     8    1
    28     9     4   ar
    29    13    16    1
