@<TRIPOS>MOLECULE
*****
 27 30 0 0 0
SMALL
GASTEIGER

@<TRIPOS>ATOM
      1 C         -10.2917  -17.5876   24.1647 C.ar    1  UNL1        0.0366
      2 C          -8.9616  -17.4955   23.4775 C.ar    1  UNL1       -0.0012
      3 C          -8.2301  -18.7459   23.0885 C.ar    1  UNL1       -0.0223
      4 C          -8.8287  -20.0885   23.3869 C.ar    1  UNL1       -0.0012
      5 C         -10.1588  -20.1807   24.0742 C.ar    1  UNL1        0.0366
      6 C         -10.8902  -18.9302   24.4631 C.ar    1  UNL1        0.1385
      7 C          -6.9000  -18.6537   22.4012 C.3     1  UNL1        0.0224
      8 C          -6.6989  -19.3070   21.0660 C.3     1  UNL1        0.0057
      9 C          -5.3688  -19.2149   20.3787 C.3     1  UNL1        0.0163
     10 C          -4.2398  -18.4694   21.0265 C.3     1  UNL1        0.0575
     11 C          -4.4410  -17.8161   22.3617 C.3     1  UNL1        0.0163
     12 C          -5.7711  -17.9083   23.0491 C.3     1  UNL1        0.0057
     13 N          -2.9098  -18.3772   20.3392 N.3     1  UNL1       -0.2740
     14 C          -1.5810  -18.7299   20.9391 C.3     1  UNL1        0.0721
     15 C          -0.5250  -18.4869   19.9020 C.3     1  UNL1        0.0188
     16 C          -1.2011  -17.9839   18.6610 C.3     1  UNL1        0.0188
     17 C          -2.6750  -17.9162   18.9312 C.3     1  UNL1        0.0721
     18 O         -12.2204  -19.0224   25.1504 O.3     1  UNL1       -0.4754
     19 C         -13.4547  -18.5132   24.4669 C.3     1  UNL1        0.2068
     20 C         -13.3468  -17.4356   23.4291 C.3     1  UNL1        0.0646
     21 C         -13.4633  -17.7812   21.9741 C.3     1  UNL1        0.0759
     22 N         -12.2342  -18.1156   21.1819 N.3     1  UNL1       -0.2726
     23 C         -11.4634  -17.0257   20.4977 C.3     1  UNL1        0.0721
     24 C         -10.2343  -17.3600   19.7055 C.3     1  UNL1        0.0174
     25 C          -9.7761  -18.7841   19.5975 C.3     1  UNL1        0.0029
     26 C         -10.5469  -19.8740   20.2816 C.3     1  UNL1        0.0174
     27 C         -11.7759  -19.5397   21.0738 C.3     1  UNL1        0.0721
@<TRIPOS>BOND
     1     1     2   ar
     2     2     3   ar
     3     7     3    1
     4     7     8    1
     5     8     9    1
     6     9    10    1
     7    10    13    1
     8    13    14    1
     9    14    15    1
    10    15    16    1
    11    16    17    1
    12    10    11    1
    13    11    12    1
    14     3     4   ar
    15     4     5   ar
    16     5     6   ar
    17     6    18    1
    18    18    19    1
    19    19    20    1
    20    20    21    1
    21    21    22    1
    22    22    23    1
    23    23    24    1
    24    24    25    1
    25    25    26    1
    26    26    27    1
    27     6     1   ar
    28    27    22    1
    29    12     7    1
    30    17    13    1
@<TRIPOS>MOLECULE
*****
 27 30 0 0 0
SMALL
GASTEIGER

@<TRIPOS>ATOM
      1 C          -9.5990  -19.7163   22.9675 C.ar    1  UNL1        0.0366
      2 C          -8.1356  -19.4756   22.7426 C.ar    1  UNL1       -0.0012
      3 C          -7.6318  -19.1495   21.3679 C.ar    1  UNL1       -0.0223
      4 C          -8.5913  -19.0642   20.2181 C.ar    1  UNL1       -0.0012
      5 C         -10.0546  -19.3050   20.4430 C.ar    1  UNL1        0.0366
      6 C         -10.5585  -19.6311   21.8177 C.ar    1  UNL1        0.1385
      7 C          -6.1684  -18.9087   21.1430 C.3     1  UNL1        0.0224
      8 C          -5.5930  -19.0230   19.7625 C.3     1  UNL1        0.0057
      9 C          -4.1296  -18.7823   19.5375 C.3     1  UNL1        0.0163
     10 C          -3.2416  -18.4272   20.6932 C.3     1  UNL1        0.0575
     11 C          -3.8170  -18.3129   22.0737 C.3     1  UNL1        0.0163
     12 C          -5.2804  -18.5537   22.2986 C.3     1  UNL1        0.0057
     13 N          -1.7783  -18.1864   20.4682 N.3     1  UNL1       -0.2740
     14 C          -0.7441  -19.2372   20.1919 C.3     1  UNL1        0.0721
     15 C           0.5811  -18.5529   20.0330 C.3     1  UNL1        0.0188
     16 C           0.3661  -17.0790   20.2111 C.3     1  UNL1        0.0188
     17 C          -1.0921  -16.8526   20.4801 C.3     1  UNL1        0.0721
     18 O         -12.0219  -19.8718   22.0426 O.3     1  UNL1       -0.4754
     19 C         -12.9719  -18.7127   22.1039 C.3     1  UNL1        0.2068
     20 C         -12.6988  -17.5674   23.0333 C.3     1  UNL1        0.0646
     21 C         -11.9770  -16.3514   22.5331 C.3     1  UNL1        0.0759
     22 N         -10.5134  -16.1797   22.8135 N.3     1  UNL1       -0.2726
     23 C          -9.9863  -16.3880   24.2023 C.3     1  UNL1        0.0721
     24 C          -8.5228  -16.2164   24.4826 C.3     1  UNL1        0.0174
     25 C          -7.5864  -15.8364   23.3742 C.3     1  UNL1        0.0029
     26 C          -8.1135  -15.6280   21.9854 C.3     1  UNL1        0.0174
     27 C          -9.5770  -15.7996   21.7050 C.3     1  UNL1        0.0721
@<TRIPOS>BOND
     1     1     2   ar
     2     2     3   ar
     3     7     3    1
     4     7     8    1
     5     8     9    1
     6     9    10    1
     7    10    13    1
     8    13    14    1
     9    14    15    1
    10    15    16    1
    11    16    17    1
    12    10    11    1
    13    11    12    1
    14     3     4   ar
    15     4     5   ar
    16     5     6   ar
    17     6    18    1
    18    18    19    1
    19    19    20    1
    20    20    21    1
    21    21    22    1
    22    22    23    1
    23    23    24    1
    24    24    25    1
    25    25    26    1
    26    26    27    1
    27     6     1   ar
    28    27    22    1
    29    12     7    1
    30    17    13    1
@<TRIPOS>MOLECULE
*****
 27 30 0 0 0
SMALL
GASTEIGER

@<TRIPOS>ATOM
      1 C          -3.8399  -19.9236   21.8170 C.ar    1  UNL1        0.0366
      2 C          -5.2296  -19.7538   22.3555 C.ar    1  UNL1       -0.0012
      3 C          -6.3025  -19.1630   21.4896 C.ar    1  UNL1       -0.0223
      4 C          -5.9858  -18.7420   20.0852 C.ar    1  UNL1       -0.0012
      5 C          -4.5961  -18.9118   19.5467 C.ar    1  UNL1        0.0366
      6 C          -3.5232  -19.5026   20.4126 C.ar    1  UNL1        0.1385
      7 C          -7.6922  -18.9932   22.0282 C.3     1  UNL1        0.0224
      8 C          -8.4372  -17.7131   21.7911 C.3     1  UNL1        0.0057
      9 C          -9.8268  -17.5432   22.3296 C.3     1  UNL1        0.0163
     10 C         -10.4715  -18.6536   23.1053 C.3     1  UNL1        0.0575
     11 C          -9.7265  -19.9337   23.3424 C.3     1  UNL1        0.0163
     12 C          -8.3368  -20.1035   22.8038 C.3     1  UNL1        0.0057
     13 N         -11.8611  -18.4838   23.6438 N.3     1  UNL1       -0.2740
     14 C         -13.0224  -17.8789   22.9121 C.3     1  UNL1        0.0721
     15 C         -14.2125  -17.9103   23.8246 C.3     1  UNL1        0.0188
     16 C         -13.7867  -18.5345   25.1205 C.3     1  UNL1        0.0188
     17 C         -12.3334  -18.8889   25.0087 C.3     1  UNL1        0.0721
     18 O          -2.1335  -19.6724   19.8740 O.3     1  UNL1       -0.4754
     19 C          -1.2288  -18.4829   19.7447 C.3     1  UNL1        0.2068
     20 C          -1.7681  -17.1020   19.9731 C.3     1  UNL1        0.0646
     21 C          -1.5516  -16.4210   21.2920 C.3     1  UNL1        0.0759
     22 N          -2.6007  -16.5054   22.3608 N.3     1  UNL1       -0.2726
     23 C          -2.5049  -17.5591   23.4242 C.3     1  UNL1        0.0721
     24 C          -3.5539  -17.6435   24.4930 C.3     1  UNL1        0.0174
     25 C          -4.6987  -16.6744   24.4984 C.3     1  UNL1        0.0029
     26 C          -4.7945  -15.6208   23.4351 C.3     1  UNL1        0.0174
     27 C          -3.7455  -15.5363   22.3663 C.3     1  UNL1        0.0721
@<TRIPOS>BOND
     1     1     2   ar
     2     2     3   ar
     3     7     3    1
     4     7     8    1
     5     8     9    1
     6     9    10    1
     7    10    13    1
     8    13    14    1
     9    14    15    1
    10    15    16    1
    11    16    17    1
    12    10    11    1
    13    11    12    1
    14     3     4   ar
    15     4     5   ar
    16     5     6   ar
    17     6    18    1
    18    18    19    1
    19    19    20    1
    20    20    21    1
    21    21    22    1
    22    22    23    1
    23    23    24    1
    24    24    25    1
    25    25    26    1
    26    26    27    1
    27     6     1   ar
    28    27    22    1
    29    12     7    1
    30    17    13    1
@<TRIPOS>MOLECULE
*****
 27 30 0 0 0
SMALL
GASTEIGER

@<TRIPOS>ATOM
      1 C           4.1960   -3.2038   19.9181 C.ar    1  UNL1        0.0366
      2 C           3.1884   -2.1174   19.6849 C.ar    1  UNL1       -0.0012
      3 C           2.8629   -1.1481   20.7825 C.ar    1  UNL1       -0.0223
      4 C           3.5450   -1.2653   22.1132 C.ar    1  UNL1       -0.0012
      5 C           4.5526   -2.3517   22.3464 C.ar    1  UNL1        0.0366
      6 C           4.8781   -3.3210   21.2489 C.ar    1  UNL1        0.1385
      7 C           1.8553   -0.0616   20.5492 C.3     1  UNL1        0.0224
      8 C           1.1877    0.6050   21.7153 C.3     1  UNL1        0.0057
      9 C           0.1801    1.6914   21.4821 C.3     1  UNL1        0.0163
     10 C          -0.1599    2.1113   20.0827 C.3     1  UNL1        0.0575
     11 C           0.5078    1.4447   18.9166 C.3     1  UNL1        0.0163
     12 C           1.5154    0.3582   19.1498 C.3     1  UNL1        0.0057
     13 N          -1.1674    3.1977   19.8495 N.3     1  UNL1       -0.2740
     14 C          -0.9753    4.4073   18.9835 C.3     1  UNL1        0.0721
     15 C          -2.2331    5.2225   19.0401 C.3     1  UNL1        0.0188
     16 C          -3.2028    4.5167   19.9411 C.3     1  UNL1        0.0188
     17 C          -2.5441    3.2653   20.4413 C.3     1  UNL1        0.0721
     18 O           5.8857   -4.4075   21.4822 O.3     1  UNL1       -0.4754
     19 C           7.2573   -4.2991   20.8848 C.3     1  UNL1        0.2068
     20 C           7.8841   -2.9511   20.6853 C.3     1  UNL1        0.0646
     21 C           7.8534   -2.3023   19.3332 C.3     1  UNL1        0.0759
     22 N           6.9194   -1.1581   19.0714 N.3     1  UNL1       -0.2726
     23 C           6.2691   -1.0131   17.7275 C.3     1  UNL1        0.0721
     24 C           5.3352    0.1311   17.4657 C.3     1  UNL1        0.0174
     25 C           5.0515    1.1303   18.5479 C.3     1  UNL1        0.0029
     26 C           5.7017    0.9853   19.8918 C.3     1  UNL1        0.0174
     27 C           6.6357   -0.1589   20.1536 C.3     1  UNL1        0.0721
@<TRIPOS>BOND
     1     1     2   ar
     2     2     3   ar
     3     7     3    1
     4     7     8    1
     5     8     9    1
     6     9    10    1
     7    10    13    1
     8    13    14    1
     9    14    15    1
    10    15    16    1
    11    16    17    1
    12    10    11    1
    13    11    12    1
    14     3     4   ar
    15     4     5   ar
    16     5     6   ar
    17     6    18    1
    18    18    19    1
    19    19    20    1
    20    20    21    1
    21    21    22    1
    22    22    23    1
    23    23    24    1
    24    24    25    1
    25    25    26    1
    26    26    27    1
    27     6     1   ar
    28    27    22    1
    29    12     7    1
    30    17    13    1
@<TRIPOS>MOLECULE
*****
 27 30 0 0 0
SMALL
GASTEIGER

@<TRIPOS>ATOM
      1 C           4.5337   -2.3643   22.3713 C.ar    1  UNL1        0.0366
      2 C           3.5305   -1.2787   22.1158 C.ar    1  UNL1       -0.0012
      3 C           2.8718   -1.1673   20.7728 C.ar    1  UNL1       -0.0223
      4 C           3.2161   -2.1413   19.6854 C.ar    1  UNL1       -0.0012
      5 C           4.2193   -3.2268   19.9409 C.ar    1  UNL1        0.0366
      6 C           4.8780   -3.3383   21.2839 C.ar    1  UNL1        0.1385
      7 C           1.8686   -0.0816   20.5174 C.3     1  UNL1        0.0224
      8 C           1.5777    0.3551   19.1121 C.3     1  UNL1        0.0057
      9 C           0.5746    1.4407   18.8566 C.3     1  UNL1        0.0163
     10 C          -0.1376    2.0895   20.0063 C.3     1  UNL1        0.0575
     11 C           0.1532    1.6527   21.4115 C.3     1  UNL1        0.0163
     12 C           1.1564    0.5671   21.6670 C.3     1  UNL1        0.0057
     13 N          -1.1407    3.1750   19.7508 N.3     1  UNL1       -0.2740
     14 C          -1.0772    4.1931   18.6511 C.3     1  UNL1        0.0721
     15 C          -2.2807    5.0804   18.7707 C.3     1  UNL1        0.0188
     16 C          -3.0881    4.6107   19.9445 C.3     1  UNL1        0.0188
     17 C          -2.3835    3.4331   20.5501 C.3     1  UNL1        0.0721
     18 O           5.8812   -4.4239   21.5394 O.3     1  UNL1       -0.4754
     19 C           7.3075   -4.2428   21.1117 C.3     1  UNL1        0.2068
     20 C           7.8543   -2.8640   20.8887 C.3     1  UNL1        0.0646
     21 C           7.8774   -2.2808   19.5069 C.3     1  UNL1        0.0759
     22 N           6.9434   -1.1629   19.1490 N.3     1  UNL1       -0.2726
     23 C           6.5882   -0.1256   20.1727 C.3     1  UNL1        0.0721
     24 C           5.6543    0.9923   19.8148 C.3     1  UNL1        0.0174
     25 C           5.0756    1.0729   18.4333 C.3     1  UNL1        0.0029
     26 C           5.4308    0.0357   17.4096 C.3     1  UNL1        0.0174
     27 C           6.3647   -1.0822   17.7675 C.3     1  UNL1        0.0721
@<TRIPOS>BOND
     1     1     2   ar
     2     2     3   ar
     3     7     3    1
     4     7     8    1
     5     8     9    1
     6     9    10    1
     7    10    13    1
     8    13    14    1
     9    14    15    1
    10    15    16    1
    11    16    17    1
    12    10    11    1
    13    11    12    1
    14     3     4   ar
    15     4     5   ar
    16     5     6   ar
    17     6    18    1
    18    18    19    1
    19    19    20    1
    20    20    21    1
    21    21    22    1
    22    22    23    1
    23    23    24    1
    24    24    25    1
    25    25    26    1
    26    26    27    1
    27     6     1   ar
    28    27    22    1
    29    12     7    1
    30    17    13    1
@<TRIPOS>MOLECULE
*****
 27 30 0 0 0
SMALL
GASTEIGER

@<TRIPOS>ATOM
      1 C           8.0228   -1.7669   19.2793 C.ar    1  UNL1        0.0366
      2 C           8.2208   -2.5206   20.5610 C.ar    1  UNL1       -0.0012
      3 C           7.2265   -3.5628   20.9794 C.ar    1  UNL1       -0.0223
      4 C           6.0342   -3.8513   20.1162 C.ar    1  UNL1       -0.0012
      5 C           5.8362   -3.0976   18.8346 C.ar    1  UNL1        0.0366
      6 C           6.8306   -2.0554   18.4161 C.ar    1  UNL1        0.1385
      7 C           7.4245   -4.3165   22.2612 C.3     1  UNL1        0.0224
      8 C           8.4374   -5.4205   22.3332 C.3     1  UNL1        0.0057
      9 C           8.6354   -6.1742   23.6148 C.3     1  UNL1        0.0163
     10 C           7.8206   -5.8239   24.8246 C.3     1  UNL1        0.0575
     11 C           6.8077   -4.7199   24.7525 C.3     1  UNL1        0.0163
     12 C           6.6096   -3.9662   23.4708 C.3     1  UNL1        0.0057
     13 N           8.0186   -6.5776   26.1062 N.3     1  UNL1       -0.2740
     14 C           8.0867   -5.9787   27.4797 C.3     1  UNL1        0.0721
     15 C           8.2935   -7.0935   28.4618 C.3     1  UNL1        0.0188
     16 C           8.3532   -8.3815   27.6952 C.3     1  UNL1        0.0188
     17 C           8.1833   -8.0626   26.2394 C.3     1  UNL1        0.0721
     18 O           6.6325   -1.3017   17.1344 O.3     1  UNL1       -0.4754
     19 C           6.6775    0.1976   17.1314 C.3     1  UNL1        0.2068
     20 C           5.4303    0.9859   17.4014 C.3     1  UNL1        0.0646
     21 C           5.1025    1.4148   18.8009 C.3     1  UNL1        0.0759
     22 N           4.6325    0.4038   19.8045 N.3     1  UNL1       -0.2726
     23 C           5.4108    0.1832   21.0677 C.3     1  UNL1        0.0721
     24 C           4.9410   -0.8277   22.0713 C.3     1  UNL1        0.0174
     25 C           3.6928   -1.6180   21.8117 C.3     1  UNL1        0.0029
     26 C           2.9145   -1.3974   20.5485 C.3     1  UNL1        0.0174
     27 C           3.3844   -0.3865   19.5449 C.3     1  UNL1        0.0721
@<TRIPOS>BOND
     1     1     2   ar
     2     2     3   ar
     3     7     3    1
     4     7     8    1
     5     8     9    1
     6     9    10    1
     7    10    13    1
     8    13    14    1
     9    14    15    1
    10    15    16    1
    11    16    17    1
    12    10    11    1
    13    11    12    1
    14     3     4   ar
    15     4     5   ar
    16     5     6   ar
    17     6    18    1
    18    18    19    1
    19    19    20    1
    20    20    21    1
    21    21    22    1
    22    22    23    1
    23    23    24    1
    24    24    25    1
    25    25    26    1
    26    26    27    1
    27     6     1   ar
    28    27    22    1
    29    12     7    1
    30    17    13    1
@<TRIPOS>MOLECULE
*****
 27 30 0 0 0
SMALL
GASTEIGER

@<TRIPOS>ATOM
      1 C           0.9166   -0.2520   20.1029 C.ar    1  UNL1        0.0366
      2 C           2.0450   -1.1888   20.4177 C.ar    1  UNL1       -0.0012
      3 C           2.7922   -1.0549   21.7115 C.ar    1  UNL1       -0.0223
      4 C           2.4110    0.0158   22.6904 C.ar    1  UNL1       -0.0012
      5 C           1.2827    0.9526   22.3755 C.ar    1  UNL1        0.0366
      6 C           0.5354    0.8187   21.0818 C.ar    1  UNL1        0.1385
      7 C           3.9206   -1.9917   22.0263 C.3     1  UNL1        0.0224
      8 C           4.3536   -2.1932   23.4482 C.3     1  UNL1        0.0057
      9 C           5.4819   -3.1300   23.7631 C.3     1  UNL1        0.0163
     10 C           6.1774   -3.8654   22.6559 C.3     1  UNL1        0.0575
     11 C           5.7444   -3.6639   21.2340 C.3     1  UNL1        0.0163
     12 C           4.6160   -2.7270   20.9192 C.3     1  UNL1        0.0057
     13 N           7.3058   -4.8022   22.9708 N.3     1  UNL1       -0.2740
     14 C           8.4515   -5.1388   22.0631 C.3     1  UNL1        0.0721
     15 C           9.3404   -6.1115   22.7799 C.3     1  UNL1        0.0188
     16 C           8.7439   -6.3761   24.1306 C.3     1  UNL1        0.0188
     17 C           7.4865   -5.5668   24.2485 C.3     1  UNL1        0.0721
     18 O          -0.5930    1.7556   20.7670 O.3     1  UNL1       -0.4754
     19 C          -0.4062    2.8382   19.7457 C.3     1  UNL1        0.2068
     20 C           0.8854    3.5986   19.6864 C.3     1  UNL1        0.0646
     21 C           1.9236    3.2351   18.6667 C.3     1  UNL1        0.0759
     22 N           3.1136    2.4144   19.0676 N.3     1  UNL1       -0.2726
     23 C           3.6140    1.3274   18.1631 C.3     1  UNL1        0.0721
     24 C           4.8039    0.5068   18.5640 C.3     1  UNL1        0.0174
     25 C           5.4933    0.7731   19.8692 C.3     1  UNL1        0.0029
     26 C           4.9929    1.8601   20.7736 C.3     1  UNL1        0.0174
     27 C           3.8030    2.6807   20.3728 C.3     1  UNL1        0.0721
@<TRIPOS>BOND
     1     1     2   ar
     2     2     3   ar
     3     7     3    1
     4     7     8    1
     5     8     9    1
     6     9    10    1
     7    10    13    1
     8    13    14    1
     9    14    15    1
    10    15    16    1
    11    16    17    1
    12    10    11    1
    13    11    12    1
    14     3     4   ar
    15     4     5   ar
    16     5     6   ar
    17     6    18    1
    18    18    19    1
    19    19    20    1
    20    20    21    1
    21    21    22    1
    22    22    23    1
    23    23    24    1
    24    24    25    1
    25    25    26    1
    26    26    27    1
    27     6     1   ar
    28    27    22    1
    29    12     7    1
    30    17    13    1
@<TRIPOS>MOLECULE
*****
 27 30 0 0 0
SMALL
GASTEIGER

@<TRIPOS>ATOM
      1 C           4.8162   -3.7399   20.6536 C.ar    1  UNL1        0.0366
      2 C           3.7244   -2.7132   20.5933 C.ar    1  UNL1       -0.0012
      3 C           3.6106   -1.6752   21.6701 C.ar    1  UNL1       -0.0223
      4 C           4.5888   -1.6638   22.8072 C.ar    1  UNL1       -0.0012
      5 C           5.6807   -2.6905   22.8675 C.ar    1  UNL1        0.0366
      6 C           5.7944   -3.7285   21.7907 C.ar    1  UNL1        0.1385
      7 C           2.5187   -0.6484   21.6098 C.3     1  UNL1        0.0224
      8 C           2.3452    0.3289   22.7344 C.3     1  UNL1        0.0057
      9 C           1.2534    1.3556   22.6741 C.3     1  UNL1        0.0163
     10 C           0.3349    1.4050   21.4891 C.3     1  UNL1        0.0575
     11 C           0.5083    0.4276   20.3645 C.3     1  UNL1        0.0163
     12 C           1.6003   -0.5991   20.4249 C.3     1  UNL1        0.0057
     13 N          -0.7570    2.4317   21.4288 N.3     1  UNL1       -0.2740
     14 C          -1.5640    2.7903   20.2163 C.3     1  UNL1        0.0721
     15 C          -2.5393    3.8603   20.6085 C.3     1  UNL1        0.0188
     16 C          -2.3352    4.1629   22.0635 C.3     1  UNL1        0.0188
     17 C          -1.2336    3.2800   22.5704 C.3     1  UNL1        0.0721
     18 O           6.8863   -4.7553   21.8511 O.3     1  UNL1       -0.4754
     19 C           8.0947   -4.6174   20.9732 C.3     1  UNL1        0.2068
     20 C           8.7393   -3.2755   20.7896 C.3     1  UNL1        0.0646
     21 C           8.6148   -2.5566   19.4789 C.3     1  UNL1        0.0759
     22 N           7.4469   -1.6488   19.2294 N.3     1  UNL1       -0.2726
     23 C           7.1616   -0.5175   20.1720 C.3     1  UNL1        0.0721
     24 C           5.9939    0.3903   19.9225 C.3     1  UNL1        0.0174
     25 C           5.1115    0.1667   18.7304 C.3     1  UNL1        0.0029
     26 C           5.3968   -0.9647   17.7877 C.3     1  UNL1        0.0174
     27 C           6.5645   -1.8725   18.0372 C.3     1  UNL1        0.0721
@<TRIPOS>BOND
     1     1     2   ar
     2     2     3   ar
     3     7     3    1
     4     7     8    1
     5     8     9    1
     6     9    10    1
     7    10    13    1
     8    13    14    1
     9    14    15    1
    10    15    16    1
    11    16    17    1
    12    10    11    1
    13    11    12    1
    14     3     4   ar
    15     4     5   ar
    16     5     6   ar
    17     6    18    1
    18    18    19    1
    19    19    20    1
    20    20    21    1
    21    21    22    1
    22    22    23    1
    23    23    24    1
    24    24    25    1
    25    25    26    1
    26    26    27    1
    27     6     1   ar
    28    27    22    1
    29    12     7    1
    30    17    13    1
@<TRIPOS>MOLECULE
*****
 27 30 0 0 0
SMALL
GASTEIGER

@<TRIPOS>ATOM
      1 C           7.0753   -3.5139   20.6768 C.ar    1  UNL1        0.0366
      2 C           7.2887   -3.6277   22.1572 C.ar    1  UNL1       -0.0012
      3 C           6.1126   -3.7874   23.0744 C.ar    1  UNL1       -0.0223
      4 C           4.7231   -3.8333   22.5113 C.ar    1  UNL1       -0.0012
      5 C           4.5097   -3.7195   21.0309 C.ar    1  UNL1        0.0366
      6 C           5.6858   -3.5598   20.1137 C.ar    1  UNL1        0.1385
      7 C           6.3261   -3.9011   24.5548 C.3     1  UNL1        0.0224
      8 C           6.8320   -5.1848   25.1432 C.3     1  UNL1        0.0057
      9 C           7.0454   -5.2986   26.6235 C.3     1  UNL1        0.0163
     10 C           6.7530   -4.1287   27.5156 C.3     1  UNL1        0.0575
     11 C           6.2471   -2.8449   26.9272 C.3     1  UNL1        0.0163
     12 C           6.0337   -2.7312   25.4468 C.3     1  UNL1        0.0057
     13 N           6.9665   -4.2425   28.9959 N.3     1  UNL1       -0.2740
     14 C           6.8482   -5.4968   29.8099 C.3     1  UNL1        0.0721
     15 C           7.1443   -5.1515   31.2392 C.3     1  UNL1        0.0188
     16 C           7.4457   -3.6837   31.3087 C.3     1  UNL1        0.0188
     17 C           7.3358   -3.1219   29.9222 C.3     1  UNL1        0.0721
     18 O           5.4723   -3.4461   18.6333 O.3     1  UNL1       -0.4754
     19 C           5.3245   -2.0951   17.9985 C.3     1  UNL1        0.2068
     20 C           4.0653   -1.3054   18.2001 C.3     1  UNL1        0.0646
     21 C           4.0859   -0.0620   19.0387 C.3     1  UNL1        0.0759
     22 N           4.0977   -0.1666   20.5351 N.3     1  UNL1       -0.2726
     23 C           2.8227   -0.4348   21.2782 C.3     1  UNL1        0.0721
     24 C           2.8345   -0.5395   22.7745 C.3     1  UNL1        0.0174
     25 C           4.1213   -0.3760   23.5276 C.3     1  UNL1        0.0029
     26 C           5.3964   -0.1078   22.7844 C.3     1  UNL1        0.0174
     27 C           5.3846   -0.0031   21.2882 C.3     1  UNL1        0.0721
@<TRIPOS>BOND
     1     1     2   ar
     2     2     3   ar
     3     7     3    1
     4     7     8    1
     5     8     9    1
     6     9    10    1
     7    10    13    1
     8    13    14    1
     9    14    15    1
    10    15    16    1
    11    16    17    1
    12    10    11    1
    13    11    12    1
    14     3     4   ar
    15     4     5   ar
    16     5     6   ar
    17     6    18    1
    18    18    19    1
    19    19    20    1
    20    20    21    1
    21    21    22    1
    22    22    23    1
    23    23    24    1
    24    24    25    1
    25    25    26    1
    26    26    27    1
    27     6     1   ar
    28    27    22    1
    29    12     7    1
    30    17    13    1
