@<TRIPOS>MOLECULE
*****
 19 20 0 0 0
SMALL
GASTEIGER

@<TRIPOS>ATOM
      1 C          -7.3819  -15.5915   23.0700 C.2     1  UNL1        0.1535
      2 N          -8.1878  -15.5205   21.8069 N.2     1  UNL1       -0.2470
      3 C          -9.5192  -16.1593   22.0700 C.3     1  UNL1        0.1723
      4 C          -9.5362  -16.6251   23.4957 C.3     1  UNL1        0.1938
      5 O         -10.7523  -17.3086   24.0470 O.3     1  UNL1       -0.3399
      6 C         -11.9515  -17.5264   23.1725 C.3     1  UNL1        0.1803
      7 C         -11.9345  -17.0605   21.7468 C.3     1  UNL1        0.2189
      8 F         -13.1336  -17.2782   20.8723 F       1  UNL1       -0.2319
      9 C         -10.7183  -16.3770   21.1955 C.3     1  UNL1        0.1711
     10 O         -10.7014  -15.9111   19.7698 O.3     1  UNL1       -0.3796
     11 S          -8.2153  -16.2742   24.1138 S.3     1  UNL1       -0.0497
     12 H         -11.5479  -16.1280   19.3487 H       1  UNL1        0.2105
     13 C         -13.1675  -18.2099   23.7238 C.3     1  UNL1        0.1696
     14 O         -13.1978  -18.6440   25.1592 O.3     1  UNL1       -0.3794
     15 H         -12.5408  -19.3437   25.2994 H       1  UNL1        0.2105
     16 N          -5.9874  -15.0711   23.2566 N.pl3   1  UNL1       -0.3135
     17 H          -5.6414  -14.3664   22.6626 H       1  UNL1        0.1487
     18 C          -5.3005  -15.1534   25.7609 C.3     1  UNL1        0.0230
     19 C          -5.1202  -15.6246   24.3482 C.3     1  UNL1        0.0887
@<TRIPOS>BOND
     1    18    19    1
     2    19    16    1
     3    16     1    1
     4     1     2    2
     5     3     2    1
     6     3     4    1
     7     4     5    1
     8     5     6    1
     9     6    13    1
    10    13    14    1
    11     6     7    1
    12     7     8    1
    13     7     9    1
    14     9    10    1
    15     4    11    1
    16    11     1    1
    17     9     3    1
    18    16    17    1
    19    14    15    1
    20    10    12    1
@<TRIPOS>MOLECULE
*****
 19 20 0 0 0
SMALL
GASTEIGER

@<TRIPOS>ATOM
      1 C          -8.5802  -15.9739   25.9261 C.2     1  UNL1        0.1535
      2 N          -9.0077  -17.4004   26.1055 N.2     1  UNL1       -0.2470
      3 C          -9.5841  -17.8786   24.8059 C.3     1  UNL1        0.1723
      4 C          -9.5127  -16.7476   23.8231 C.3     1  UNL1        0.1938
      5 O         -10.0219  -16.9358   22.4248 O.3     1  UNL1       -0.3399
      6 C         -10.6025  -18.2550   22.0092 C.3     1  UNL1        0.1803
      7 C         -10.6739  -19.3860   22.9920 C.3     1  UNL1        0.2189
      8 F         -11.2545  -20.7051   22.5764 F       1  UNL1       -0.2319
      9 C         -10.1647  -19.1978   24.3903 C.3     1  UNL1        0.1711
     10 O         -10.2360  -20.3288   25.3730 O.3     1  UNL1       -0.3796
     11 S          -8.8923  -15.5705   24.5155 S.3     1  UNL1       -0.0497
     12 H         -10.6350  -21.1031   24.9464 H       1  UNL1        0.2105
     13 C         -11.1117  -18.4432   20.6109 C.3     1  UNL1        0.1696
     14 O         -11.9322  -17.3690   19.9607 O.3     1  UNL1       -0.3794
     15 H         -12.7763  -17.2781   20.4300 H       1  UNL1        0.2105
     16 N          -7.9510  -15.1036   26.9733 N.pl3   1  UNL1       -0.3135
     17 H          -8.5028  -14.4628   27.4774 H       1  UNL1        0.1487
     18 C          -5.5172  -15.4292   26.1244 C.3     1  UNL1        0.0230
     19 C          -6.4811  -15.2097   27.2526 C.3     1  UNL1        0.0887
@<TRIPOS>BOND
     1    18    19    1
     2    19    16    1
     3    16     1    1
     4     1     2    2
     5     3     2    1
     6     3     4    1
     7     4     5    1
     8     5     6    1
     9     6    13    1
    10    13    14    1
    11     6     7    1
    12     7     8    1
    13     7     9    1
    14     9    10    1
    15     4    11    1
    16    11     1    1
    17     9     3    1
    18    16    17    1
    19    14    15    1
    20    10    12    1
@<TRIPOS>MOLECULE
*****
 19 20 0 0 0
SMALL
GASTEIGER

@<TRIPOS>ATOM
      1 C          -7.0886  -18.9256   21.8770 C.2     1  UNL1        0.1535
      2 N          -7.6535  -17.5989   21.4638 N.2     1  UNL1       -0.2470
      3 C          -9.0654  -17.5202   21.9641 C.3     1  UNL1        0.1723
      4 C          -9.3731  -18.7982   22.6865 C.3     1  UNL1        0.1938
      5 O         -10.7260  -19.0060   23.3000 O.3     1  UNL1       -0.3399
      6 C         -11.7713  -17.9356   23.1911 C.3     1  UNL1        0.1803
      7 C         -11.4636  -16.6575   22.4688 C.3     1  UNL1        0.2189
      8 F         -12.5088  -15.5872   22.3599 F       1  UNL1       -0.2319
      9 C         -10.1106  -16.4498   21.8553 C.3     1  UNL1        0.1711
     10 O          -9.8028  -15.1717   21.1329 O.3     1  UNL1       -0.3796
     11 S          -8.1514  -19.6668   22.6326 S.3     1  UNL1       -0.0497
     12 H         -10.5807  -14.5926   21.1548 H       1  UNL1        0.2105
     13 C         -13.1242  -18.1433   23.8046 C.3     1  UNL1        0.1696
     14 O         -13.2397  -18.6352   25.2170 O.3     1  UNL1       -0.3794
     15 H         -12.8952  -19.5402   25.2733 H       1  UNL1        0.2105
     16 N          -5.7040  -19.4237   21.5856 N.pl3   1  UNL1       -0.3135
     17 H          -4.9582  -19.1812   22.1809 H       1  UNL1        0.1487
     18 C          -4.0539  -20.5205   19.9051 C.3     1  UNL1        0.0230
     19 C          -5.4556  -20.2910   20.3873 C.3     1  UNL1        0.0887
@<TRIPOS>BOND
     1    18    19    1
     2    19    16    1
     3    16     1    1
     4     1     2    2
     5     3     2    1
     6     3     4    1
     7     4     5    1
     8     5     6    1
     9     6    13    1
    10    13    14    1
    11     6     7    1
    12     7     8    1
    13     7     9    1
    14     9    10    1
    15     4    11    1
    16    11     1    1
    17     9     3    1
    18    16    17    1
    19    14    15    1
    20    10    12    1
@<TRIPOS>MOLECULE
*****
 19 20 0 0 0
SMALL
GASTEIGER

@<TRIPOS>ATOM
      1 C          -9.1415  -17.3693   21.6920 C.2     1  UNL1        0.1535
      2 N          -7.7100  -16.9325   21.7923 N.2     1  UNL1       -0.2470
      3 C          -7.4655  -16.4642   23.1962 C.3     1  UNL1        0.1723
      4 C          -8.7459  -16.6116   23.9636 C.3     1  UNL1        0.1938
      5 O          -8.8032  -16.2175   25.4097 O.3     1  UNL1       -0.3399
      6 C          -7.5801  -15.6759   26.0886 C.3     1  UNL1        0.1803
      7 C          -6.2997  -15.5284   25.3212 C.3     1  UNL1        0.2189
      8 F          -5.0766  -14.9868   25.9999 F       1  UNL1       -0.2319
      9 C          -6.2425  -15.9226   23.8750 C.3     1  UNL1        0.1711
     10 O          -4.9621  -15.7752   23.1076 O.3     1  UNL1       -0.3796
     11 S          -9.7817  -17.1710   23.0340 S.3     1  UNL1       -0.0497
     12 H          -4.2757  -15.4140   23.6901 H       1  UNL1        0.2105
     13 C          -7.6374  -15.2817   27.5347 C.3     1  UNL1        0.1696
     14 O          -8.7081  -14.3478   28.0156 O.3     1  UNL1       -0.3794
     15 H          -8.5794  -13.4742   27.6142 H       1  UNL1        0.2105
     16 N          -9.8146  -17.9096   20.4652 N.pl3   1  UNL1       -0.3135
     17 H          -9.3428  -18.5522   19.8875 H       1  UNL1        0.1487
     18 C         -11.4694  -16.0450   19.7339 C.3     1  UNL1        0.0230
     19 C         -11.2064  -17.4708   20.1186 C.3     1  UNL1        0.0887
@<TRIPOS>BOND
     1    18    19    1
     2    19    16    1
     3    16     1    1
     4     1     2    2
     5     3     2    1
     6     3     4    1
     7     4     5    1
     8     5     6    1
     9     6    13    1
    10    13    14    1
    11     6     7    1
    12     7     8    1
    13     7     9    1
    14     9    10    1
    15     4    11    1
    16    11     1    1
    17     9     3    1
    18    16    17    1
    19    14    15    1
    20    10    12    1
@<TRIPOS>MOLECULE
*****
 19 20 0 0 0
SMALL
GASTEIGER

@<TRIPOS>ATOM
      1 C          -7.4026  -19.8588   21.9780 C.2     1  UNL1        0.1535
      2 N          -8.3494  -20.0785   23.1204 N.2     1  UNL1       -0.2470
      3 C          -9.5719  -19.2442   22.8763 C.3     1  UNL1        0.1723
      4 C          -9.3806  -18.5088   21.5830 C.3     1  UNL1        0.1938
      5 O         -10.4519  -17.5884   21.0780 O.3     1  UNL1       -0.3399
      6 C         -11.7146  -17.4033   21.8663 C.3     1  UNL1        0.1803
      7 C         -11.9059  -18.1386   23.1596 C.3     1  UNL1        0.2189
      8 F         -13.1685  -17.9535   23.9479 F       1  UNL1       -0.2319
      9 C         -10.8345  -19.0591   23.6646 C.3     1  UNL1        0.1711
     10 O         -11.0259  -19.7944   24.9580 O.3     1  UNL1       -0.3796
     11 S          -8.0399  -18.8887   21.0278 S.3     1  UNL1       -0.0497
     12 H         -11.8887  -19.5638   25.3364 H       1  UNL1        0.2105
     13 C         -12.7859  -16.4828   21.3613 C.3     1  UNL1        0.1696
     14 O         -12.7959  -16.0624   19.9215 O.3     1  UNL1       -0.3794
     15 H         -12.0144  -15.5179   19.7382 H       1  UNL1        0.2105
     16 N          -6.0550  -20.4971   21.8144 N.pl3   1  UNL1       -0.3135
     17 H          -5.5232  -20.7344   22.6082 H       1  UNL1        0.1487
     18 C          -4.1422  -20.3081   20.0665 C.3     1  UNL1        0.0230
     19 C          -5.5179  -20.7738   20.4416 C.3     1  UNL1        0.0887
@<TRIPOS>BOND
     1    18    19    1
     2    19    16    1
     3    16     1    1
     4     1     2    2
     5     3     2    1
     6     3     4    1
     7     4     5    1
     8     5     6    1
     9     6    13    1
    10    13    14    1
    11     6     7    1
    12     7     8    1
    13     7     9    1
    14     9    10    1
    15     4    11    1
    16    11     1    1
    17     9     3    1
    18    16    17    1
    19    14    15    1
    20    10    12    1
@<TRIPOS>MOLECULE
*****
 19 20 0 0 0
SMALL
GASTEIGER

@<TRIPOS>ATOM
      1 C          -9.9432  -16.6149   21.6577 C.2     1  UNL1        0.1535
      2 N          -9.7191  -17.7609   20.7163 N.2     1  UNL1       -0.2470
      3 C          -8.3584  -18.3285   20.9926 C.3     1  UNL1        0.1723
      4 C          -7.7416  -17.5333   22.1049 C.3     1  UNL1        0.1938
      5 O          -6.3677  -17.8763   22.5997 O.3     1  UNL1       -0.3399
      6 C          -5.6106  -19.0145   21.9822 C.3     1  UNL1        0.1803
      7 C          -6.2275  -19.8098   20.8699 C.3     1  UNL1        0.2189
      8 F          -5.4704  -20.9480   20.2524 F       1  UNL1       -0.2319
      9 C          -7.6014  -19.4667   20.3751 C.3     1  UNL1        0.1711
     10 O          -8.2182  -20.2620   19.2629 O.3     1  UNL1       -0.3796
     11 S          -8.7211  -16.4742   22.5159 S.3     1  UNL1       -0.0497
     12 H          -7.6011  -20.9548   18.9799 H       1  UNL1        0.2105
     13 C          -4.2368  -19.3575   22.4770 C.3     1  UNL1        0.1696
     14 O          -3.0299  -18.7737   21.8042 O.3     1  UNL1       -0.3794
     15 H          -2.9668  -19.1166   20.8990 H       1  UNL1        0.2105
     16 N         -11.1735  -15.7597   21.7286 N.pl3   1  UNL1       -0.3135
     17 H         -11.2838  -15.0034   21.1079 H       1  UNL1        0.1487
     18 C         -12.8260  -17.4328   22.8330 C.3     1  UNL1        0.0230
     19 C         -12.2359  -16.0566   22.7450 C.3     1  UNL1        0.0887
@<TRIPOS>BOND
     1    18    19    1
     2    19    16    1
     3    16     1    1
     4     1     2    2
     5     3     2    1
     6     3     4    1
     7     4     5    1
     8     5     6    1
     9     6    13    1
    10    13    14    1
    11     6     7    1
    12     7     8    1
    13     7     9    1
    14     9    10    1
    15     4    11    1
    16    11     1    1
    17     9     3    1
    18    16    17    1
    19    14    15    1
    20    10    12    1
@<TRIPOS>MOLECULE
*****
 19 20 0 0 0
SMALL
GASTEIGER

@<TRIPOS>ATOM
      1 C          -9.3258  -18.2352   21.5801 C.2     1  UNL1        0.1535
      2 N          -8.4805  -19.3053   20.9553 N.2     1  UNL1       -0.2470
      3 C          -7.0665  -19.1062   21.4145 C.3     1  UNL1        0.1723
      4 C          -7.0379  -17.9131   22.3232 C.3     1  UNL1        0.1938
      5 O          -5.7440  -17.4710   22.9400 O.3     1  UNL1       -0.3399
      6 C          -4.4787  -18.2220   22.6481 C.3     1  UNL1        0.1803
      7 C          -4.5074  -19.4151   21.7394 C.3     1  UNL1        0.2189
      8 F          -3.2422  -20.1661   21.4476 F       1  UNL1       -0.2319
      9 C          -5.8013  -19.8572   21.1226 C.3     1  UNL1        0.1711
     10 O          -5.8299  -21.0503   20.2139 O.3     1  UNL1       -0.3796
     11 S          -8.4342  -17.3748   22.4255 S.3     1  UNL1       -0.0497
     12 H          -4.9353  -21.4162   20.1324 H       1  UNL1        0.2105
     13 C          -3.1849  -17.7799   23.2649 C.3     1  UNL1        0.1696
     14 O          -2.0487  -17.3401   22.3900 O.3     1  UNL1       -0.3794
     15 H          -1.7309  -18.0942   21.8693 H       1  UNL1        0.2105
     16 N         -10.8033  -18.0569   21.3925 N.pl3   1  UNL1       -0.3135
     17 H         -11.4196  -18.2377   22.1387 H       1  UNL1        0.1487
     18 C         -11.4249  -16.1386   19.7543 C.3     1  UNL1        0.0230
     19 C         -11.3418  -17.6031   20.0682 C.3     1  UNL1        0.0887
@<TRIPOS>BOND
     1    18    19    1
     2    19    16    1
     3    16     1    1
     4     1     2    2
     5     3     2    1
     6     3     4    1
     7     4     5    1
     8     5     6    1
     9     6    13    1
    10    13    14    1
    11     6     7    1
    12     7     8    1
    13     7     9    1
    14     9    10    1
    15     4    11    1
    16    11     1    1
    17     9     3    1
    18    16    17    1
    19    14    15    1
    20    10    12    1
@<TRIPOS>MOLECULE
*****
 19 20 0 0 0
SMALL
GASTEIGER

@<TRIPOS>ATOM
      1 C         -15.7487   -5.9240   19.3371 C.2     1  UNL1        0.1535
      2 N         -14.8268   -4.7591   19.5445 N.2     1  UNL1       -0.2470
      3 C         -13.4224   -5.2325   19.3135 C.3     1  UNL1        0.1723
      4 C         -13.4763   -6.6900   18.9632 C.3     1  UNL1        0.1938
      5 O         -12.2092   -7.4398   18.6763 O.3     1  UNL1       -0.3399
      6 C         -10.8882   -6.7320   18.7396 C.3     1  UNL1        0.1803
      7 C         -10.8343   -5.2745   19.0899 C.3     1  UNL1        0.2189
      8 F          -9.5133   -4.5667   19.1532 F       1  UNL1       -0.2319
      9 C         -12.1014   -4.5247   19.3768 C.3     1  UNL1        0.1711
     10 O         -12.0475   -3.0672   19.7271 O.3     1  UNL1       -0.3796
     11 S         -14.9140   -7.1174   18.9778 S.3     1  UNL1       -0.0497
     12 H         -11.1249   -2.7678   19.7239 H       1  UNL1        0.2105
     13 C          -9.6211   -7.4817   18.4526 C.3     1  UNL1        0.1696
     14 O          -9.6826   -8.8680   17.8830 O.3     1  UNL1       -0.3794
     15 H         -10.0821   -9.4671   18.5328 H       1  UNL1        0.2105
     16 N         -17.2430   -5.8997   19.4662 N.pl3   1  UNL1       -0.3135
     17 H         -17.6992   -5.0749   19.7504 H       1  UNL1        0.1487
     18 C         -18.5334   -8.0023   20.2811 C.3     1  UNL1        0.0230
     19 C         -18.0421   -7.1322   19.1623 C.3     1  UNL1        0.0887
@<TRIPOS>BOND
     1    18    19    1
     2    19    16    1
     3    16     1    1
     4     1     2    2
     5     3     2    1
     6     3     4    1
     7     4     5    1
     8     5     6    1
     9     6    13    1
    10    13    14    1
    11     6     7    1
    12     7     8    1
    13     7     9    1
    14     9    10    1
    15     4    11    1
    16    11     1    1
    17     9     3    1
    18    16    17    1
    19    14    15    1
    20    10    12    1
@<TRIPOS>MOLECULE
*****
 19 20 0 0 0
SMALL
GASTEIGER

@<TRIPOS>ATOM
      1 C         -14.0356   -2.8761   20.0127 C.2     1  UNL1        0.1535
      2 N         -12.8652   -2.3492   19.2364 N.2     1  UNL1       -0.2470
      3 C         -11.9978   -3.5131   18.8583 C.3     1  UNL1        0.1723
      4 C         -12.6321   -4.7594   19.4009 C.3     1  UNL1        0.1938
      5 O         -11.9809   -6.0917   19.1753 O.3     1  UNL1       -0.3399
      6 C         -10.6954   -6.1777   18.4071 C.3     1  UNL1        0.1803
      7 C         -10.0611   -4.9314   17.8645 C.3     1  UNL1        0.2189
      8 F          -8.7757   -5.0173   17.0962 F       1  UNL1       -0.2319
      9 C         -10.7124   -3.5990   18.0901 C.3     1  UNL1        0.1711
     10 O         -10.0781   -2.3527   17.5475 O.3     1  UNL1       -0.3796
     11 S         -13.8915   -4.3657   20.1143 S.3     1  UNL1       -0.0497
     12 H          -9.2597   -2.5833   17.0807 H       1  UNL1        0.2105
     13 C         -10.0442   -7.5100   18.1814 C.3     1  UNL1        0.1696
     14 O          -9.4533   -8.2613   19.3374 O.3     1  UNL1       -0.3794
     15 H          -8.6962   -7.7682   19.6904 H       1  UNL1        0.2105
     16 N         -15.1537   -2.0573   20.5865 N.pl3   1  UNL1       -0.3135
     17 H         -15.5387   -2.2942   21.4610 H       1  UNL1        0.1487
     18 C         -16.6787    0.0430   20.4724 C.3     1  UNL1        0.0230
     19 C         -15.6853   -0.8775   19.8278 C.3     1  UNL1        0.0887
@<TRIPOS>BOND
     1    18    19    1
     2    19    16    1
     3    16     1    1
     4     1     2    2
     5     3     2    1
     6     3     4    1
     7     4     5    1
     8     5     6    1
     9     6    13    1
    10    13    14    1
    11     6     7    1
    12     7     8    1
    13     7     9    1
    14     9    10    1
    15     4    11    1
    16    11     1    1
    17     9     3    1
    18    16    17    1
    19    14    15    1
    20    10    12    1
