@<TRIPOS>MOLECULE
*****
 33 37 0 0 0
SMALL
GASTEIGER

@<TRIPOS>ATOM
      1 C          -0.7131    2.8343   23.3556 C.ar    1  UNL1        0.3283
      2 N          -1.9777    3.5642   23.6988 N.ar    1  UNL1       -0.1750
      3 C          -2.5248    3.5016   25.0941 C.ar    1  UNL1        0.1665
      4 N          -1.8072    2.7092   26.1463 N.ar    1  UNL1       -0.1946
      5 C          -0.5424    1.9793   25.8031 C.ar    1  UNL1        0.2255
      6 N           0.0046    2.0418   24.4078 N.ar    1  UNL1       -0.1607
      7 C          -3.7895    4.2316   25.4373 C.2     1  UNL1        0.0249
      8 C          -3.8843    5.0066   26.7180 C.2     1  UNL1       -0.0005
      9 C          -5.1489    5.7364   27.0612 C.2     1  UNL1        0.0011
     10 C          -6.3190    5.6914   26.1235 C.2     1  UNL1        0.0172
     11 C          -6.2242    4.9164   24.8428 C.2     1  UNL1        0.0900
     12 N          -7.2054    4.6916   23.7307 N.2     1  UNL1       -0.1519
     13 N          -6.5472    3.8228   22.7003 N.2     1  UNL1       -0.1507
     14 C          -5.1591    3.5106   23.1755 C.2     1  UNL1        0.1058
     15 C          -4.9595    4.1865   24.4996 C.3     1  UNL1        0.1103
     16 N           0.1752    1.1869   26.8552 N.pl3   1  UNL1       -0.2729
     17 C          -0.5962    0.5604   27.9789 C.3     1  UNL1        0.1257
     18 C           0.1215   -0.2320   29.0311 C.3     1  UNL1        0.1637
     19 O           1.6105   -0.3980   28.9595 O.3     1  UNL1       -0.3501
     20 C           2.3819    0.2284   27.8358 C.3     1  UNL1        0.1637
     21 C           1.6643    1.0208   26.7837 C.3     1  UNL1        0.1257
     22 O          -0.1660    2.8968   21.9604 O.3     1  UNL1       -0.4222
     23 C           2.5674   -0.3514   20.4676 C.ar    1  UNL1        0.0538
     24 C           1.0844   -0.4730   20.2779 C.ar    1  UNL1        0.0076
     25 C           0.1732    0.6097   20.7755 C.ar    1  UNL1        0.0378
     26 C           0.7451    1.8141   21.4628 C.ar    1  UNL1        0.1487
     27 C           2.2280    1.9357   21.6525 C.ar    1  UNL1        0.0378
     28 C           3.1392    0.8531   21.1550 C.ar    1  UNL1        0.0076
     29 C           4.9000   -2.4783   18.0625 C.3     1  UNL1        0.1152
     30 N           3.9889   -1.3956   18.5601 N.am    1  UNL1       -0.2726
     31 C           3.5882   -0.2745   17.6477 C.3     1  UNL1        0.1152
     32 C           3.4784   -1.4340   19.9701 C.2     1  UNL1        0.2491
     33 O           3.8791   -2.5552   20.8825 O.2     1  UNL1       -0.2699
@<TRIPOS>BOND
     1    29    30    1
     2    30    31    1
     3    30    32   am
     4    32    33    2
     5    32    23    1
     6    23    24   ar
     7    24    25   ar
     8    25    26   ar
     9    26    22    1
    10    22     1    1
    11     1     2   ar
    12     2     3   ar
    13     3     7    1
    14     7     8    2
    15     8     9    1
    16     9    10    2
    17    10    11    1
    18    11    12    2
    19    12    13    1
    20    13    14    2
    21    14    15    1
    22     3     4   ar
    23     4     5   ar
    24     5    16    1
    25    16    17    1
    26    17    18    1
    27    18    19    1
    28    19    20    1
    29    20    21    1
    30     5     6   ar
    31    26    27   ar
    32    27    28   ar
    33    28    23   ar
    34     6     1   ar
    35    15     7    1
    36    21    16    1
    37    15    11    1
@<TRIPOS>MOLECULE
*****
 33 37 0 0 0
SMALL
GASTEIGER

@<TRIPOS>ATOM
      1 C          -0.5528    4.1285   20.0032 C.ar    1  UNL1        0.3283
      2 N          -0.5822    3.8778   21.4817 N.ar    1  UNL1       -0.1750
      3 C          -1.8957    3.7654   22.1974 C.ar    1  UNL1        0.1665
      4 N          -3.1798    3.9038   21.4346 N.ar    1  UNL1       -0.1946
      5 C          -3.1503    4.1546   19.9560 C.ar    1  UNL1        0.2255
      6 N          -1.8369    4.2669   19.2402 N.ar    1  UNL1       -0.1607
      7 C          -1.9250    3.5146   23.6761 C.2     1  UNL1        0.0249
      8 C          -0.7079    2.9791   24.3702 C.2     1  UNL1       -0.0005
      9 C          -0.7372    2.7284   25.8487 C.2     1  UNL1        0.0011
     10 C          -1.9837    3.0131   26.6333 C.2     1  UNL1        0.0172
     11 C          -3.2008    3.5486   25.9391 C.2     1  UNL1        0.0900
     12 N          -4.5625    3.9215   26.4456 N.2     1  UNL1       -0.1519
     13 N          -5.3748    4.4027   25.2800 N.2     1  UNL1       -0.1507
     14 C          -4.5151    4.3272   24.0531 C.2     1  UNL1        0.1058
     15 C          -3.1714    3.7994   24.4605 C.3     1  UNL1        0.1103
     16 N          -4.4344    4.2930   19.1931 N.pl3   1  UNL1       -0.2729
     17 C          -4.5121    5.2216   18.0176 C.3     1  UNL1        0.1257
     18 C          -5.7963    5.3600   17.2547 C.3     1  UNL1        0.1637
     19 O          -7.0026    4.5698   17.6674 O.3     1  UNL1       -0.3501
     20 C          -6.9249    3.6412   18.8428 C.3     1  UNL1        0.1637
     21 C          -5.6408    3.5028   19.6057 C.3     1  UNL1        0.1257
     22 O           0.7606    4.2409   19.2874 O.3     1  UNL1       -0.4222
     23 C           2.9913    0.5233   18.0816 C.ar    1  UNL1        0.0538
     24 C           1.5059    0.4742   18.2842 C.ar    1  UNL1        0.0076
     25 C           0.7622    1.7133   18.6862 C.ar    1  UNL1        0.0378
     26 C           1.5041    3.0017   18.8855 C.ar    1  UNL1        0.1487
     27 C           2.9895    3.0508   18.6828 C.ar    1  UNL1        0.0378
     28 C           3.7332    1.8117   18.2809 C.ar    1  UNL1        0.0076
     29 C           5.0577   -2.8558   18.3279 C.3     1  UNL1        0.1152
     30 N           4.3142   -1.6167   18.7298 N.am    1  UNL1       -0.2726
     31 C           4.1500   -1.2784   20.1819 C.3     1  UNL1        0.1152
     32 C           3.7348   -0.7158   17.6796 C.2     1  UNL1        0.2491
     33 O           3.8990   -1.0542   16.2276 O.2     1  UNL1       -0.2699
@<TRIPOS>BOND
     1    29    30    1
     2    30    31    1
     3    30    32   am
     4    32    33    2
     5    32    23    1
     6    23    24   ar
     7    24    25   ar
     8    25    26   ar
     9    26    22    1
    10    22     1    1
    11     1     2   ar
    12     2     3   ar
    13     3     7    1
    14     7     8    2
    15     8     9    1
    16     9    10    2
    17    10    11    1
    18    11    12    2
    19    12    13    1
    20    13    14    2
    21    14    15    1
    22     3     4   ar
    23     4     5   ar
    24     5    16    1
    25    16    17    1
    26    17    18    1
    27    18    19    1
    28    19    20    1
    29    20    21    1
    30     5     6   ar
    31    26    27   ar
    32    27    28   ar
    33    28    23   ar
    34     6     1   ar
    35    15     7    1
    36    21    16    1
    37    15    11    1
@<TRIPOS>MOLECULE
*****
 33 37 0 0 0
SMALL
GASTEIGER

@<TRIPOS>ATOM
      1 C          -0.4134    3.9225   20.4170 C.ar    1  UNL1        0.3283
      2 N          -1.8068    4.0765   19.8836 N.ar    1  UNL1       -0.1750
      3 C          -2.9832    3.9093   20.7992 C.ar    1  UNL1        0.1665
      4 N          -2.7662    3.5881   22.2482 N.ar    1  UNL1       -0.1946
      5 C          -1.3727    3.4341   22.7816 C.ar    1  UNL1        0.2255
      6 N          -0.1963    3.6012   21.8661 N.ar    1  UNL1       -0.1607
      7 C          -4.3767    4.0634   20.2657 C.2     1  UNL1        0.0249
      8 C          -4.7241    3.5259   18.9091 C.2     1  UNL1       -0.0005
      9 C          -6.1174    3.6799   18.3756 C.2     1  UNL1        0.0011
     10 C          -7.1635    4.3715   19.1987 C.2     1  UNL1        0.0172
     11 C          -6.8162    4.9090   20.5553 C.2     1  UNL1        0.0900
     12 N          -7.6304    5.6315   21.5872 N.2     1  UNL1       -0.1519
     13 N          -6.7402    5.9240   22.7586 N.2     1  UNL1       -0.1507
     14 C          -5.3758    5.3822   22.4505 C.2     1  UNL1        0.1058
     15 C          -5.4227    4.7549   21.0888 C.3     1  UNL1        0.1103
     16 N          -1.1556    3.1129   24.2307 N.pl3   1  UNL1       -0.2729
     17 C           0.0662    2.3533   24.6557 C.3     1  UNL1        0.1257
     18 C           0.2832    2.0321   26.1048 C.3     1  UNL1        0.1637
     19 O          -0.7214    2.4705   27.1287 O.3     1  UNL1       -0.3501
     20 C          -1.9431    3.2300   26.7037 C.3     1  UNL1        0.1637
     21 C          -2.1602    3.5512   25.2547 C.3     1  UNL1        0.1257
     22 O           0.7629    4.0896   19.5015 O.3     1  UNL1       -0.4222
     23 C           3.0662    0.4806   18.1157 C.ar    1  UNL1        0.0538
     24 C           3.7758    1.7832   18.3383 C.ar    1  UNL1        0.0076
     25 C           3.0081    2.9863   18.8002 C.ar    1  UNL1        0.0378
     26 C           1.5307    2.8866   19.0396 C.ar    1  UNL1        0.1487
     27 C           0.8210    1.5840   18.8170 C.ar    1  UNL1        0.0378
     28 C           1.5887    0.3810   18.3551 C.ar    1  UNL1        0.0076
     29 C           5.2762   -2.8147   18.1939 C.3     1  UNL1        0.1152
     30 N           4.5085   -1.6118   18.6558 N.am    1  UNL1       -0.2726
     31 C           4.4154   -1.2981   20.1197 C.3     1  UNL1        0.1152
     32 C           3.8339   -0.7223   17.6538 C.2     1  UNL1        0.2491
     33 O           3.9270   -1.0360   16.1900 O.2     1  UNL1       -0.2699
@<TRIPOS>BOND
     1    29    30    1
     2    30    31    1
     3    30    32   am
     4    32    33    2
     5    32    23    1
     6    23    24   ar
     7    24    25   ar
     8    25    26   ar
     9    26    22    1
    10    22     1    1
    11     1     2   ar
    12     2     3   ar
    13     3     7    1
    14     7     8    2
    15     8     9    1
    16     9    10    2
    17    10    11    1
    18    11    12    2
    19    12    13    1
    20    13    14    2
    21    14    15    1
    22     3     4   ar
    23     4     5   ar
    24     5    16    1
    25    16    17    1
    26    17    18    1
    27    18    19    1
    28    19    20    1
    29    20    21    1
    30     5     6   ar
    31    26    27   ar
    32    27    28   ar
    33    28    23   ar
    34     6     1   ar
    35    15     7    1
    36    21    16    1
    37    15    11    1
@<TRIPOS>MOLECULE
*****
 33 37 0 0 0
SMALL
GASTEIGER

@<TRIPOS>ATOM
      1 C          -0.5829    3.9813   20.3580 C.ar    1  UNL1        0.3283
      2 N          -0.3360    3.6380   21.7971 N.ar    1  UNL1       -0.1750
      3 C          -1.4923    3.4793   22.7394 C.ar    1  UNL1        0.1665
      4 N          -2.8955    3.6639   22.2426 N.ar    1  UNL1       -0.1946
      5 C          -3.1424    4.0072   20.8034 C.ar    1  UNL1        0.2255
      6 N          -1.9862    4.1659   19.8611 N.ar    1  UNL1       -0.1607
      7 C          -1.2453    3.1360   24.1786 C.2     1  UNL1        0.0249
      8 C          -2.1349    3.6986   25.2472 C.2     1  UNL1       -0.0005
      9 C          -1.8880    3.3554   26.6862 C.2     1  UNL1        0.0011
     10 C          -0.7513    2.4494   27.0569 C.2     1  UNL1        0.0172
     11 C           0.1383    1.8867   25.9882 C.2     1  UNL1        0.0900
     12 N           1.3273    0.9742   26.0497 N.2     1  UNL1       -0.1519
     13 N           1.8151    0.7536   24.6485 N.2     1  UNL1       -0.1507
     14 C           0.9276    1.5297   23.7211 C.2     1  UNL1        0.1058
     15 C          -0.1087    2.2300   24.5491 C.3     1  UNL1        0.1103
     16 N          -4.5457    4.1919   20.3065 N.pl3   1  UNL1       -0.2729
     17 C          -4.9868    3.5217   19.0391 C.3     1  UNL1        0.1257
     18 C          -6.3901    3.7063   18.5423 C.3     1  UNL1        0.1637
     19 O          -7.3521    4.5611   19.3128 O.3     1  UNL1       -0.3501
     20 C          -6.9110    5.2313   20.5802 C.3     1  UNL1        0.1637
     21 C          -5.5077    5.0467   21.0771 C.3     1  UNL1        0.1257
     22 O           0.5733    4.1399   19.4157 O.3     1  UNL1       -0.4222
     23 C           2.9426    0.5352   18.1341 C.ar    1  UNL1        0.0538
     24 C           1.4644    0.4193   18.3609 C.ar    1  UNL1        0.0076
     25 C           0.6746    1.6209   18.7881 C.ar    1  UNL1        0.0378
     26 C           1.3630    2.9384   18.9885 C.ar    1  UNL1        0.1487
     27 C           2.8412    3.0543   18.7617 C.ar    1  UNL1        0.0378
     28 C           3.6310    1.8528   18.3346 C.ar    1  UNL1        0.0076
     29 C           5.1452   -2.7612   18.3111 C.3     1  UNL1        0.1152
     30 N           4.3555   -1.5597   18.7383 N.am    1  UNL1       -0.2726
     31 C           4.1888   -1.2515   20.1967 C.3     1  UNL1        0.1152
     32 C           3.7323   -0.6663   17.7069 C.2     1  UNL1        0.2491
     33 O           3.8990   -0.9745   16.2484 O.2     1  UNL1       -0.2699
@<TRIPOS>BOND
     1    29    30    1
     2    30    31    1
     3    30    32   am
     4    32    33    2
     5    32    23    1
     6    23    24   ar
     7    24    25   ar
     8    25    26   ar
     9    26    22    1
    10    22     1    1
    11     1     2   ar
    12     2     3   ar
    13     3     7    1
    14     7     8    2
    15     8     9    1
    16     9    10    2
    17    10    11    1
    18    11    12    2
    19    12    13    1
    20    13    14    2
    21    14    15    1
    22     3     4   ar
    23     4     5   ar
    24     5    16    1
    25    16    17    1
    26    17    18    1
    27    18    19    1
    28    19    20    1
    29    20    21    1
    30     5     6   ar
    31    26    27   ar
    32    27    28   ar
    33    28    23   ar
    34     6     1   ar
    35    15     7    1
    36    21    16    1
    37    15    11    1
@<TRIPOS>MOLECULE
*****
 33 37 0 0 0
SMALL
GASTEIGER

@<TRIPOS>ATOM
      1 C          -0.2526    2.7599   23.0542 C.ar    1  UNL1        0.3283
      2 N           0.6602    2.3277   24.1631 N.ar    1  UNL1       -0.1750
      3 C           0.2132    2.4429   25.5904 C.ar    1  UNL1        0.1665
      4 N          -1.1466    2.9902   25.9086 N.ar    1  UNL1       -0.1946
      5 C          -2.0594    3.4224   24.7995 C.ar    1  UNL1        0.2255
      6 N          -1.6125    3.3072   23.3723 N.ar    1  UNL1       -0.1607
      7 C           1.1261    2.0107   26.6994 C.2     1  UNL1        0.0249
      8 C           2.5507    2.4796   26.7239 C.2     1  UNL1       -0.0005
      9 C           3.4635    2.0474   27.8328 C.2     1  UNL1        0.0011
     10 C           2.9519    1.1463   28.9174 C.2     1  UNL1        0.0172
     11 C           1.5273    0.6774   28.8929 C.2     1  UNL1        0.0900
     12 N           0.7462   -0.2085   29.8176 N.2     1  UNL1       -0.1519
     13 N          -0.6495   -0.3238   29.2802 N.2     1  UNL1       -0.1507
     14 C          -0.7309    0.4908   28.0232 C.2     1  UNL1        0.1058
     15 C           0.6144    1.1096   27.7839 C.3     1  UNL1        0.1103
     16 N          -3.4193    3.9697   25.1178 N.pl3   1  UNL1       -0.2729
     17 C          -3.7334    4.4364   26.5084 C.3     1  UNL1        0.1257
     18 C          -5.0933    4.9838   26.8265 C.3     1  UNL1        0.1637
     19 O          -6.1389    5.0644   25.7542 O.3     1  UNL1       -0.3501
     20 C          -5.8249    4.5978   24.3637 C.3     1  UNL1        0.1637
     21 C          -4.4650    4.0504   24.0455 C.3     1  UNL1        0.1257
     22 O           0.1943    2.6447   21.6270 O.3     1  UNL1       -0.4222
     23 C           2.8972   -0.7305   20.3809 C.ar    1  UNL1        0.0538
     24 C           1.4090   -0.8808   20.2684 C.ar    1  UNL1        0.0076
     25 C           0.5080    0.2443   20.6837 C.ar    1  UNL1        0.0378
     26 C           1.0953    1.5196   21.2116 C.ar    1  UNL1        0.1487
     27 C           2.5835    1.6698   21.3241 C.ar    1  UNL1        0.0378
     28 C           3.4845    0.5449   20.9088 C.ar    1  UNL1        0.0076
     29 C           5.2314   -3.0370   18.1490 C.3     1  UNL1        0.1152
     30 N           4.3305   -1.9120   18.5643 N.am    1  UNL1       -0.2726
     31 C           3.9619   -0.8432   17.5785 C.3     1  UNL1        0.1152
     32 C           3.7981   -1.8555   19.9656 C.2     1  UNL1        0.2491
     33 O           4.1667   -2.9243   20.9515 O.2     1  UNL1       -0.2699
@<TRIPOS>BOND
     1    29    30    1
     2    30    31    1
     3    30    32   am
     4    32    33    2
     5    32    23    1
     6    23    24   ar
     7    24    25   ar
     8    25    26   ar
     9    26    22    1
    10    22     1    1
    11     1     2   ar
    12     2     3   ar
    13     3     7    1
    14     7     8    2
    15     8     9    1
    16     9    10    2
    17    10    11    1
    18    11    12    2
    19    12    13    1
    20    13    14    2
    21    14    15    1
    22     3     4   ar
    23     4     5   ar
    24     5    16    1
    25    16    17    1
    26    17    18    1
    27    18    19    1
    28    19    20    1
    29    20    21    1
    30     5     6   ar
    31    26    27   ar
    32    27    28   ar
    33    28    23   ar
    34     6     1   ar
    35    15     7    1
    36    21    16    1
    37    15    11    1
@<TRIPOS>MOLECULE
*****
 33 37 0 0 0
SMALL
GASTEIGER

@<TRIPOS>ATOM
      1 C          -1.0422    3.2280   22.0490 C.ar    1  UNL1        0.3283
      2 N          -0.4492    2.9213   23.3921 N.ar    1  UNL1       -0.1750
      3 C          -1.3019    2.9985   24.6239 C.ar    1  UNL1        0.1665
      4 N          -2.7476    3.3823   24.5124 N.ar    1  UNL1       -0.1946
      5 C          -3.3407    3.6890   23.1691 C.ar    1  UNL1        0.2255
      6 N          -2.4881    3.6119   21.9374 N.ar    1  UNL1       -0.1607
      7 C          -0.7088    2.6918   25.9671 C.2     1  UNL1        0.0249
      8 C          -0.3804    1.2755   26.3362 C.2     1  UNL1       -0.0005
      9 C           0.2127    0.9688   27.6793 C.2     1  UNL1        0.0011
     10 C           0.4775    2.0783   28.6534 C.2     1  UNL1        0.0172
     11 C           0.1491    3.4946   28.2843 C.2     1  UNL1        0.0900
     12 N           0.2975    4.7868   29.0315 N.2     1  UNL1       -0.1519
     13 N          -0.2039    5.8921   28.1501 N.2     1  UNL1       -0.1507
     14 C          -0.6622    5.2831   26.8582 C.2     1  UNL1        0.1058
     15 C          -0.4440    3.8013   26.9411 C.3     1  UNL1        0.1103
     16 N          -4.7864    4.0729   23.0576 N.pl3   1  UNL1       -0.2729
     17 C          -5.4207    4.2223   21.7065 C.3     1  UNL1        0.1257
     18 C          -6.8665    4.6062   21.5950 C.3     1  UNL1        0.1637
     19 O          -7.6779    4.8406   22.8346 O.3     1  UNL1       -0.3501
     20 C          -7.0437    4.6911   24.1857 C.3     1  UNL1        0.1637
     21 C          -5.5980    4.3073   24.2972 C.3     1  UNL1        0.1257
     22 O          -0.1896    3.1508   20.8173 O.3     1  UNL1       -0.4222
     23 C           2.6122   -0.3220   20.2342 C.ar    1  UNL1        0.0538
     24 C           3.1591    1.0370   20.5566 C.ar    1  UNL1        0.0076
     25 C           2.2252    2.1947   20.7510 C.ar    1  UNL1        0.0378
     26 C           0.7443    1.9933   20.6230 C.ar    1  UNL1        0.1487
     27 C           0.1974    0.6342   20.3006 C.ar    1  UNL1        0.0378
     28 C           1.1312   -0.5234   20.1063 C.ar    1  UNL1        0.0076
     29 C           5.0622   -2.9117   18.4907 C.3     1  UNL1        0.1152
     30 N           4.1284   -1.7541   18.6850 N.am    1  UNL1       -0.2726
     31 C           3.7767   -0.8711   17.5246 C.3     1  UNL1        0.1152
     32 C           3.5461   -1.4795   20.0399 C.2     1  UNL1        0.2491
     33 O           3.8977   -2.3625   21.2003 O.2     1  UNL1       -0.2699
@<TRIPOS>BOND
     1    29    30    1
     2    30    31    1
     3    30    32   am
     4    32    33    2
     5    32    23    1
     6    23    24   ar
     7    24    25   ar
     8    25    26   ar
     9    26    22    1
    10    22     1    1
    11     1     2   ar
    12     2     3   ar
    13     3     7    1
    14     7     8    2
    15     8     9    1
    16     9    10    2
    17    10    11    1
    18    11    12    2
    19    12    13    1
    20    13    14    2
    21    14    15    1
    22     3     4   ar
    23     4     5   ar
    24     5    16    1
    25    16    17    1
    26    17    18    1
    27    18    19    1
    28    19    20    1
    29    20    21    1
    30     5     6   ar
    31    26    27   ar
    32    27    28   ar
    33    28    23   ar
    34     6     1   ar
    35    15     7    1
    36    21    16    1
    37    15    11    1
@<TRIPOS>MOLECULE
*****
 33 37 0 0 0
SMALL
GASTEIGER

@<TRIPOS>ATOM
      1 C          -1.0678    3.9111   23.3201 C.ar    1  UNL1        0.3283
      2 N          -0.0782    3.0361   22.6094 N.ar    1  UNL1       -0.1750
      3 C          -0.4448    2.3971   21.3027 C.ar    1  UNL1        0.1665
      4 N          -1.8009    2.6332   20.7067 N.ar    1  UNL1       -0.1946
      5 C          -2.7904    3.5083   21.4174 C.ar    1  UNL1        0.2255
      6 N          -2.4239    4.1472   22.7241 N.ar    1  UNL1       -0.1607
      7 C           0.5448    1.5221   20.5920 C.2     1  UNL1        0.0249
      8 C           0.4622    0.0308   20.7301 C.2     1  UNL1       -0.0005
      9 C           1.4517   -0.8442   20.0195 C.2     1  UNL1        0.0011
     10 C           2.5240   -0.2279   19.1707 C.2     1  UNL1        0.0172
     11 C           2.6067    1.2634   19.0326 C.2     1  UNL1        0.0900
     12 N           3.5467    2.1502   18.2712 N.2     1  UNL1       -0.1519
     13 N           3.1381    3.5734   18.5112 N.2     1  UNL1       -0.1507
     14 C           1.9455    3.5661   19.4210 C.2     1  UNL1        0.1058
     15 C           1.6171    2.1384   19.7433 C.3     1  UNL1        0.1103
     16 N          -4.1465    3.7444   20.8214 N.pl3   1  UNL1       -0.2729
     17 C          -4.3660    3.5389   19.3517 C.3     1  UNL1        0.1257
     18 C          -5.7222    3.7750   18.7558 C.3     1  UNL1        0.1637
     19 O          -6.8587    4.2165   19.6294 O.3     1  UNL1       -0.3501
     20 C          -6.6393    4.4219   21.0989 C.3     1  UNL1        0.1637
     21 C          -5.2832    4.1859   21.6949 C.3     1  UNL1        0.1257
     22 O          -0.7013    4.5501   24.6267 O.3     1  UNL1       -0.4222
     23 C           0.4685    1.9864   28.1352 C.ar    1  UNL1        0.0538
     24 C          -0.6094    1.5285   27.1981 C.ar    1  UNL1        0.0076
     25 C          -0.9994    2.3830   26.0285 C.ar    1  UNL1        0.0378
     26 C          -0.3114    3.6955   25.7962 C.ar    1  UNL1        0.1487
     27 C           0.7666    4.1534   26.7334 C.ar    1  UNL1        0.0378
     28 C           1.1566    3.2990   27.9029 C.ar    1  UNL1        0.0076
     29 C           2.3907   -0.6869   30.3506 C.3     1  UNL1        0.1152
     30 N           2.0008    0.1676   29.1812 N.am    1  UNL1       -0.2726
     31 C           2.7531    0.0578   27.8882 C.3     1  UNL1        0.1152
     32 C           0.8585    1.1319   29.3047 C.2     1  UNL1        0.2491
     33 O           0.1061    1.2417   30.5977 O.2     1  UNL1       -0.2699
@<TRIPOS>BOND
     1    29    30    1
     2    30    31    1
     3    30    32   am
     4    32    33    2
     5    32    23    1
     6    23    24   ar
     7    24    25   ar
     8    25    26   ar
     9    26    22    1
    10    22     1    1
    11     1     2   ar
    12     2     3   ar
    13     3     7    1
    14     7     8    2
    15     8     9    1
    16     9    10    2
    17    10    11    1
    18    11    12    2
    19    12    13    1
    20    13    14    2
    21    14    15    1
    22     3     4   ar
    23     4     5   ar
    24     5    16    1
    25    16    17    1
    26    17    18    1
    27    18    19    1
    28    19    20    1
    29    20    21    1
    30     5     6   ar
    31    26    27   ar
    32    27    28   ar
    33    28    23   ar
    34     6     1   ar
    35    15     7    1
    36    21    16    1
    37    15    11    1
@<TRIPOS>MOLECULE
*****
 33 37 0 0 0
SMALL
GASTEIGER

@<TRIPOS>ATOM
      1 C           5.4764   -0.9224   26.1876 C.ar    1  UNL1        0.3283
      2 N           5.2000   -1.2468   24.7495 N.ar    1  UNL1       -0.1750
      3 C           3.8532   -0.9503   24.1592 C.ar    1  UNL1        0.1665
      4 N           2.7829   -0.3294   25.0071 N.ar    1  UNL1       -0.1946
      5 C           3.0594   -0.0049   26.4452 C.ar    1  UNL1        0.2255
      6 N           4.4061   -0.3014   27.0355 N.ar    1  UNL1       -0.1607
      7 C           3.5768   -1.2748   22.7210 C.2     1  UNL1        0.0249
      8 C           2.6136   -0.4359   21.9346 C.2     1  UNL1       -0.0005
      9 C           2.3372   -0.7604   20.4965 C.2     1  UNL1        0.0011
     10 C           3.0239   -1.9238   19.8447 C.2     1  UNL1        0.0172
     11 C           3.9871   -2.7628   20.6311 C.2     1  UNL1        0.0900
     12 N           4.8076   -3.9626   20.2606 N.2     1  UNL1       -0.1519
     13 N           5.5911   -4.3796   21.4698 N.2     1  UNL1       -0.1507
     14 C           5.2549   -3.4375   22.5876 C.2     1  UNL1        0.1058
     15 C           4.2635   -2.4383   22.0693 C.3     1  UNL1        0.1103
     16 N           1.9891    0.6160   27.2931 N.pl3   1  UNL1       -0.2729
     17 C           1.2066    1.7863   26.7751 C.3     1  UNL1        0.1257
     18 C           0.1362    2.4073   27.6231 C.3     1  UNL1        0.1637
     19 O          -0.1515    1.8579   28.9888 O.3     1  UNL1       -0.3501
     20 C           0.6309    0.6876   29.5068 C.3     1  UNL1        0.1637
     21 C           1.7012    0.0667   28.6589 C.3     1  UNL1        0.1257
     22 O           6.8231   -1.2188   26.7779 O.3     1  UNL1       -0.4222
     23 C           7.9134   -5.4414   27.8874 C.ar    1  UNL1        0.0538
     24 C           6.5471   -4.9111   28.2064 C.ar    1  UNL1        0.0076
     25 C           6.1835   -3.5036   27.8366 C.ar    1  UNL1        0.0378
     26 C           7.1865   -2.6263   27.1478 C.ar    1  UNL1        0.1487
     27 C           8.5529   -3.1566   26.8288 C.ar    1  UNL1        0.0378
     28 C           8.9164   -4.5641   27.1986 C.ar    1  UNL1        0.0076
     29 C           8.3913   -9.3744   27.6586 C.3     1  UNL1        0.1152
     30 N           8.0279   -7.9670   27.2888 N.am    1  UNL1       -0.2726
     31 C           7.4154   -7.6775   25.9505 C.3     1  UNL1        0.1152
     32 C           8.2769   -6.8489   28.2573 C.2     1  UNL1        0.2491
     33 O           8.8893   -7.1384   29.5956 O.2     1  UNL1       -0.2699
@<TRIPOS>BOND
     1    29    30    1
     2    30    31    1
     3    30    32   am
     4    32    33    2
     5    32    23    1
     6    23    24   ar
     7    24    25   ar
     8    25    26   ar
     9    26    22    1
    10    22     1    1
    11     1     2   ar
    12     2     3   ar
    13     3     7    1
    14     7     8    2
    15     8     9    1
    16     9    10    2
    17    10    11    1
    18    11    12    2
    19    12    13    1
    20    13    14    2
    21    14    15    1
    22     3     4   ar
    23     4     5   ar
    24     5    16    1
    25    16    17    1
    26    17    18    1
    27    18    19    1
    28    19    20    1
    29    20    21    1
    30     5     6   ar
    31    26    27   ar
    32    27    28   ar
    33    28    23   ar
    34     6     1   ar
    35    15     7    1
    36    21    16    1
    37    15    11    1
@<TRIPOS>MOLECULE
*****
 33 37 0 0 0
SMALL
GASTEIGER

@<TRIPOS>ATOM
      1 C           5.9372   -1.6679   25.7254 C.ar    1  UNL1        0.3283
      2 N           6.6478   -2.9536   26.0284 N.ar    1  UNL1       -0.1750
      3 C           6.5888   -4.0912   25.0524 C.ar    1  UNL1        0.1665
      4 N           5.8192   -3.9431   23.7734 N.ar    1  UNL1       -0.1946
      5 C           5.1086   -2.6572   23.4705 C.ar    1  UNL1        0.2255
      6 N           5.1675   -1.5197   24.4464 N.ar    1  UNL1       -0.1607
      7 C           7.2995   -5.3770   25.3554 C.2     1  UNL1        0.0249
      8 C           7.8481   -6.2124   24.2369 C.2     1  UNL1       -0.0005
      9 C           8.5587   -7.4980   24.5398 C.2     1  UNL1        0.0011
     10 C           8.7207   -7.9485   25.9614 C.2     1  UNL1        0.0172
     11 C           8.1721   -7.1132   27.0800 C.2     1  UNL1        0.0900
     12 N           8.1794   -7.2992   28.5684 N.2     1  UNL1       -0.1519
     13 N           7.4733   -6.1283   29.1852 N.2     1  UNL1       -0.1507
     14 C           7.0296   -5.2187   28.0781 C.2     1  UNL1        0.1058
     15 C           7.4615   -5.8274   26.7770 C.3     1  UNL1        0.1103
     16 N           4.3389   -2.5090   22.1915 N.pl3   1  UNL1       -0.2729
     17 C           3.4305   -1.3316   21.9949 C.3     1  UNL1        0.1257
     18 C           2.6609   -1.1835   20.7159 C.3     1  UNL1        0.1637
     19 O           2.7997   -2.2127   19.6337 O.3     1  UNL1       -0.3501
     20 C           3.7080   -3.3900   19.8302 C.3     1  UNL1        0.1637
     21 C           4.4777   -3.5382   21.1092 C.3     1  UNL1        0.1257
     22 O           5.9962   -0.5303   26.7013 O.3     1  UNL1       -0.4222
     23 C           4.9672   -1.2214   31.0273 C.ar    1  UNL1        0.0538
     24 C           3.9835   -0.5416   30.1216 C.ar    1  UNL1        0.0076
     25 C           4.3264   -0.3112   28.6796 C.ar    1  UNL1        0.0378
     26 C           5.6532   -0.7607   28.1433 C.ar    1  UNL1        0.1487
     27 C           6.6369   -1.4405   29.0489 C.ar    1  UNL1        0.0378
     28 C           6.2940   -1.6708   30.4908 C.ar    1  UNL1        0.0076
     29 C           4.7358   -0.7058   34.9554 C.3     1  UNL1        0.1152
     30 N           5.0788   -0.4755   33.5135 N.am    1  UNL1       -0.2726
     31 C           5.8764    0.7309   33.1157 C.3     1  UNL1        0.1152
     32 C           4.6242   -1.4517   32.4692 C.2     1  UNL1        0.2491
     33 O           3.8265   -2.6581   32.8669 O.2     1  UNL1       -0.2699
@<TRIPOS>BOND
     1    29    30    1
     2    30    31    1
     3    30    32   am
     4    32    33    2
     5    32    23    1
     6    23    24   ar
     7    24    25   ar
     8    25    26   ar
     9    26    22    1
    10    22     1    1
    11     1     2   ar
    12     2     3   ar
    13     3     7    1
    14     7     8    2
    15     8     9    1
    16     9    10    2
    17    10    11    1
    18    11    12    2
    19    12    13    1
    20    13    14    2
    21    14    15    1
    22     3     4   ar
    23     4     5   ar
    24     5    16    1
    25    16    17    1
    26    17    18    1
    27    18    19    1
    28    19    20    1
    29    20    21    1
    30     5     6   ar
    31    26    27   ar
    32    27    28   ar
    33    28    23   ar
    34     6     1   ar
    35    15     7    1
    36    21    16    1
    37    15    11    1
