@<TRIPOS>MOLECULE
*****
 30 33 0 0 0
SMALL
GASTEIGER

@<TRIPOS>ATOM
      1 C         -10.2258  -19.4740   22.5779 C.ar    1  UNL1        0.0340
      2 C          -9.2978  -20.2246   23.4864 C.ar    1  UNL1        0.0028
      3 C          -7.8654  -20.4304   23.0916 C.ar    1  UNL1       -0.0021
      4 C          -7.3610  -19.8856   21.7883 C.ar    1  UNL1        0.0051
      5 C          -8.2890  -19.1350   20.8798 C.ar    1  UNL1        0.0346
      6 C          -9.7214  -18.9292   21.2746 C.ar    1  UNL1        0.1382
      7 C         -11.9912  -18.7243   24.3304 C.2     1  UNL1        0.0152
      8 C         -11.6582  -19.2683   22.9728 C.2     1  UNL1        0.0042
      9 O         -14.4188  -18.0354   23.7123 O.co2   1  UNL1       -0.5446
     10 C         -13.4236  -18.5186   24.7252 C.2     1  UNL1        0.0729
     11 O         -13.8608  -18.7961   26.1331 O.co2   1  UNL1       -0.5446
     12 C          -5.9286  -20.0913   21.3934 C.3     1  UNL1        0.1539
     13 N          -4.8603  -19.2013   21.9559 N.ar    1  UNL1       -0.2449
     14 C          -3.3808  -19.4249   21.8510 C.ar    1  UNL1        0.0971
     15 C          -2.6900  -18.2932   22.5523 C.ar    1  UNL1        0.0427
     16 C          -3.7426  -17.3700   23.0907 C.ar    1  UNL1        0.1217
     17 N          -5.0839  -17.9312   22.7221 N.ar    1  UNL1       -0.1673
     18 O         -10.6494  -18.1786   20.3661 O.3     1  UNL1       -0.4751
     19 C         -10.8147  -16.6959   20.5216 C.3     1  UNL1        0.2101
     20 C         -10.9174  -16.0922   21.8909 C.3     1  UNL1        0.0736
     21 C          -9.6805  -15.8848   22.7138 C.ar    1  UNL1       -0.0184
     22 C          -8.4063  -15.4460   22.0551 C.ar    1  UNL1       -0.0041
     23 C          -7.1695  -15.2385   22.8779 C.ar    1  UNL1       -0.0003
     24 C          -7.2067  -15.4699   24.3595 C.ar    1  UNL1       -0.0000
     25 C          -5.9698  -15.2624   25.1823 C.ar    1  UNL1       -0.0000
     26 C          -6.0072  -15.4938   26.6639 C.ar    1  UNL1       -0.0000
     27 C          -7.2813  -15.9326   27.3226 C.ar    1  UNL1       -0.0000
     28 C          -8.5182  -16.1400   26.4998 C.ar    1  UNL1       -0.0000
     29 C          -8.4809  -15.9087   25.0183 C.ar    1  UNL1       -0.0003
     30 C          -9.7178  -16.1161   24.1954 C.ar    1  UNL1       -0.0041
@<TRIPOS>UNITY_ATOM_ATTR
9 1
charge -1
@<TRIPOS>BOND
     1     9    10   ar
     2    10    11   ar
     3    10     7    1
     4     7     8    2
     5     8     1    1
     6     1     2   ar
     7     2     3   ar
     8     3     4   ar
     9     4    12    1
    10    12    13    1
    11    13    14   ar
    12    14    15   ar
    13    15    16   ar
    14    16    17   ar
    15     4     5   ar
    16     5     6   ar
    17     6    18    1
    18    18    19    1
    19    19    20    1
    20    20    21    1
    21    21    22   ar
    22    22    23   ar
    23    23    24   ar
    24    24    25   ar
    25    25    26   ar
    26    26    27   ar
    27    27    28   ar
    28    28    29   ar
    29    29    30   ar
    30     6     1   ar
    31    30    21   ar
    32    17    13   ar
    33    29    24   ar
@<TRIPOS>MOLECULE
*****
 30 33 0 0 0
SMALL
GASTEIGER

@<TRIPOS>ATOM
      1 C          -6.5131  -19.3589   21.9086 C.ar    1  UNL1        0.0340
      2 C          -6.3535  -20.2426   20.7071 C.ar    1  UNL1        0.0028
      3 C          -5.0085  -20.3934   20.0603 C.ar    1  UNL1       -0.0021
      4 C          -3.8232  -19.6604   20.6150 C.ar    1  UNL1        0.0051
      5 C          -3.9828  -18.7767   21.8165 C.ar    1  UNL1        0.0346
      6 C          -5.3277  -18.6259   22.4632 C.ar    1  UNL1        0.1382
      7 C          -8.5057  -20.3852   23.2223 C.2     1  UNL1        0.0152
      8 C          -7.8581  -19.2081   22.5554 C.2     1  UNL1        0.0042
      9 O          -9.9536  -20.0727   25.3568 O.co2   1  UNL1       -0.5446
     10 C          -9.8507  -20.2344   23.8691 C.2     1  UNL1        0.0729
     11 O         -11.0928  -20.2453   23.0281 O.co2   1  UNL1       -0.5446
     12 C          -2.4782  -19.8112   19.9682 C.3     1  UNL1        0.1539
     13 N          -1.4832  -18.6908   20.0367 N.ar    1  UNL1       -0.2449
     14 C          -1.8013  -17.2414   20.2553 C.ar    1  UNL1        0.0971
     15 C          -0.5102  -16.4779   20.2523 C.ar    1  UNL1        0.0427
     16 C           0.6060  -17.4555   20.0318 C.ar    1  UNL1        0.1217
     17 N           0.0046  -18.8232   19.8985 N.ar    1  UNL1       -0.1673
     18 O          -5.4873  -17.7421   23.6647 O.3     1  UNL1       -0.4751
     19 C          -5.2312  -16.2686   23.5512 C.3     1  UNL1        0.2101
     20 C          -6.3534  -15.2944   23.7548 C.3     1  UNL1        0.0736
     21 C          -7.7696  -15.7173   23.4981 C.ar    1  UNL1       -0.0184
     22 C          -8.5966  -16.2848   24.6134 C.ar    1  UNL1       -0.0041
     23 C         -10.0127  -16.7077   24.3568 C.ar    1  UNL1       -0.0003
     24 C         -10.6018  -16.5631   22.9848 C.ar    1  UNL1       -0.0000
     25 C         -12.0178  -16.9860   22.7282 C.ar    1  UNL1       -0.0000
     26 C         -12.6068  -16.8414   21.3563 C.ar    1  UNL1       -0.0000
     27 C         -11.7797  -16.2739   20.2410 C.ar    1  UNL1       -0.0000
     28 C         -10.3637  -15.8510   20.4976 C.ar    1  UNL1       -0.0000
     29 C          -9.7747  -15.9956   21.8695 C.ar    1  UNL1       -0.0003
     30 C          -8.3585  -15.5727   22.1262 C.ar    1  UNL1       -0.0041
@<TRIPOS>UNITY_ATOM_ATTR
9 1
charge -1
@<TRIPOS>BOND
     1     9    10   ar
     2    10    11   ar
     3    10     7    1
     4     7     8    2
     5     8     1    1
     6     1     2   ar
     7     2     3   ar
     8     3     4   ar
     9     4    12    1
    10    12    13    1
    11    13    14   ar
    12    14    15   ar
    13    15    16   ar
    14    16    17   ar
    15     4     5   ar
    16     5     6   ar
    17     6    18    1
    18    18    19    1
    19    19    20    1
    20    20    21    1
    21    21    22   ar
    22    22    23   ar
    23    23    24   ar
    24    24    25   ar
    25    25    26   ar
    26    26    27   ar
    27    27    28   ar
    28    28    29   ar
    29    29    30   ar
    30     6     1   ar
    31    30    21   ar
    32    17    13   ar
    33    29    24   ar
@<TRIPOS>MOLECULE
*****
 30 33 0 0 0
SMALL
GASTEIGER

@<TRIPOS>ATOM
      1 C          -6.3377  -18.7564   22.0265 C.ar    1  UNL1        0.0340
      2 C          -5.0812  -18.9083   22.8316 C.ar    1  UNL1        0.0028
      3 C          -3.7772  -19.1806   22.1422 C.ar    1  UNL1       -0.0021
      4 C          -3.7296  -19.3011   20.6479 C.ar    1  UNL1        0.0051
      5 C          -4.9862  -19.1492   19.8428 C.ar    1  UNL1        0.0346
      6 C          -6.2902  -18.8769   20.5322 C.ar    1  UNL1        0.1382
      7 C          -7.8319  -17.2105   23.4852 C.2     1  UNL1        0.0152
      8 C          -7.6419  -18.4840   22.7159 C.2     1  UNL1        0.0042
      9 O          -9.4696  -17.6453   25.4546 O.co2   1  UNL1       -0.5446
     10 C          -9.1359  -16.9381   24.1745 C.2     1  UNL1        0.0729
     11 O         -10.1064  -15.9586   23.5838 O.co2   1  UNL1       -0.5446
     12 C          -2.4255  -19.5735   19.9585 C.3     1  UNL1        0.1539
     13 N          -1.3181  -18.5639   20.0226 N.ar    1  UNL1       -0.2449
     14 C          -1.4752  -17.0998   20.3085 C.ar    1  UNL1        0.0971
     15 C          -0.1133  -16.4721   20.2747 C.ar    1  UNL1        0.0427
     16 C           0.8856  -17.5482   19.9679 C.ar    1  UNL1        0.1217
     17 N           0.1410  -18.8410   19.8121 N.ar    1  UNL1       -0.1673
     18 O          -7.5467  -18.7250   19.7271 O.3     1  UNL1       -0.4751
     19 C          -8.1385  -19.9135   19.0290 C.3     1  UNL1        0.2101
     20 C          -9.6275  -20.0860   18.9733 C.3     1  UNL1        0.0736
     21 C         -10.5048  -19.3466   19.9396 C.ar    1  UNL1       -0.0184
     22 C         -11.2237  -18.1052   19.5013 C.ar    1  UNL1       -0.0041
     23 C         -12.1010  -17.3659   20.4675 C.ar    1  UNL1       -0.0003
     24 C         -12.2595  -17.8679   21.8721 C.ar    1  UNL1       -0.0000
     25 C         -13.1369  -17.1286   22.8383 C.ar    1  UNL1       -0.0000
     26 C         -13.2953  -17.6307   24.2429 C.ar    1  UNL1       -0.0000
     27 C         -12.5764  -18.8721   24.6812 C.ar    1  UNL1       -0.0000
     28 C         -11.6991  -19.6114   23.7150 C.ar    1  UNL1       -0.0000
     29 C         -11.5406  -19.1093   22.3104 C.ar    1  UNL1       -0.0003
     30 C         -10.6633  -19.8487   21.3441 C.ar    1  UNL1       -0.0041
@<TRIPOS>UNITY_ATOM_ATTR
9 1
charge -1
@<TRIPOS>BOND
     1     9    10   ar
     2    10    11   ar
     3    10     7    1
     4     7     8    2
     5     8     1    1
     6     1     2   ar
     7     2     3   ar
     8     3     4   ar
     9     4    12    1
    10    12    13    1
    11    13    14   ar
    12    14    15   ar
    13    15    16   ar
    14    16    17   ar
    15     4     5   ar
    16     5     6   ar
    17     6    18    1
    18    18    19    1
    19    19    20    1
    20    20    21    1
    21    21    22   ar
    22    22    23   ar
    23    23    24   ar
    24    24    25   ar
    25    25    26   ar
    26    26    27   ar
    27    27    28   ar
    28    28    29   ar
    29    29    30   ar
    30     6     1   ar
    31    30    21   ar
    32    17    13   ar
    33    29    24   ar
@<TRIPOS>MOLECULE
*****
 30 33 0 0 0
SMALL
GASTEIGER

@<TRIPOS>ATOM
      1 C          -6.5923  -19.5761   21.2541 C.ar    1  UNL1        0.0340
      2 C          -5.9941  -20.4092   20.1596 C.ar    1  UNL1        0.0028
      3 C          -4.5041  -20.5361   20.0427 C.ar    1  UNL1       -0.0021
      4 C          -3.6123  -19.8298   21.0202 C.ar    1  UNL1        0.0051
      5 C          -4.2104  -18.9967   22.1148 C.ar    1  UNL1        0.0346
      6 C          -5.7004  -18.8698   22.2317 C.ar    1  UNL1        0.1382
      7 C          -8.9376  -19.4915   20.1395 C.2     1  UNL1        0.0152
      8 C          -8.0824  -19.4492   21.3710 C.2     1  UNL1        0.0042
      9 O         -11.1706  -20.1687   21.2818 O.co2   1  UNL1       -0.5446
     10 C         -10.4276  -19.3646   20.2564 C.2     1  UNL1        0.0729
     11 O         -11.1747  -18.4336   19.3480 O.co2   1  UNL1       -0.5446
     12 C          -2.1222  -19.9567   20.9033 C.3     1  UNL1        0.1539
     13 N          -1.2892  -18.7499   20.5878 N.ar    1  UNL1       -0.2449
     14 C          -1.6608  -17.3241   20.8687 C.ar    1  UNL1        0.0971
     15 C          -0.5396  -16.4500   20.3905 C.ar    1  UNL1        0.0427
     16 C           0.5250  -17.3355   19.8139 C.ar    1  UNL1        0.1217
     17 N           0.0617  -18.7570   19.9358 N.ar    1  UNL1       -0.1673
     18 O          -6.2986  -18.0366   23.3262 O.3     1  UNL1       -0.4751
     19 C          -5.9451  -16.5834   23.4410 C.3     1  UNL1        0.2101
     20 C          -7.0196  -15.5407   23.3499 C.3     1  UNL1        0.0736
     21 C          -8.4343  -15.9450   23.0578 C.ar    1  UNL1       -0.0184
     22 C          -9.1259  -15.4229   21.8335 C.ar    1  UNL1       -0.0041
     23 C         -10.5405  -15.8272   21.5413 C.ar    1  UNL1       -0.0003
     24 C         -11.2635  -16.7536   22.4735 C.ar    1  UNL1       -0.0000
     25 C         -12.6781  -17.1579   22.1814 C.ar    1  UNL1       -0.0000
     26 C         -13.4011  -18.0844   23.1136 C.ar    1  UNL1       -0.0000
     27 C         -12.7094  -18.6065   24.3379 C.ar    1  UNL1       -0.0000
     28 C         -11.2948  -18.2022   24.6301 C.ar    1  UNL1       -0.0000
     29 C         -10.5719  -17.2758   23.6979 C.ar    1  UNL1       -0.0003
     30 C          -9.1572  -16.8714   23.9900 C.ar    1  UNL1       -0.0041
@<TRIPOS>UNITY_ATOM_ATTR
9 1
charge -1
@<TRIPOS>BOND
     1     9    10   ar
     2    10    11   ar
     3    10     7    1
     4     7     8    2
     5     8     1    1
     6     1     2   ar
     7     2     3   ar
     8     3     4   ar
     9     4    12    1
    10    12    13    1
    11    13    14   ar
    12    14    15   ar
    13    15    16   ar
    14    16    17   ar
    15     4     5   ar
    16     5     6   ar
    17     6    18    1
    18    18    19    1
    19    19    20    1
    20    20    21    1
    21    21    22   ar
    22    22    23   ar
    23    23    24   ar
    24    24    25   ar
    25    25    26   ar
    26    26    27   ar
    27    27    28   ar
    28    28    29   ar
    29    29    30   ar
    30     6     1   ar
    31    30    21   ar
    32    17    13   ar
    33    29    24   ar
@<TRIPOS>MOLECULE
*****
 30 33 0 0 0
SMALL
GASTEIGER

@<TRIPOS>ATOM
      1 C         -10.7811   -3.3966   18.2810 C.ar    1  UNL1        0.0340
      2 C         -10.0829   -2.8147   17.0877 C.ar    1  UNL1        0.0028
      3 C         -10.4555   -1.4485   16.5932 C.ar    1  UNL1       -0.0021
      4 C         -11.5263   -0.6642   17.2919 C.ar    1  UNL1        0.0051
      5 C         -12.2245   -1.2461   18.4852 C.ar    1  UNL1        0.0346
      6 C         -11.8519   -2.6123   18.9797 C.ar    1  UNL1        0.1382
      7 C         -10.0802   -5.8511   17.7968 C.2     1  UNL1        0.0152
      8 C         -10.4085   -4.7629   18.7755 C.2     1  UNL1        0.0042
      9 O         -10.0928   -8.4321   17.5003 O.co2   1  UNL1       -0.5446
     10 C          -9.7076   -7.2173   18.2913 C.2     1  UNL1        0.0729
     11 O          -8.9498   -7.3686   19.5770 O.co2   1  UNL1       -0.5446
     12 C         -11.8989    0.7021   16.7974 C.3     1  UNL1        0.1539
     13 N         -13.2748    1.2423   17.0518 N.ar    1  UNL1       -0.2449
     14 C         -14.4693    1.0674   16.1615 C.ar    1  UNL1        0.0971
     15 C         -15.6306    1.7693   16.8006 C.ar    1  UNL1        0.0427
     16 C         -15.1540    2.3781   18.0860 C.ar    1  UNL1        0.1217
     17 N         -13.6980    2.0524   18.2412 N.ar    1  UNL1       -0.1673
     18 O         -12.5501   -3.1942   20.1730 O.3     1  UNL1       -0.4751
     19 C         -13.8813   -3.8659   20.0093 C.3     1  UNL1        0.2101
     20 C         -14.2871   -4.4107   18.6720 C.3     1  UNL1        0.0736
     21 C         -14.6273   -5.8644   18.5262 C.ar    1  UNL1       -0.0184
     22 C         -13.7126   -6.7759   17.7630 C.ar    1  UNL1       -0.0041
     23 C         -14.0528   -8.2294   17.6172 C.ar    1  UNL1       -0.0003
     24 C         -15.3078   -8.7716   18.2346 C.ar    1  UNL1       -0.0000
     25 C         -15.6480  -10.2252   18.0888 C.ar    1  UNL1       -0.0000
     26 C         -16.9030  -10.7673   18.7061 C.ar    1  UNL1       -0.0000
     27 C         -17.8178   -9.8558   19.4692 C.ar    1  UNL1       -0.0000
     28 C         -17.4776   -8.4022   19.6150 C.ar    1  UNL1       -0.0000
     29 C         -16.2226   -7.8601   18.9977 C.ar    1  UNL1       -0.0003
     30 C         -15.8823   -6.4064   19.1435 C.ar    1  UNL1       -0.0041
@<TRIPOS>UNITY_ATOM_ATTR
9 1
charge -1
@<TRIPOS>BOND
     1     9    10   ar
     2    10    11   ar
     3    10     7    1
     4     7     8    2
     5     8     1    1
     6     1     2   ar
     7     2     3   ar
     8     3     4   ar
     9     4    12    1
    10    12    13    1
    11    13    14   ar
    12    14    15   ar
    13    15    16   ar
    14    16    17   ar
    15     4     5   ar
    16     5     6   ar
    17     6    18    1
    18    18    19    1
    19    19    20    1
    20    20    21    1
    21    21    22   ar
    22    22    23   ar
    23    23    24   ar
    24    24    25   ar
    25    25    26   ar
    26    26    27   ar
    27    27    28   ar
    28    28    29   ar
    29    29    30   ar
    30     6     1   ar
    31    30    21   ar
    32    17    13   ar
    33    29    24   ar
@<TRIPOS>MOLECULE
*****
 30 33 0 0 0
SMALL
GASTEIGER

@<TRIPOS>ATOM
      1 C           2.6169   -0.9692   21.6063 C.ar    1  UNL1        0.0340
      2 C           3.2481   -0.9195   22.9661 C.ar    1  UNL1        0.0028
      3 C           2.8286    0.1324   23.9497 C.ar    1  UNL1       -0.0021
      4 C           1.7780    1.1346   23.5735 C.ar    1  UNL1        0.0051
      5 C           1.1468    1.0849   22.2136 C.ar    1  UNL1        0.0346
      6 C           1.5662    0.0330   21.2301 C.ar    1  UNL1        0.1382
      7 C           4.1200   -2.9942   20.9818 C.2     1  UNL1        0.0152
      8 C           3.0364   -2.0212   20.6227 C.2     1  UNL1        0.0042
      9 O           5.9016   -4.6663   20.0985 O.co2   1  UNL1       -0.5446
     10 C           4.5395   -4.0461   19.9982 C.2     1  UNL1        0.0729
     11 O           3.5968   -4.4779   18.9142 O.co2   1  UNL1       -0.5446
     12 C           1.3585    2.1866   24.5571 C.3     1  UNL1        0.1539
     13 N           0.7472    1.7872   25.8673 N.ar    1  UNL1       -0.2449
     14 C          -0.7071    1.8734   26.2244 C.ar    1  UNL1        0.0971
     15 C          -0.8702    1.3710   27.6283 C.ar    1  UNL1        0.0427
     16 C           0.4833    0.9743   28.1389 C.ar    1  UNL1        0.1217
     17 N           1.4829    1.2315   27.0505 N.ar    1  UNL1       -0.1673
     18 O           0.9350   -0.0167   19.8702 O.3     1  UNL1       -0.4751
     19 C           0.9515    1.1984   18.9909 C.3     1  UNL1        0.2101
     20 C           2.2437    1.6790   18.3999 C.3     1  UNL1        0.0736
     21 C           3.4228    0.7549   18.3226 C.ar    1  UNL1       -0.0184
     22 C           3.4210   -0.3830   17.3452 C.ar    1  UNL1       -0.0041
     23 C           4.5999   -1.3071   17.2679 C.ar    1  UNL1       -0.0003
     24 C           5.7807   -1.0934   18.1680 C.ar    1  UNL1       -0.0000
     25 C           6.9597   -2.0176   18.0907 C.ar    1  UNL1       -0.0000
     26 C           8.1404   -1.8039   18.9908 C.ar    1  UNL1       -0.0000
     27 C           8.1421   -0.6660   19.9682 C.ar    1  UNL1       -0.0000
     28 C           6.9632    0.2581   20.0455 C.ar    1  UNL1       -0.0000
     29 C           5.7825    0.0444   19.1454 C.ar    1  UNL1       -0.0003
     30 C           4.6035    0.9686   19.2227 C.ar    1  UNL1       -0.0041
@<TRIPOS>UNITY_ATOM_ATTR
9 1
charge -1
@<TRIPOS>BOND
     1     9    10   ar
     2    10    11   ar
     3    10     7    1
     4     7     8    2
     5     8     1    1
     6     1     2   ar
     7     2     3   ar
     8     3     4   ar
     9     4    12    1
    10    12    13    1
    11    13    14   ar
    12    14    15   ar
    13    15    16   ar
    14    16    17   ar
    15     4     5   ar
    16     5     6   ar
    17     6    18    1
    18    18    19    1
    19    19    20    1
    20    20    21    1
    21    21    22   ar
    22    22    23   ar
    23    23    24   ar
    24    24    25   ar
    25    25    26   ar
    26    26    27   ar
    27    27    28   ar
    28    28    29   ar
    29    29    30   ar
    30     6     1   ar
    31    30    21   ar
    32    17    13   ar
    33    29    24   ar
@<TRIPOS>MOLECULE
*****
 30 33 0 0 0
SMALL
GASTEIGER

@<TRIPOS>ATOM
      1 C         -12.5301   -1.8020   18.9499 C.ar    1  UNL1        0.0340
      2 C         -12.7802   -0.5787   18.1188 C.ar    1  UNL1        0.0028
      3 C         -14.1127    0.1076   18.1763 C.ar    1  UNL1       -0.0021
      4 C         -15.1951   -0.4295   19.0650 C.ar    1  UNL1        0.0051
      5 C         -14.9451   -1.6529   19.8961 C.ar    1  UNL1        0.0346
      6 C         -13.6125   -2.3391   19.8386 C.ar    1  UNL1        0.1382
      7 C         -11.0684   -3.8201   18.2145 C.2     1  UNL1        0.0152
      8 C         -11.1975   -2.4883   18.8924 C.2     1  UNL1        0.0042
      9 O          -9.2138   -5.2329   19.3610 O.co2   1  UNL1       -0.5446
     10 C          -9.7359   -4.5064   18.1570 C.2     1  UNL1        0.0729
     11 O          -8.9253   -4.4660   16.8954 O.co2   1  UNL1       -0.5446
     12 C         -16.5278    0.2568   19.1225 C.3     1  UNL1        0.1539
     13 N         -16.8239    1.2285   20.2262 N.ar    1  UNL1       -0.2449
     14 C         -16.3237    2.6398   20.3161 C.ar    1  UNL1        0.0971
     15 C         -16.8628    3.2431   21.5791 C.ar    1  UNL1        0.0427
     16 C         -17.6964    2.2046   22.2699 C.ar    1  UNL1        0.1217
     17 N         -17.6723    0.9596   21.4336 N.ar    1  UNL1       -0.1673
     18 O         -13.3625   -3.5625   20.6698 O.3     1  UNL1       -0.4751
     19 C         -14.2060   -4.7873   20.4743 C.3     1  UNL1        0.2101
     20 C         -13.8305   -5.7981   19.4315 C.3     1  UNL1        0.0736
     21 C         -14.7581   -6.9353   19.1209 C.ar    1  UNL1       -0.0184
     22 C         -14.2469   -8.1423   18.3917 C.ar    1  UNL1       -0.0041
     23 C         -15.1743   -9.2795   18.0811 C.ar    1  UNL1       -0.0003
     24 C         -16.6131   -9.2097   18.4997 C.ar    1  UNL1       -0.0000
     25 C         -17.5406  -10.3469   18.1891 C.ar    1  UNL1       -0.0000
     26 C         -18.9793  -10.2770   18.6076 C.ar    1  UNL1       -0.0000
     27 C         -19.4905   -9.0700   19.3368 C.ar    1  UNL1       -0.0000
     28 C         -18.5630   -7.9328   19.6475 C.ar    1  UNL1       -0.0000
     29 C         -17.1243   -8.0026   19.2289 C.ar    1  UNL1       -0.0003
     30 C         -16.1967   -6.8654   19.5395 C.ar    1  UNL1       -0.0041
@<TRIPOS>UNITY_ATOM_ATTR
9 1
charge -1
@<TRIPOS>BOND
     1     9    10   ar
     2    10    11   ar
     3    10     7    1
     4     7     8    2
     5     8     1    1
     6     1     2   ar
     7     2     3   ar
     8     3     4   ar
     9     4    12    1
    10    12    13    1
    11    13    14   ar
    12    14    15   ar
    13    15    16   ar
    14    16    17   ar
    15     4     5   ar
    16     5     6   ar
    17     6    18    1
    18    18    19    1
    19    19    20    1
    20    20    21    1
    21    21    22   ar
    22    22    23   ar
    23    23    24   ar
    24    24    25   ar
    25    25    26   ar
    26    26    27   ar
    27    27    28   ar
    28    28    29   ar
    29    29    30   ar
    30     6     1   ar
    31    30    21   ar
    32    17    13   ar
    33    29    24   ar
@<TRIPOS>MOLECULE
*****
 30 33 0 0 0
SMALL
GASTEIGER

@<TRIPOS>ATOM
      1 C           6.9827   -1.5277   19.6512 C.ar    1  UNL1        0.0340
      2 C           7.1605   -0.2344   20.3898 C.ar    1  UNL1        0.0028
      3 C           6.3377    0.9625   20.0152 C.ar    1  UNL1       -0.0021
      4 C           5.3371    0.8660   18.9018 C.ar    1  UNL1        0.0051
      5 C           5.1594   -0.4273   18.1632 C.ar    1  UNL1        0.0346
      6 C           5.9821   -1.6242   18.5379 C.ar    1  UNL1        0.1382
      7 C           7.6859   -3.3170   21.3988 C.2     1  UNL1        0.0152
      8 C           7.8055   -2.7247   20.0260 C.2     1  UNL1        0.0042
      9 O           8.3858   -5.7848   20.9863 O.co2   1  UNL1       -0.5446
     10 C           8.5088   -4.5139   21.7735 C.2     1  UNL1        0.0729
     11 O           9.4546   -4.4399   22.9354 O.co2   1  UNL1       -0.5446
     12 C           4.5143    2.0630   18.5271 C.3     1  UNL1        0.1539
     13 N           3.0729    2.1398   18.9351 N.ar    1  UNL1       -0.2449
     14 C           2.5300    2.8854   20.1181 C.ar    1  UNL1        0.0971
     15 C           1.0430    2.6909   20.1459 C.ar    1  UNL1        0.0427
     16 C           0.6668    1.8251   18.9802 C.ar    1  UNL1        0.1217
     17 N           1.9214    1.4845   18.2319 N.ar    1  UNL1       -0.1673
     18 O           5.8044   -2.9176   17.7993 O.3     1  UNL1       -0.4751
     19 C           5.0365   -4.0416   18.4292 C.3     1  UNL1        0.2101
     20 C           3.6647   -3.7947   18.9835 C.3     1  UNL1        0.0736
     21 C           3.4798   -2.8519   20.1355 C.ar    1  UNL1       -0.0184
     22 C           2.5852   -1.6567   19.9903 C.ar    1  UNL1       -0.0041
     23 C           2.4002   -0.7140   21.1423 C.ar    1  UNL1       -0.0003
     24 C           3.1100   -0.9664   22.4395 C.ar    1  UNL1       -0.0000
     25 C           2.9251   -0.0236   23.5914 C.ar    1  UNL1       -0.0000
     26 C           3.6348   -0.2761   24.8885 C.ar    1  UNL1       -0.0000
     27 C           4.5294   -1.4713   25.0336 C.ar    1  UNL1       -0.0000
     28 C           4.7144   -2.4141   23.8817 C.ar    1  UNL1       -0.0000
     29 C           4.0046   -2.1616   22.5846 C.ar    1  UNL1       -0.0003
     30 C           4.1895   -3.1044   21.4326 C.ar    1  UNL1       -0.0041
@<TRIPOS>UNITY_ATOM_ATTR
9 1
charge -1
@<TRIPOS>BOND
     1     9    10   ar
     2    10    11   ar
     3    10     7    1
     4     7     8    2
     5     8     1    1
     6     1     2   ar
     7     2     3   ar
     8     3     4   ar
     9     4    12    1
    10    12    13    1
    11    13    14   ar
    12    14    15   ar
    13    15    16   ar
    14    16    17   ar
    15     4     5   ar
    16     5     6   ar
    17     6    18    1
    18    18    19    1
    19    19    20    1
    20    20    21    1
    21    21    22   ar
    22    22    23   ar
    23    23    24   ar
    24    24    25   ar
    25    25    26   ar
    26    26    27   ar
    27    27    28   ar
    28    28    29   ar
    29    29    30   ar
    30     6     1   ar
    31    30    21   ar
    32    17    13   ar
    33    29    24   ar
@<TRIPOS>MOLECULE
*****
 30 33 0 0 0
SMALL
GASTEIGER

@<TRIPOS>ATOM
      1 C           7.1321   -2.3636   20.5978 C.ar    1  UNL1        0.0340
      2 C           7.9065   -1.5711   21.6088 C.ar    1  UNL1        0.0028
      3 C           7.9893   -2.0450   23.0296 C.ar    1  UNL1       -0.0021
      4 C           7.2975   -3.3113   23.4393 C.ar    1  UNL1        0.0051
      5 C           6.5231   -4.1038   22.4282 C.ar    1  UNL1        0.0346
      6 C           6.4404   -3.6299   21.0075 C.ar    1  UNL1        0.1382
      7 C           6.0900   -0.7983   18.8050 C.2     1  UNL1        0.0152
      8 C           7.0494   -1.8897   19.1770 C.2     1  UNL1        0.0042
      9 O           7.1827    0.3607   16.7526 O.co2   1  UNL1       -0.5446
     10 C           6.0073   -0.3245   17.3843 C.2     1  UNL1        0.0729
     11 O           4.7492   -0.5358   16.5951 O.co2   1  UNL1       -0.5446
     12 C           7.3803   -3.7852   24.8601 C.3     1  UNL1        0.1539
     13 N           7.5224   -5.2489   25.1554 N.ar    1  UNL1       -0.2449
     14 C           8.4001   -6.2160   24.4177 C.ar    1  UNL1        0.0971
     15 C           8.2319   -7.5674   25.0466 C.ar    1  UNL1        0.0427
     16 C           7.2503   -7.4354   26.1732 C.ar    1  UNL1        0.1217
     17 N           6.8118   -6.0026   26.2404 N.ar    1  UNL1       -0.1673
     18 O           5.6660   -4.4224   19.9964 O.3     1  UNL1       -0.4751
     19 C           4.1700   -4.3222   19.9510 C.3     1  UNL1        0.2101
     20 C           3.5173   -3.0733   19.4370 C.3     1  UNL1        0.0736
     21 C           3.0688   -2.0117   20.3972 C.ar    1  UNL1       -0.0184
     22 C           2.0939   -0.9619   19.9529 C.ar    1  UNL1       -0.0041
     23 C           1.6453    0.0996   20.9130 C.ar    1  UNL1       -0.0003
     24 C           2.1718    0.1114   22.3176 C.ar    1  UNL1       -0.0000
     25 C           1.7232    1.1729   23.2778 C.ar    1  UNL1       -0.0000
     26 C           2.2497    1.1847   24.6823 C.ar    1  UNL1       -0.0000
     27 C           3.2246    0.1349   25.1266 C.ar    1  UNL1       -0.0000
     28 C           3.6731   -0.9266   24.1665 C.ar    1  UNL1       -0.0000
     29 C           3.1467   -0.9384   22.7620 C.ar    1  UNL1       -0.0003
     30 C           3.5952   -1.9999   21.8017 C.ar    1  UNL1       -0.0041
@<TRIPOS>UNITY_ATOM_ATTR
9 1
charge -1
@<TRIPOS>BOND
     1     9    10   ar
     2    10    11   ar
     3    10     7    1
     4     7     8    2
     5     8     1    1
     6     1     2   ar
     7     2     3   ar
     8     3     4   ar
     9     4    12    1
    10    12    13    1
    11    13    14   ar
    12    14    15   ar
    13    15    16   ar
    14    16    17   ar
    15     4     5   ar
    16     5     6   ar
    17     6    18    1
    18    18    19    1
    19    19    20    1
    20    20    21    1
    21    21    22   ar
    22    22    23   ar
    23    23    24   ar
    24    24    25   ar
    25    25    26   ar
    26    26    27   ar
    27    27    28   ar
    28    28    29   ar
    29    29    30   ar
    30     6     1   ar
    31    30    21   ar
    32    17    13   ar
    33    29    24   ar
