@<TRIPOS>MOLECULE
*****
 22 23 0 0 0
SMALL
GASTEIGER

@<TRIPOS>ATOM
      1 C          -7.8738  -16.7315   23.1044 C.2     1  UNL1        0.2406
      2 O          -7.9098  -15.8284   21.9072 O.2     1  UNL1       -0.2733
      3 N          -8.2626  -18.1737   22.9678 N.am    1  UNL1       -0.2833
      4 H          -8.2390  -18.7665   23.7535 H       1  UNL1        0.1549
      5 C          -8.6874  -18.7130   21.6341 C.ar    1  UNL1        0.0423
      6 C         -10.1428  -18.7629   21.2743 C.ar    1  UNL1       -0.0087
      7 C         -11.1733  -18.2736   22.2482 C.3     1  UNL1        0.0323
      8 C         -10.5675  -19.3022   19.9405 C.ar    1  UNL1       -0.0031
      9 C          -9.5369  -19.7914   18.9667 C.ar    1  UNL1       -0.0006
     10 C          -8.0816  -19.7415   19.3265 C.ar    1  UNL1       -0.0031
     11 C          -7.6568  -19.2023   20.6602 C.ar    1  UNL1       -0.0087
     12 C          -6.2015  -19.1524   21.0200 C.3     1  UNL1        0.0323
     13 N          -6.0031  -15.8902   24.6990 N.3     1  UNL1       -0.2666
     14 C          -5.5784  -15.3510   26.0327 C.3     1  UNL1        0.0725
     15 C          -6.5996  -15.1139   27.1056 C.3     1  UNL1        0.0174
     16 C          -8.0455  -15.4160   26.8447 C.3     1  UNL1        0.0033
     17 C          -8.4702  -15.9552   25.5110 C.3     1  UNL1        0.0254
     18 C          -7.4490  -16.1923   24.4381 C.3     1  UNL1        0.1351
     19 C          -4.9820  -16.1272   23.6262 C.3     1  UNL1        0.0725
     20 C          -4.1730  -17.3904   23.6267 C.3     1  UNL1        0.0173
     21 C          -2.3850  -16.3319   22.0670 C.3     1  UNL1        0.0000
     22 C          -3.0234  -17.5452   22.6756 C.3     1  UNL1        0.0014
@<TRIPOS>BOND
     1    21    22    1
     2    22    20    1
     3    20    19    1
     4    19    13    1
     5    13    14    1
     6    14    15    1
     7    15    16    1
     8    16    17    1
     9    17    18    1
    10    18     1    1
    11     1     2    2
    12     1     3   am
    13     3     5    1
    14     5     6   ar
    15     6     7    1
    16     6     8   ar
    17     8     9   ar
    18     9    10   ar
    19    10    11   ar
    20    11    12    1
    21    18    13    1
    22    11     5   ar
    23     3     4    1
@<TRIPOS>MOLECULE
*****
 22 23 0 0 0
SMALL
GASTEIGER

@<TRIPOS>ATOM
      1 C          -7.8758  -16.7270   23.1211 C.2     1  UNL1        0.2406
      2 O          -7.9078  -15.8200   21.9269 O.2     1  UNL1       -0.2733
      3 N          -8.2682  -18.1678   22.9793 N.am    1  UNL1       -0.2833
      4 H          -8.2472  -18.7631   23.7632 H       1  UNL1        0.1549
      5 C          -8.6925  -18.7016   21.6433 C.ar    1  UNL1        0.0423
      6 C          -7.6617  -19.1890   20.6686 C.ar    1  UNL1       -0.0087
      7 C          -6.2067  -19.1426   21.0300 C.3     1  UNL1        0.0323
      8 C          -8.0861  -19.7228   19.3326 C.ar    1  UNL1       -0.0031
      9 C          -9.5412  -19.7692   18.9712 C.ar    1  UNL1       -0.0006
     10 C         -10.5719  -19.2818   19.9459 C.ar    1  UNL1       -0.0031
     11 C         -10.1476  -18.7480   21.2819 C.ar    1  UNL1       -0.0087
     12 C         -11.1784  -18.2606   22.2566 C.3     1  UNL1        0.0323
     13 N          -6.0067  -15.8851   24.7174 N.3     1  UNL1       -0.2666
     14 C          -5.5825  -15.3514   26.0534 C.3     1  UNL1        0.0725
     15 C          -6.6030  -15.1257   27.1294 C.3     1  UNL1        0.0174
     16 C          -8.0478  -15.4338   26.8692 C.3     1  UNL1        0.0033
     17 C          -8.4720  -15.9675   25.5332 C.3     1  UNL1        0.0254
     18 C          -7.4515  -16.1932   24.4572 C.3     1  UNL1        0.1351
     19 C          -4.9862  -16.1108   23.6414 C.3     1  UNL1        0.0725
     20 C          -4.1729  -17.3711   23.6316 C.3     1  UNL1        0.0173
     21 C          -2.3653  -16.3676   22.0582 C.3     1  UNL1        0.0000
     22 C          -3.0928  -17.5587   22.6077 C.3     1  UNL1        0.0014
@<TRIPOS>BOND
     1    21    22    1
     2    22    20    1
     3    20    19    1
     4    19    13    1
     5    13    14    1
     6    14    15    1
     7    15    16    1
     8    16    17    1
     9    17    18    1
    10    18     1    1
    11     1     2    2
    12     1     3   am
    13     3     5    1
    14     5     6   ar
    15     6     7    1
    16     6     8   ar
    17     8     9   ar
    18     9    10   ar
    19    10    11   ar
    20    11    12    1
    21    18    13    1
    22    11     5   ar
    23     3     4    1
@<TRIPOS>MOLECULE
*****
 22 23 0 0 0
SMALL
GASTEIGER

@<TRIPOS>ATOM
      1 C          -6.9693  -18.9705   21.7308 C.2     1  UNL1        0.2406
      2 O          -7.5919  -20.0471   22.5694 O.2     1  UNL1       -0.2733
      3 N          -7.8091  -17.8367   21.2215 N.am    1  UNL1       -0.2833
      4 H          -7.4005  -17.1301   20.6711 H       1  UNL1        0.1549
      5 C          -9.2714  -17.7796   21.5508 C.ar    1  UNL1        0.0423
      6 C          -9.7443  -16.9800   22.7285 C.ar    1  UNL1       -0.0087
      7 C          -8.7549  -16.2376   23.5770 C.3     1  UNL1        0.0323
      8 C         -11.2066  -16.9229   23.0578 C.ar    1  UNL1       -0.0031
      9 C         -12.1960  -17.6654   22.2094 C.ar    1  UNL1       -0.0006
     10 C         -11.7231  -18.4650   21.0317 C.ar    1  UNL1       -0.0031
     11 C         -10.2608  -18.5221   20.7024 C.ar    1  UNL1       -0.0087
     12 C          -9.7879  -19.3217   19.5246 C.3     1  UNL1        0.0323
     13 N          -4.5147  -18.3088   22.2667 N.3     1  UNL1       -0.2666
     14 C          -3.0525  -18.3659   21.9374 C.3     1  UNL1        0.0725
     15 C          -2.5825  -19.1418   20.7428 C.3     1  UNL1        0.0174
     16 C          -3.5748  -19.8605   19.8775 C.3     1  UNL1        0.0033
     17 C          -5.0370  -19.8034   20.2068 C.3     1  UNL1        0.0254
     18 C          -5.5070  -19.0276   21.4015 C.3     1  UNL1        0.1351
     19 C          -4.9847  -17.5330   23.4614 C.3     1  UNL1        0.0725
     20 C          -4.6238  -16.0841   23.6041 C.3     1  UNL1        0.0173
     21 C          -5.3988  -15.5349   26.0224 C.3     1  UNL1        0.0000
     22 C          -5.3854  -15.2118   24.5576 C.3     1  UNL1        0.0014
@<TRIPOS>BOND
     1    21    22    1
     2    22    20    1
     3    20    19    1
     4    19    13    1
     5    13    14    1
     6    14    15    1
     7    15    16    1
     8    16    17    1
     9    17    18    1
    10    18     1    1
    11     1     2    2
    12     1     3   am
    13     3     5    1
    14     5     6   ar
    15     6     7    1
    16     6     8   ar
    17     8     9   ar
    18     9    10   ar
    19    10    11   ar
    20    11    12    1
    21    18    13    1
    22    11     5   ar
    23     3     4    1
@<TRIPOS>MOLECULE
*****
 22 23 0 0 0
SMALL
GASTEIGER

@<TRIPOS>ATOM
      1 C          -7.9997  -19.0543   22.2679 C.2     1  UNL1        0.2406
      2 O          -7.6303  -20.3684   22.8898 O.2     1  UNL1       -0.2733
      3 N          -6.9296  -18.1549   21.7239 N.am    1  UNL1       -0.2833
      4 H          -7.1721  -17.2924   21.3157 H       1  UNL1        0.1549
      5 C          -5.4902  -18.5694   21.8018 C.ar    1  UNL1        0.0423
      6 C          -4.9726  -19.6543   20.9045 C.ar    1  UNL1       -0.0087
      7 C          -5.8944  -20.3247   19.9294 C.3     1  UNL1        0.0323
      8 C          -3.5330  -20.0689   20.9824 C.ar    1  UNL1       -0.0031
      9 C          -2.6112  -19.3985   21.9575 C.ar    1  UNL1       -0.0006
     10 C          -3.1289  -18.3136   22.8547 C.ar    1  UNL1       -0.0031
     11 C          -4.5683  -17.8991   22.7769 C.ar    1  UNL1       -0.0087
     12 C          -5.0859  -16.8142   23.6741 C.3     1  UNL1        0.0323
     13 N         -10.0396  -17.8056   23.2826 N.3     1  UNL1       -0.2666
     14 C         -11.4790  -17.3910   23.2047 C.3     1  UNL1        0.0725
     15 C         -12.3180  -17.8105   22.0342 C.3     1  UNL1        0.0174
     16 C         -11.7176  -18.6446   20.9417 C.3     1  UNL1        0.0033
     17 C         -10.2782  -19.0592   21.0196 C.3     1  UNL1        0.0254
     18 C          -9.4392  -18.6397   22.1901 C.3     1  UNL1        0.1351
     19 C          -9.2005  -17.3860   24.4531 C.3     1  UNL1        0.0725
     20 C          -8.9646  -15.9296   24.7231 C.3     1  UNL1        0.0173
     21 C          -8.2775  -16.2788   27.2042 C.3     1  UNL1        0.0000
     22 C          -8.1672  -15.5085   25.9218 C.3     1  UNL1        0.0014
@<TRIPOS>BOND
     1    21    22    1
     2    22    20    1
     3    20    19    1
     4    19    13    1
     5    13    14    1
     6    14    15    1
     7    15    16    1
     8    16    17    1
     9    17    18    1
    10    18     1    1
    11     1     2    2
    12     1     3   am
    13     3     5    1
    14     5     6   ar
    15     6     7    1
    16     6     8   ar
    17     8     9   ar
    18     9    10   ar
    19    10    11   ar
    20    11    12    1
    21    18    13    1
    22    11     5   ar
    23     3     4    1
@<TRIPOS>MOLECULE
*****
 22 23 0 0 0
SMALL
GASTEIGER

@<TRIPOS>ATOM
      1 C          -7.8255  -18.2588   22.4301 C.2     1  UNL1        0.2406
      2 O          -8.4716  -18.9445   21.2631 O.2     1  UNL1       -0.2733
      3 N          -8.6741  -17.5998   23.4768 N.am    1  UNL1       -0.2833
      4 H          -8.2500  -17.1497   24.2428 H       1  UNL1        0.1549
      5 C         -10.1690  -17.6266   23.3563 C.ar    1  UNL1        0.0423
      6 C         -10.8603  -16.7088   22.3921 C.ar    1  UNL1       -0.0087
      7 C         -10.0568  -15.7643   21.5483 C.3     1  UNL1        0.0323
      8 C         -12.3553  -16.7356   22.2717 C.ar    1  UNL1       -0.0031
      9 C         -13.1589  -17.6801   23.1155 C.ar    1  UNL1       -0.0006
     10 C         -12.4676  -18.5979   24.0798 C.ar    1  UNL1       -0.0031
     11 C         -10.9727  -18.5711   24.2002 C.ar    1  UNL1       -0.0087
     12 C         -10.2814  -19.4889   25.1645 C.3     1  UNL1        0.0323
     13 N          -5.6458  -17.0275   23.1253 N.3     1  UNL1       -0.2666
     14 C          -4.1510  -17.0007   23.2458 C.3     1  UNL1        0.0725
     15 C          -3.3407  -18.1785   22.7915 C.3     1  UNL1        0.0174
     16 C          -4.0254  -19.3830   22.2168 C.3     1  UNL1        0.0033
     17 C          -5.5202  -19.4097   22.0964 C.3     1  UNL1        0.0254
     18 C          -6.3305  -18.2320   22.5506 C.3     1  UNL1        0.1351
     19 C          -6.4561  -15.8497   23.5796 C.3     1  UNL1        0.0725
     20 C          -6.3564  -15.3731   24.9983 C.3     1  UNL1        0.0173
     21 C          -7.3427  -15.5221   27.3973 C.3     1  UNL1        0.0000
     22 C          -7.5417  -15.4815   25.9111 C.3     1  UNL1        0.0014
@<TRIPOS>BOND
     1    21    22    1
     2    22    20    1
     3    20    19    1
     4    19    13    1
     5    13    14    1
     6    14    15    1
     7    15    16    1
     8    16    17    1
     9    17    18    1
    10    18     1    1
    11     1     2    2
    12     1     3   am
    13     3     5    1
    14     5     6   ar
    15     6     7    1
    16     6     8   ar
    17     8     9   ar
    18     9    10   ar
    19    10    11   ar
    20    11    12    1
    21    18    13    1
    22    11     5   ar
    23     3     4    1
@<TRIPOS>MOLECULE
*****
 22 23 0 0 0
SMALL
GASTEIGER

@<TRIPOS>ATOM
      1 C          -8.2450  -18.1004   22.6564 C.2     1  UNL1        0.2406
      2 O          -8.5629  -18.8424   23.9205 O.2     1  UNL1       -0.2733
      3 N          -7.4832  -16.8096   22.7157 N.am    1  UNL1       -0.2833
      4 H          -7.2745  -16.3226   21.8860 H       1  UNL1        0.1549
      5 C          -7.0394  -16.2608   24.0393 C.ar    1  UNL1        0.0423
      6 C          -8.0492  -15.6942   24.9929 C.ar    1  UNL1       -0.0087
      7 C          -9.5027  -15.6763   24.6229 C.3     1  UNL1        0.0323
      8 C          -7.6054  -15.1454   26.3165 C.ar    1  UNL1       -0.0031
      9 C          -6.1519  -15.1632   26.6865 C.ar    1  UNL1       -0.0006
     10 C          -5.1421  -15.7298   25.7329 C.ar    1  UNL1       -0.0031
     11 C          -5.5859  -16.2786   24.4093 C.ar    1  UNL1       -0.0087
     12 C          -4.5761  -16.8452   23.4557 C.3     1  UNL1        0.0323
     13 N         -10.0823  -18.3896   20.8423 N.3     1  UNL1       -0.2666
     14 C         -10.5260  -18.9383   19.5187 C.3     1  UNL1        0.0725
     15 C          -9.5761  -19.7467   18.6855 C.3     1  UNL1        0.0174
     16 C          -8.1825  -20.0064   19.1759 C.3     1  UNL1        0.0033
     17 C          -7.7388  -19.4576   20.4995 C.3     1  UNL1        0.0254
     18 C          -8.6887  -18.6492   21.3327 C.3     1  UNL1        0.1351
     19 C         -11.0321  -17.5812   21.6755 C.3     1  UNL1        0.0725
     20 C         -11.9691  -18.2682   22.6242 C.3     1  UNL1        0.0173
     21 C         -13.9824  -18.1624   24.2629 C.3     1  UNL1        0.0000
     22 C         -13.1145  -17.5106   23.2275 C.3     1  UNL1        0.0014
@<TRIPOS>BOND
     1    21    22    1
     2    22    20    1
     3    20    19    1
     4    19    13    1
     5    13    14    1
     6    14    15    1
     7    15    16    1
     8    16    17    1
     9    17    18    1
    10    18     1    1
    11     1     2    2
    12     1     3   am
    13     3     5    1
    14     5     6   ar
    15     6     7    1
    16     6     8   ar
    17     8     9   ar
    18     9    10   ar
    19    10    11   ar
    20    11    12    1
    21    18    13    1
    22    11     5   ar
    23     3     4    1
@<TRIPOS>MOLECULE
*****
 22 23 0 0 0
SMALL
GASTEIGER

@<TRIPOS>ATOM
      1 C          -7.7420  -17.9463   22.3787 C.2     1  UNL1        0.2406
      2 O          -8.3078  -18.3430   21.0474 O.2     1  UNL1       -0.2733
      3 N          -8.6603  -17.5399   23.4929 N.am    1  UNL1       -0.2833
      4 H          -8.2889  -17.2795   24.3667 H       1  UNL1        0.1549
      5 C         -10.1444  -17.5301   23.2759 C.ar    1  UNL1        0.0423
      6 C         -11.0110  -18.5364   23.9732 C.ar    1  UNL1       -0.0087
      7 C         -10.3935  -19.5525   24.8875 C.3     1  UNL1        0.0323
      8 C         -12.4953  -18.5266   23.7561 C.ar    1  UNL1       -0.0031
      9 C         -13.1128  -17.5105   22.8417 C.ar    1  UNL1       -0.0006
     10 C         -12.2462  -16.5041   22.1444 C.ar    1  UNL1       -0.0031
     11 C         -10.7620  -16.5139   22.3614 C.ar    1  UNL1       -0.0087
     12 C          -9.8954  -15.5076   21.6641 C.3     1  UNL1        0.0323
     13 N          -5.5665  -16.7271   23.1073 N.3     1  UNL1       -0.2666
     14 C          -4.0824  -16.7369   23.3244 C.3     1  UNL1        0.0725
     15 C          -3.2895  -17.9757   23.0300 C.3     1  UNL1        0.0174
     16 C          -3.9807  -19.2047   22.5185 C.3     1  UNL1        0.0033
     17 C          -5.4649  -19.1949   22.3014 C.3     1  UNL1        0.0254
     18 C          -6.2578  -17.9561   22.5958 C.3     1  UNL1        0.1351
     19 C          -6.3594  -15.4883   23.4017 C.3     1  UNL1        0.0725
     20 C          -6.8857  -15.2458   24.7852 C.3     1  UNL1        0.0173
     21 C          -6.6081  -15.7346   27.3217 C.3     1  UNL1        0.0000
     22 C          -6.0012  -15.4743   25.9749 C.3     1  UNL1        0.0014
@<TRIPOS>BOND
     1    21    22    1
     2    22    20    1
     3    20    19    1
     4    19    13    1
     5    13    14    1
     6    14    15    1
     7    15    16    1
     8    16    17    1
     9    17    18    1
    10    18     1    1
    11     1     2    2
    12     1     3   am
    13     3     5    1
    14     5     6   ar
    15     6     7    1
    16     6     8   ar
    17     8     9   ar
    18     9    10   ar
    19    10    11   ar
    20    11    12    1
    21    18    13    1
    22    11     5   ar
    23     3     4    1
@<TRIPOS>MOLECULE
*****
 22 23 0 0 0
SMALL
GASTEIGER

@<TRIPOS>ATOM
      1 C          -7.6650  -16.9527   22.6944 C.2     1  UNL1        0.2406
      2 O          -7.7835  -16.0553   21.4984 O.2     1  UNL1       -0.2733
      3 N          -7.9306  -18.4227   22.5584 N.am    1  UNL1       -0.2833
      4 H          -7.8528  -19.0117   23.3435 H       1  UNL1        0.1549
      5 C          -8.3147  -18.9954   21.2263 C.ar    1  UNL1        0.0423
      6 C          -7.3065  -19.7579   20.4189 C.ar    1  UNL1       -0.0087
      7 C          -5.9141  -19.9478   20.9435 C.3     1  UNL1        0.0323
      8 C          -7.6907  -20.3306   19.0867 C.ar    1  UNL1       -0.0031
      9 C          -9.0830  -20.1406   18.5621 C.ar    1  UNL1       -0.0006
     10 C         -10.0912  -19.3781   19.3696 C.ar    1  UNL1       -0.0031
     11 C          -9.7071  -18.8054   20.7017 C.ar    1  UNL1       -0.0087
     12 C         -10.7153  -18.0429   21.5091 C.3     1  UNL1        0.0323
     13 N          -8.2449  -16.4386   25.1743 N.3     1  UNL1       -0.2666
     14 C          -7.8607  -15.8660   26.5063 C.3     1  UNL1        0.0725
     15 C          -6.5125  -15.2349   26.6908 C.3     1  UNL1        0.0174
     16 C          -5.5484  -15.1764   25.5431 C.3     1  UNL1        0.0033
     17 C          -5.9326  -15.7490   24.2111 C.3     1  UNL1        0.0254
     18 C          -7.2808  -16.3801   24.0266 C.3     1  UNL1        0.1351
     19 C          -9.5931  -17.0696   24.9898 C.3     1  UNL1        0.0725
     20 C          -9.8240  -18.4863   25.4252 C.3     1  UNL1        0.0173
     21 C         -12.2457  -18.6860   24.5058 C.3     1  UNL1        0.0000
     22 C         -10.9061  -19.3019   24.7818 C.3     1  UNL1        0.0014
@<TRIPOS>BOND
     1    21    22    1
     2    22    20    1
     3    20    19    1
     4    19    13    1
     5    13    14    1
     6    14    15    1
     7    15    16    1
     8    16    17    1
     9    17    18    1
    10    18     1    1
    11     1     2    2
    12     1     3   am
    13     3     5    1
    14     5     6   ar
    15     6     7    1
    16     6     8   ar
    17     8     9   ar
    18     9    10   ar
    19    10    11   ar
    20    11    12    1
    21    18    13    1
    22    11     5   ar
    23     3     4    1
@<TRIPOS>MOLECULE
*****
 22 23 0 0 0
SMALL
GASTEIGER

@<TRIPOS>ATOM
      1 C          -8.2283  -18.1268   22.5748 C.2     1  UNL1        0.2406
      2 O          -8.5071  -18.8947   23.8328 O.2     1  UNL1       -0.2733
      3 N          -7.4936  -16.8207   22.6406 N.am    1  UNL1       -0.2833
      4 H          -7.3106  -16.3168   21.8148 H       1  UNL1        0.1549
      5 C          -7.0378  -16.2824   23.9643 C.ar    1  UNL1        0.0423
      6 C          -5.5803  -16.2974   24.3184 C.ar    1  UNL1       -0.0087
      7 C          -4.5785  -16.8507   23.3487 C.3     1  UNL1        0.0323
      8 C          -5.1245  -15.7591   25.6423 C.ar    1  UNL1       -0.0031
      9 C          -6.1262  -15.2058   26.6120 C.ar    1  UNL1       -0.0006
     10 C          -7.5838  -15.1908   26.2579 C.ar    1  UNL1       -0.0031
     11 C          -8.0396  -15.7291   24.9341 C.ar    1  UNL1       -0.0087
     12 C          -9.4971  -15.7141   24.5800 C.3     1  UNL1        0.0323
     13 N          -7.6842  -19.2329   20.2877 N.3     1  UNL1       -0.2666
     14 C          -8.1400  -19.7711   18.9639 C.3     1  UNL1        0.0725
     15 C          -9.5958  -19.7416   18.6033 C.3     1  UNL1        0.0174
     16 C         -10.5956  -19.1739   19.5666 C.3     1  UNL1        0.0033
     17 C         -10.1398  -18.6357   20.8904 C.3     1  UNL1        0.0254
     18 C          -8.6841  -18.6651   21.2509 C.3     1  UNL1        0.1351
     19 C          -6.2285  -19.2624   20.6483 C.3     1  UNL1        0.0725
     20 C          -5.4137  -20.4924   20.3781 C.3     1  UNL1        0.0173
     21 C          -3.3807  -19.1471   19.4796 C.3     1  UNL1        0.0000
     22 C          -3.9382  -20.3761   20.1345 C.3     1  UNL1        0.0014
@<TRIPOS>BOND
     1    21    22    1
     2    22    20    1
     3    20    19    1
     4    19    13    1
     5    13    14    1
     6    14    15    1
     7    15    16    1
     8    16    17    1
     9    17    18    1
    10    18     1    1
    11     1     2    2
    12     1     3   am
    13     3     5    1
    14     5     6   ar
    15     6     7    1
    16     6     8   ar
    17     8     9   ar
    18     9    10   ar
    19    10    11   ar
    20    11    12    1
    21    18    13    1
    22    11     5   ar
    23     3     4    1
