@<TRIPOS>MOLECULE
*****
 31 33 0 0 0
SMALL
GASTEIGER

@<TRIPOS>ATOM
      1 C           6.1618   -2.4487   19.3386 C.ar    1  UNL1        0.0942
      2 C           7.5619   -2.0066   19.6458 C.ar    1  UNL1        0.1078
      3 N           8.4757   -2.9010   20.4300 N.ar    1  UNL1       -0.2119
      4 C           7.9894   -4.2375   20.9070 C.ar    1  UNL1        0.2206
      5 N           6.5893   -4.6795   20.5998 N.ar    1  UNL1       -0.2094
      6 C           5.6755   -3.7851   19.8155 C.ar    1  UNL1        0.1613
      7 O           5.0262   -1.8050   17.0922 O.2     1  UNL1       -0.2700
      8 C           5.2480   -1.5543   18.5544 C.2     1  UNL1        0.2490
      9 N           4.5559   -0.4091   19.2324 N.am    1  UNL1       -0.2968
     10 H           4.7014   -0.2445   20.1921 H       1  UNL1        0.1501
     11 C           3.6421    0.4853   18.4482 C.3     1  UNL1        0.1166
     12 C           2.3699    0.9851   19.0661 C.ar    1  UNL1       -0.0024
     13 C           1.4694    0.0364   19.8002 C.ar    1  UNL1       -0.0003
     14 C           0.1972    0.5362   20.4181 C.ar    1  UNL1        0.0294
     15 C          -0.1744    1.9848   20.3019 C.ar    1  UNL1        0.1401
     16 F          -1.4466    2.4846   20.9198 F       1  UNL1       -0.2042
     17 C           0.7261    2.9336   19.5678 C.ar    1  UNL1        0.0294
     18 C           1.9982    2.4337   18.9499 C.ar    1  UNL1       -0.0003
     19 C           4.2754   -4.2271   19.5083 C.3     1  UNL1        0.4351
     20 F           2.8753   -4.6691   19.2011 F       1  UNL1       -0.1644
     21 F           4.7724   -4.9594   18.2972 F       1  UNL1       -0.1644
     22 F           3.7785   -3.4948   20.7194 F       1  UNL1       -0.1644
     23 N           8.9032   -5.1319   21.6912 N.pl3   1  UNL1       -0.2825
     24 H           9.7858   -5.3740   21.3282 H       1  UNL1        0.1551
     25 C           8.4724   -5.6575   23.0284 C.ar    1  UNL1        0.0513
     26 C           8.7174   -7.0940   23.3840 C.ar    1  UNL1        0.0147
     27 C           8.2866   -7.6196   24.7212 C.ar    1  UNL1        0.0021
     28 C           7.6107   -6.7087   25.7028 C.ar    1  UNL1        0.0115
     29 C           7.3657   -5.2723   25.3471 C.ar    1  UNL1        0.0589
     30 CL          6.6897   -4.3614   26.3287 Cl      1  UNL1       -0.0822
     31 C           7.7965   -4.7467   24.0099 C.ar    1  UNL1        0.0261
@<TRIPOS>BOND
     1     7     8    2
     2     8     9   am
     3     9    11    1
     4    11    12    1
     5    12    13   ar
     6    13    14   ar
     7    14    15   ar
     8    15    16    1
     9    15    17   ar
    10    17    18   ar
    11     8     1    1
    12     1     2   ar
    13     2     3   ar
    14     3     4   ar
    15     4    23    1
    16    23    25    1
    17    25    26   ar
    18    26    27   ar
    19    27    28   ar
    20    28    29   ar
    21    29    30    1
    22    29    31   ar
    23     4     5   ar
    24     5     6   ar
    25     6    19    1
    26    19    20    1
    27    19    21    1
    28    19    22    1
    29    18    12   ar
    30     6     1   ar
    31    31    25   ar
    32     9    10    1
    33    23    24    1
@<TRIPOS>MOLECULE
*****
 31 33 0 0 0
SMALL
GASTEIGER

@<TRIPOS>ATOM
      1 C           6.9764   -2.4292   19.5207 C.ar    1  UNL1        0.0942
      2 C           8.3987   -2.3686   19.9932 C.ar    1  UNL1        0.1078
      3 N           8.9258   -3.4214   20.9225 N.ar    1  UNL1       -0.2119
      4 C           8.0305   -4.5349   21.3794 C.ar    1  UNL1        0.2206
      5 N           6.6081   -4.5955   20.9069 N.ar    1  UNL1       -0.2094
      6 C           6.0811   -3.5426   19.9775 C.ar    1  UNL1        0.1613
      7 O           6.5721   -1.5564   17.1072 O.2     1  UNL1       -0.2700
      8 C           6.4493   -1.3764   18.5913 C.2     1  UNL1        0.2490
      9 N           5.7995   -0.1434   19.1460 N.am    1  UNL1       -0.2968
     10 H           5.7189   -0.0253   20.1201 H       1  UNL1        0.1501
     11 C           5.2724    0.9094   18.2167 C.3     1  UNL1        0.1166
     12 C           3.8408    1.3467   18.3135 C.ar    1  UNL1       -0.0024
     13 C           2.7417    0.3263   18.2898 C.ar    1  UNL1       -0.0003
     14 C           1.3101    0.7637   18.3866 C.ar    1  UNL1        0.0294
     15 C           0.9778    2.2214   18.5070 C.ar    1  UNL1        0.1401
     16 F          -0.4538    2.6588   18.6038 F       1  UNL1       -0.2042
     17 C           2.0769    3.2418   18.5307 C.ar    1  UNL1        0.0294
     18 C           3.5085    2.8045   18.4339 C.ar    1  UNL1       -0.0003
     19 C           4.6587   -3.6032   19.5050 C.3     1  UNL1        0.4351
     20 F           3.2364   -3.6637   19.0325 F       1  UNL1       -0.1644
     21 F           4.2344   -2.7658   20.6750 F       1  UNL1       -0.1644
     22 F           5.0831   -4.4405   18.3351 F       1  UNL1       -0.1644
     23 N           8.5575   -5.5877   22.3088 N.pl3   1  UNL1       -0.2825
     24 H           9.2624   -6.2043   22.0051 H       1  UNL1        0.1551
     25 C           8.0106   -5.7012   23.7009 C.ar    1  UNL1        0.0513
     26 C           7.3350   -4.5241   24.3396 C.ar    1  UNL1        0.0147
     27 C           6.7881   -4.6375   25.7317 C.ar    1  UNL1        0.0021
     28 C           6.9168   -5.9281   26.4852 C.ar    1  UNL1        0.0115
     29 C           7.5925   -7.1052   25.8466 C.ar    1  UNL1        0.0589
     30 CL          7.7213   -8.3959   26.6001 Cl      1  UNL1       -0.0822
     31 C           8.1394   -6.9917   24.4544 C.ar    1  UNL1        0.0261
@<TRIPOS>BOND
     1     7     8    2
     2     8     9   am
     3     9    11    1
     4    11    12    1
     5    12    13   ar
     6    13    14   ar
     7    14    15   ar
     8    15    16    1
     9    15    17   ar
    10    17    18   ar
    11     8     1    1
    12     1     2   ar
    13     2     3   ar
    14     3     4   ar
    15     4    23    1
    16    23    25    1
    17    25    26   ar
    18    26    27   ar
    19    27    28   ar
    20    28    29   ar
    21    29    30    1
    22    29    31   ar
    23     4     5   ar
    24     5     6   ar
    25     6    19    1
    26    19    20    1
    27    19    21    1
    28    19    22    1
    29    18    12   ar
    30     6     1   ar
    31    31    25   ar
    32     9    10    1
    33    23    24    1
@<TRIPOS>MOLECULE
*****
 31 33 0 0 0
SMALL
GASTEIGER

@<TRIPOS>ATOM
      1 C          -8.8399  -19.4943   20.9005 C.ar    1  UNL1        0.0942
      2 C          -8.3039  -19.6957   19.5141 C.ar    1  UNL1        0.1078
      3 N          -6.8478  -19.9916   19.3086 N.ar    1  UNL1       -0.2119
      4 C          -5.9277  -20.0862   20.4895 C.ar    1  UNL1        0.2206
      5 N          -6.4637  -19.8849   21.8759 N.ar    1  UNL1       -0.2094
      6 C          -7.9198  -19.5889   22.0814 C.ar    1  UNL1        0.1613
      7 O         -11.2893  -20.3211   21.1584 O.2     1  UNL1       -0.2700
      8 C         -10.2959  -19.1984   21.1061 C.2     1  UNL1        0.2490
      9 N         -10.7586  -17.7798   21.2593 N.am    1  UNL1       -0.2968
     10 H         -10.1066  -17.0429   21.2249 H       1  UNL1        0.1501
     11 C         -12.2147  -17.4838   21.4648 C.3     1  UNL1        0.1166
     12 C         -12.8772  -17.8429   22.7618 C.ar    1  UNL1       -0.0024
     13 C         -14.3738  -17.8514   22.8624 C.ar    1  UNL1       -0.0003
     14 C         -15.0363  -18.2104   24.1593 C.ar    1  UNL1        0.0294
     15 C         -14.2022  -18.5611   25.3557 C.ar    1  UNL1        0.1401
     16 F         -14.8648  -18.9201   26.6527 F       1  UNL1       -0.2042
     17 C         -12.7056  -18.5526   25.2552 C.ar    1  UNL1        0.0294
     18 C         -12.0431  -18.1935   23.9582 C.ar    1  UNL1       -0.0003
     19 C          -8.4559  -19.3876   23.4678 C.3     1  UNL1        0.4351
     20 F          -8.9919  -19.1862   24.8543 F       1  UNL1       -0.1644
     21 F          -8.7062  -20.8619   23.5852 F       1  UNL1       -0.1644
     22 F          -8.2056  -17.9133   23.3505 F       1  UNL1       -0.1644
     23 N          -4.4716  -20.3822   20.2840 N.pl3   1  UNL1       -0.2825
     24 H          -4.1598  -21.3151   20.2437 H       1  UNL1        0.1551
     25 C          -3.4906  -19.2567   20.1398 C.ar    1  UNL1        0.0513
     26 C          -2.6997  -19.1087   18.8739 C.ar    1  UNL1        0.0147
     27 C          -1.7186  -17.9832   18.7297 C.ar    1  UNL1        0.0021
     28 C          -1.5285  -17.0056   19.8514 C.ar    1  UNL1        0.0115
     29 C          -2.3194  -17.1536   21.1173 C.ar    1  UNL1        0.0589
     30 CL         -2.1293  -16.1761   22.2391 Cl      1  UNL1       -0.0822
     31 C          -3.3005  -18.2791   21.2615 C.ar    1  UNL1        0.0261
@<TRIPOS>BOND
     1     7     8    2
     2     8     9   am
     3     9    11    1
     4    11    12    1
     5    12    13   ar
     6    13    14   ar
     7    14    15   ar
     8    15    16    1
     9    15    17   ar
    10    17    18   ar
    11     8     1    1
    12     1     2   ar
    13     2     3   ar
    14     3     4   ar
    15     4    23    1
    16    23    25    1
    17    25    26   ar
    18    26    27   ar
    19    27    28   ar
    20    28    29   ar
    21    29    30    1
    22    29    31   ar
    23     4     5   ar
    24     5     6   ar
    25     6    19    1
    26    19    20    1
    27    19    21    1
    28    19    22    1
    29    18    12   ar
    30     6     1   ar
    31    31    25   ar
    32     9    10    1
    33    23    24    1
@<TRIPOS>MOLECULE
*****
 31 33 0 0 0
SMALL
GASTEIGER

@<TRIPOS>ATOM
      1 C           7.2267   -3.3563   20.8967 C.ar    1  UNL1        0.0942
      2 C           8.5669   -3.8849   20.4793 C.ar    1  UNL1        0.1078
      3 N           9.2491   -4.9352   21.3047 N.ar    1  UNL1       -0.2119
      4 C           8.5910   -5.4569   22.5477 C.ar    1  UNL1        0.2206
      5 N           7.2507   -4.9283   22.9651 N.ar    1  UNL1       -0.2094
      6 C           6.5686   -3.8779   22.1395 C.ar    1  UNL1        0.1613
      7 O           6.8503   -0.8556   20.3011 O.2     1  UNL1       -0.2700
      8 C           6.5445   -2.3060   20.0712 C.2     1  UNL1        0.2490
      9 N           5.5565   -2.7060   19.0157 N.am    1  UNL1       -0.2968
     10 H           5.3559   -3.6580   18.8648 H       1  UNL1        0.1501
     11 C           4.8744   -1.6557   18.1902 C.3     1  UNL1        0.1166
     12 C           3.5968   -1.0351   18.6728 C.ar    1  UNL1       -0.0024
     13 C           2.9645    0.0808   17.8950 C.ar    1  UNL1       -0.0003
     14 C           1.6871    0.7014   18.3776 C.ar    1  UNL1        0.0294
     15 C           1.0418    0.2060   19.6379 C.ar    1  UNL1        0.1401
     16 F          -0.2357    0.8266   20.1204 F       1  UNL1       -0.2042
     17 C           1.6741   -0.9099   20.4156 C.ar    1  UNL1        0.0294
     18 C           2.9516   -1.5305   19.9331 C.ar    1  UNL1       -0.0003
     19 C           5.2283   -3.3493   22.5569 C.3     1  UNL1        0.4351
     20 F           3.8881   -2.8206   22.9743 F       1  UNL1       -0.1644
     21 F           5.9013   -2.3370   23.4358 F       1  UNL1       -0.1644
     22 F           4.5553   -4.3615   21.6780 F       1  UNL1       -0.1644
     23 N           9.2732   -6.5073   23.3731 N.pl3   1  UNL1       -0.2825
     24 H           9.9586   -7.0850   22.9661 H       1  UNL1        0.1551
     25 C           8.9111   -6.6774   24.8188 C.ar    1  UNL1        0.0513
     26 C           8.0895   -7.8550   25.2527 C.ar    1  UNL1        0.0147
     27 C           7.7274   -8.0251   26.6983 C.ar    1  UNL1        0.0021
     28 C           8.1869   -7.0176   27.7101 C.ar    1  UNL1        0.0115
     29 C           9.0084   -5.8400   27.2763 C.ar    1  UNL1        0.0589
     30 CL          9.4679   -4.8324   28.2881 Cl      1  UNL1       -0.0822
     31 C           9.3705   -5.6699   25.8306 C.ar    1  UNL1        0.0261
@<TRIPOS>BOND
     1     7     8    2
     2     8     9   am
     3     9    11    1
     4    11    12    1
     5    12    13   ar
     6    13    14   ar
     7    14    15   ar
     8    15    16    1
     9    15    17   ar
    10    17    18   ar
    11     8     1    1
    12     1     2   ar
    13     2     3   ar
    14     3     4   ar
    15     4    23    1
    16    23    25    1
    17    25    26   ar
    18    26    27   ar
    19    27    28   ar
    20    28    29   ar
    21    29    30    1
    22    29    31   ar
    23     4     5   ar
    24     5     6   ar
    25     6    19    1
    26    19    20    1
    27    19    21    1
    28    19    22    1
    29    18    12   ar
    30     6     1   ar
    31    31    25   ar
    32     9    10    1
    33    23    24    1
@<TRIPOS>MOLECULE
*****
 31 33 0 0 0
SMALL
GASTEIGER

@<TRIPOS>ATOM
      1 C          -8.0372  -19.4553   21.1983 C.ar    1  UNL1        0.0942
      2 C          -7.1341  -19.1481   22.3559 C.ar    1  UNL1        0.1078
      3 N          -5.6703  -19.4636   22.2695 N.ar    1  UNL1       -0.2119
      4 C          -5.1094  -20.0864   21.0254 C.ar    1  UNL1        0.2206
      5 N          -6.0125  -20.3936   19.8678 N.ar    1  UNL1       -0.2094
      6 C          -7.4764  -20.0780   19.9542 C.ar    1  UNL1        0.1613
      7 O         -10.5102  -20.2493   21.2605 O.2     1  UNL1       -0.2700
      8 C          -9.5010  -19.1397   21.2847 C.2     1  UNL1        0.2490
      9 N          -9.9559  -17.7146   21.3952 N.am    1  UNL1       -0.2968
     10 H          -9.2936  -16.9863   21.4110 H       1  UNL1        0.1501
     11 C         -11.4197  -17.3990   21.4816 C.3     1  UNL1        0.1166
     12 C         -12.1963  -17.7726   22.7094 C.ar    1  UNL1       -0.0024
     13 C         -11.4805  -18.2955   23.9194 C.ar    1  UNL1       -0.0003
     14 C         -12.2571  -18.6690   25.1471 C.ar    1  UNL1        0.0294
     15 C         -13.7495  -18.5195   25.1649 C.ar    1  UNL1        0.1401
     16 F         -14.5261  -18.8930   26.3927 F       1  UNL1       -0.2042
     17 C         -14.4653  -17.9966   23.9549 C.ar    1  UNL1        0.0294
     18 C         -13.6887  -17.6231   22.7272 C.ar    1  UNL1       -0.0003
     19 C          -8.3795  -20.3852   18.7966 C.3     1  UNL1        0.4351
     20 F          -9.2825  -20.6925   17.6390 F       1  UNL1       -0.1644
     21 F          -8.7827  -18.9421   18.7282 F       1  UNL1       -0.1644
     22 F          -7.9762  -21.8284   18.8650 F       1  UNL1       -0.1644
     23 N          -3.6455  -20.4019   20.9390 N.pl3   1  UNL1       -0.2825
     24 H          -3.3216  -21.3025   21.1700 H       1  UNL1        0.1551
     25 C          -2.6752  -19.3454   20.5008 C.ar    1  UNL1        0.0513
     26 C          -1.7101  -18.7578   21.4873 C.ar    1  UNL1        0.0147
     27 C          -0.7397  -17.7012   21.0491 C.ar    1  UNL1        0.0021
     28 C          -0.7344  -17.2323   19.6243 C.ar    1  UNL1        0.0115
     29 C          -1.6994  -17.8200   18.6378 C.ar    1  UNL1        0.0589
     30 CL         -1.6941  -17.3510   17.2129 Cl      1  UNL1       -0.0822
     31 C          -2.6698  -18.8765   19.0760 C.ar    1  UNL1        0.0261
@<TRIPOS>BOND
     1     7     8    2
     2     8     9   am
     3     9    11    1
     4    11    12    1
     5    12    13   ar
     6    13    14   ar
     7    14    15   ar
     8    15    16    1
     9    15    17   ar
    10    17    18   ar
    11     8     1    1
    12     1     2   ar
    13     2     3   ar
    14     3     4   ar
    15     4    23    1
    16    23    25    1
    17    25    26   ar
    18    26    27   ar
    19    27    28   ar
    20    28    29   ar
    21    29    30    1
    22    29    31   ar
    23     4     5   ar
    24     5     6   ar
    25     6    19    1
    26    19    20    1
    27    19    21    1
    28    19    22    1
    29    18    12   ar
    30     6     1   ar
    31    31    25   ar
    32     9    10    1
    33    23    24    1
@<TRIPOS>MOLECULE
*****
 31 33 0 0 0
SMALL
GASTEIGER

@<TRIPOS>ATOM
      1 C          -7.8196  -17.8398   22.4095 C.ar    1  UNL1        0.0942
      2 C          -7.3662  -19.1330   21.7997 C.ar    1  UNL1        0.1078
      3 N          -5.9069  -19.4794   21.7745 N.ar    1  UNL1       -0.2119
      4 C          -4.9011  -18.5324   22.3590 C.ar    1  UNL1        0.2206
      5 N          -5.3545  -17.2392   22.9688 N.ar    1  UNL1       -0.2094
      6 C          -6.8138  -16.8929   22.9941 C.ar    1  UNL1        0.1613
      7 O          -9.7594  -16.3293   23.2495 O.2     1  UNL1       -0.2700
      8 C          -9.2788  -17.4934   22.4348 C.2     1  UNL1        0.2490
      9 N         -10.2576  -18.3113   21.6452 N.am    1  UNL1       -0.2968
     10 H          -9.9422  -19.0753   21.1105 H       1  UNL1        0.1501
     11 C         -11.7168  -17.9649   21.6705 C.3     1  UNL1        0.1166
     12 C         -12.5150  -18.1708   22.9238 C.ar    1  UNL1       -0.0024
     13 C         -11.8343  -18.6279   24.1798 C.ar    1  UNL1       -0.0003
     14 C         -12.6325  -18.8338   25.4330 C.ar    1  UNL1        0.0294
     15 C         -14.1113  -18.5826   25.4301 C.ar    1  UNL1        0.1401
     16 F         -14.9094  -18.7885   26.6834 F       1  UNL1       -0.2042
     17 C         -14.7919  -18.1256   24.1741 C.ar    1  UNL1        0.0294
     18 C         -13.9938  -17.9197   22.9209 C.ar    1  UNL1       -0.0003
     19 C          -7.2673  -15.5996   23.6039 C.3     1  UNL1        0.4351
     20 F          -7.7208  -14.3063   24.2137 F       1  UNL1       -0.1644
     21 F          -7.2213  -16.2258   24.9661 F       1  UNL1       -0.1644
     22 F          -7.3133  -14.9734   22.2416 F       1  UNL1       -0.1644
     23 N          -3.4419  -18.8788   22.3338 N.pl3   1  UNL1       -0.2825
     24 H          -3.0309  -19.3353   23.1031 H       1  UNL1        0.1551
     25 C          -2.6087  -18.5295   21.1363 C.ar    1  UNL1        0.0513
     26 C          -3.2102  -18.5817   19.7632 C.ar    1  UNL1        0.0147
     27 C          -2.3770  -18.2324   18.5657 C.ar    1  UNL1        0.0021
     28 C          -0.9425  -17.8311   18.7414 C.ar    1  UNL1        0.0115
     29 C          -0.3411  -17.7789   20.1145 C.ar    1  UNL1        0.0589
     30 CL          1.0936  -17.3775   20.2902 Cl      1  UNL1       -0.0822
     31 C          -1.1742  -18.1282   21.3120 C.ar    1  UNL1        0.0261
@<TRIPOS>BOND
     1     7     8    2
     2     8     9   am
     3     9    11    1
     4    11    12    1
     5    12    13   ar
     6    13    14   ar
     7    14    15   ar
     8    15    16    1
     9    15    17   ar
    10    17    18   ar
    11     8     1    1
    12     1     2   ar
    13     2     3   ar
    14     3     4   ar
    15     4    23    1
    16    23    25    1
    17    25    26   ar
    18    26    27   ar
    19    27    28   ar
    20    28    29   ar
    21    29    30    1
    22    29    31   ar
    23     4     5   ar
    24     5     6   ar
    25     6    19    1
    26    19    20    1
    27    19    21    1
    28    19    22    1
    29    18    12   ar
    30     6     1   ar
    31    31    25   ar
    32     9    10    1
    33    23    24    1
@<TRIPOS>MOLECULE
*****
 31 33 0 0 0
SMALL
GASTEIGER

@<TRIPOS>ATOM
      1 C          -8.2991  -19.4862   21.0511 C.ar    1  UNL1        0.0942
      2 C          -7.8065  -20.3365   19.9178 C.ar    1  UNL1        0.1078
      3 N          -6.3476  -20.6670   19.8072 N.ar    1  UNL1       -0.2119
      4 C          -5.3812  -20.1472   20.8300 C.ar    1  UNL1        0.2206
      5 N          -5.8738  -19.2969   21.9633 N.ar    1  UNL1       -0.2094
      6 C          -7.3328  -18.9664   22.0738 C.ar    1  UNL1        0.1613
      7 O         -10.7830  -20.2476   21.0756 O.2     1  UNL1       -0.2700
      8 C          -9.7580  -19.1558   21.1617 C.2     1  UNL1        0.2490
      9 N         -10.1921  -17.7334   21.3585 N.am    1  UNL1       -0.2968
     10 H          -9.5194  -17.0168   21.4151 H       1  UNL1        0.1501
     11 C         -11.6510  -17.4030   21.4691 C.3     1  UNL1        0.1166
     12 C         -12.4139  -17.7801   22.7044 C.ar    1  UNL1       -0.0024
     13 C         -13.9101  -17.6753   22.7231 C.ar    1  UNL1       -0.0003
     14 C         -14.6729  -18.0523   23.9584 C.ar    1  UNL1        0.0294
     15 C         -13.9396  -18.5342   25.1749 C.ar    1  UNL1        0.1401
     16 F         -14.7025  -18.9113   26.4102 F       1  UNL1       -0.2042
     17 C         -12.4434  -18.6390   25.1562 C.ar    1  UNL1        0.0294
     18 C         -11.6806  -18.2620   23.9209 C.ar    1  UNL1       -0.0003
     19 C          -7.8254  -18.1162   23.2071 C.3     1  UNL1        0.4351
     20 F          -8.3180  -17.2659   24.3405 F       1  UNL1       -0.1644
     21 F          -7.1675  -16.9162   22.5929 F       1  UNL1       -0.1644
     22 F          -8.4833  -19.3161   23.8214 F       1  UNL1       -0.1644
     23 N          -3.9222  -20.4776   20.7194 N.pl3   1  UNL1       -0.2825
     24 H          -3.6179  -21.4067   20.8347 H       1  UNL1        0.1551
     25 C          -2.9270  -19.3924   20.4330 C.ar    1  UNL1        0.0513
     26 C          -2.1544  -18.7678   21.5568 C.ar    1  UNL1        0.0147
     27 C          -1.1592  -17.6826   21.2705 C.ar    1  UNL1        0.0021
     28 C          -0.9366  -17.2221   19.8604 C.ar    1  UNL1        0.0115
     29 C          -1.7092  -17.8468   18.7367 C.ar    1  UNL1        0.0589
     30 CL         -1.4867  -17.3862   17.3265 Cl      1  UNL1       -0.0822
     31 C          -2.7044  -18.9319   19.0230 C.ar    1  UNL1        0.0261
@<TRIPOS>BOND
     1     7     8    2
     2     8     9   am
     3     9    11    1
     4    11    12    1
     5    12    13   ar
     6    13    14   ar
     7    14    15   ar
     8    15    16    1
     9    15    17   ar
    10    17    18   ar
    11     8     1    1
    12     1     2   ar
    13     2     3   ar
    14     3     4   ar
    15     4    23    1
    16    23    25    1
    17    25    26   ar
    18    26    27   ar
    19    27    28   ar
    20    28    29   ar
    21    29    30    1
    22    29    31   ar
    23     4     5   ar
    24     5     6   ar
    25     6    19    1
    26    19    20    1
    27    19    21    1
    28    19    22    1
    29    18    12   ar
    30     6     1   ar
    31    31    25   ar
    32     9    10    1
    33    23    24    1
@<TRIPOS>MOLECULE
*****
 31 33 0 0 0
SMALL
GASTEIGER

@<TRIPOS>ATOM
      1 C           6.6836   -2.6490   19.9759 C.ar    1  UNL1        0.0942
      2 C           6.9990   -2.1948   18.5816 C.ar    1  UNL1        0.1078
      3 N           5.9412   -1.5292   17.7523 N.ar    1  UNL1       -0.2119
      4 C           4.5678   -1.3177   18.3173 C.ar    1  UNL1        0.2206
      5 N           4.2523   -1.7719   19.7116 N.ar    1  UNL1       -0.2094
      6 C           5.3103   -2.4376   20.5409 C.ar    1  UNL1        0.1613
      7 O           8.7217   -2.4834   21.5786 O.2     1  UNL1       -0.2700
      8 C           7.7414   -3.3147   20.8053 C.2     1  UNL1        0.2490
      9 N           7.8190   -4.8117   20.8613 N.am    1  UNL1       -0.2968
     10 H           7.1756   -5.3573   20.3538 H       1  UNL1        0.1501
     11 C           8.8768   -5.4773   21.6907 C.3     1  UNL1        0.1166
     12 C           8.5464   -5.9810   23.0645 C.ar    1  UNL1       -0.0024
     13 C           7.7139   -5.1441   23.9899 C.ar    1  UNL1       -0.0003
     14 C           7.3835   -5.6478   25.3637 C.ar    1  UNL1        0.0294
     15 C           7.8856   -6.9883   25.8119 C.ar    1  UNL1        0.1401
     16 F           7.5552   -7.4919   27.1857 F       1  UNL1       -0.2042
     17 C           8.7181   -7.8251   24.8864 C.ar    1  UNL1        0.0294
     18 C           9.0485   -7.3215   23.5127 C.ar    1  UNL1       -0.0003
     19 C           4.9948   -2.8918   21.9353 C.3     1  UNL1        0.4351
     20 F           4.6793   -3.3460   23.3296 F       1  UNL1       -0.1644
     21 F           5.4563   -1.5688   22.4707 F       1  UNL1       -0.1644
     22 F           4.5333   -4.2148   21.3999 F       1  UNL1       -0.1644
     23 N           3.5099   -0.6521   17.4879 N.pl3   1  UNL1       -0.2825
     24 H           3.2527   -1.0352   16.6183 H       1  UNL1        0.1551
     25 C           2.8440    0.5973   17.9836 C.ar    1  UNL1        0.0513
     26 C           1.3769    0.5920   18.2954 C.ar    1  UNL1        0.0147
     27 C           0.7109    1.8414   18.7910 C.ar    1  UNL1        0.0021
     28 C           1.5122    3.0960   18.9748 C.ar    1  UNL1        0.0115
     29 C           2.9794    3.1013   18.6630 C.ar    1  UNL1        0.0589
     30 CL          3.7808    4.3559   18.8468 Cl      1  UNL1       -0.0822
     31 C           3.6453    1.8519   18.1674 C.ar    1  UNL1        0.0261
@<TRIPOS>BOND
     1     7     8    2
     2     8     9   am
     3     9    11    1
     4    11    12    1
     5    12    13   ar
     6    13    14   ar
     7    14    15   ar
     8    15    16    1
     9    15    17   ar
    10    17    18   ar
    11     8     1    1
    12     1     2   ar
    13     2     3   ar
    14     3     4   ar
    15     4    23    1
    16    23    25    1
    17    25    26   ar
    18    26    27   ar
    19    27    28   ar
    20    28    29   ar
    21    29    30    1
    22    29    31   ar
    23     4     5   ar
    24     5     6   ar
    25     6    19    1
    26    19    20    1
    27    19    21    1
    28    19    22    1
    29    18    12   ar
    30     6     1   ar
    31    31    25   ar
    32     9    10    1
    33    23    24    1
@<TRIPOS>MOLECULE
*****
 31 33 0 0 0
SMALL
GASTEIGER

@<TRIPOS>ATOM
      1 C           7.2700   -4.4300   30.1437 C.ar    1  UNL1        0.0942
      2 C           7.0365   -4.7580   31.5886 C.ar    1  UNL1        0.1078
      3 N           6.2506   -3.8178   32.4536 N.ar    1  UNL1       -0.2119
      4 C           5.6983   -2.5494   31.8737 C.ar    1  UNL1        0.2206
      5 N           5.9318   -2.2214   30.4288 N.ar    1  UNL1       -0.2094
      6 C           6.7177   -3.1617   29.5637 C.ar    1  UNL1        0.1613
      7 O           9.5338   -5.1768   29.1106 O.2     1  UNL1       -0.2700
      8 C           8.0559   -5.3703   29.2787 C.2     1  UNL1        0.2490
      9 N           7.3638   -6.5040   28.5817 N.am    1  UNL1       -0.2968
     10 H           6.3938   -6.6310   28.6921 H       1  UNL1        0.1501
     11 C           8.1497   -7.4443   27.7167 C.3     1  UNL1        0.1166
     12 C           8.3331   -7.1457   26.2582 C.ar    1  UNL1       -0.0024
     13 C           9.2542   -7.9912   25.4296 C.ar    1  UNL1       -0.0003
     14 C           9.4375   -7.6926   23.9711 C.ar    1  UNL1        0.0294
     15 C           8.6998   -6.5485   23.3413 C.ar    1  UNL1        0.1401
     16 F           8.8833   -6.2499   21.8827 F       1  UNL1       -0.2042
     17 C           7.7788   -5.7029   24.1699 C.ar    1  UNL1        0.0294
     18 C           7.5954   -6.0016   25.6283 C.ar    1  UNL1       -0.0003
     19 C           6.9513   -2.8337   28.1188 C.3     1  UNL1        0.4351
     20 F           7.1849   -2.5057   26.6739 F       1  UNL1       -0.1644
     21 F           8.2061   -2.0996   28.4883 F       1  UNL1       -0.1644
     22 F           5.6965   -3.5678   27.7493 F       1  UNL1       -0.1644
     23 N           4.9124   -1.6091   32.7387 N.pl3   1  UNL1       -0.2825
     24 H           3.9693   -1.4193   32.5292 H       1  UNL1        0.1551
     25 C           5.5633   -0.9580   33.9229 C.ar    1  UNL1        0.0513
     26 C           7.0439   -0.7178   33.9270 C.ar    1  UNL1        0.0147
     27 C           7.6948   -0.0667   35.1112 C.ar    1  UNL1        0.0021
     28 C           6.8652    0.3441   36.2914 C.ar    1  UNL1        0.0115
     29 C           5.3846    0.1039   36.2873 C.ar    1  UNL1        0.0589
     30 CL          4.5548    0.5148   37.4675 Cl      1  UNL1       -0.0822
     31 C           4.7336   -0.5472   35.1031 C.ar    1  UNL1        0.0261
@<TRIPOS>BOND
     1     7     8    2
     2     8     9   am
     3     9    11    1
     4    11    12    1
     5    12    13   ar
     6    13    14   ar
     7    14    15   ar
     8    15    16    1
     9    15    17   ar
    10    17    18   ar
    11     8     1    1
    12     1     2   ar
    13     2     3   ar
    14     3     4   ar
    15     4    23    1
    16    23    25    1
    17    25    26   ar
    18    26    27   ar
    19    27    28   ar
    20    28    29   ar
    21    29    30    1
    22    29    31   ar
    23     4     5   ar
    24     5     6   ar
    25     6    19    1
    26    19    20    1
    27    19    21    1
    28    19    22    1
    29    18    12   ar
    30     6     1   ar
    31    31    25   ar
    32     9    10    1
    33    23    24    1
