@<TRIPOS>MOLECULE
*****
 24 26 0 0 0
SMALL
GASTEIGER

@<TRIPOS>ATOM
      1 C           0.3291    2.0090   20.5544 C.2     1  UNL1        0.0412
      2 C           0.0261    2.1859   22.0127 C.2     1  UNL1       -0.0326
      3 C           0.7074    1.3202   23.0307 C.3     1  UNL1        0.0442
      4 C           0.4044    1.4972   24.4891 C.3     1  UNL1        0.0981
      5 N          -0.5799    2.5399   24.9295 N.am    1  UNL1       -0.2754
      6 C          -0.8829    2.7169   26.3878 C.2     1  UNL1        0.2490
      7 O          -1.8672    3.7596   26.8281 O.2     1  UNL1       -0.2699
      8 C          -1.2612    3.4056   23.9114 C.3     1  UNL1        0.0981
      9 C          -0.9581    3.2286   22.4530 C.3     1  UNL1        0.0442
     10 C          -0.2016    1.8512   27.4058 C.ar    1  UNL1        0.0536
     11 C           1.1486    2.2355   27.9342 C.ar    1  UNL1        0.0045
     12 C           1.8298    1.3698   28.9522 C.ar    1  UNL1        0.0001
     13 C           1.1609    0.1197   29.4419 C.ar    1  UNL1        0.0000
     14 C          -0.1893   -0.2647   28.9135 C.ar    1  UNL1        0.0001
     15 C          -0.8705    0.6011   27.8955 C.ar    1  UNL1        0.0045
     16 C           2.2977   -0.0765   19.6736 C.1     1  UNL1       -0.0405
     17 C           1.3135    0.9662   20.1140 C.1     1  UNL1       -0.0583
     18 C           3.7747   -5.0523   19.4287 C.3     1  UNL1        0.0521
     19 C           4.0205   -3.6072   19.1108 C.ar    1  UNL1        0.0600
     20 C           5.2505   -3.2047   18.3525 C.ar    1  UNL1        0.0148
     21 C           5.4963   -1.7596   18.0346 C.ar    1  UNL1        0.0034
     22 C           4.5120   -0.7168   18.4749 C.ar    1  UNL1        0.0276
     23 C           3.2820   -1.1193   19.2332 C.ar    1  UNL1        0.1224
     24 N           3.0362   -2.5644   19.5512 N.ar    1  UNL1       -0.2414
@<TRIPOS>BOND
     1    18    19    1
     2    19    20   ar
     3    20    21   ar
     4    21    22   ar
     5    22    23   ar
     6    23    16    1
     7    16    17    3
     8    17     1    1
     9     1     2    2
    10     2     3    1
    11     3     4    1
    12     4     5    1
    13     5     6   am
    14     6     7    2
    15     6    10    1
    16    10    11   ar
    17    11    12   ar
    18    12    13   ar
    19    13    14   ar
    20    14    15   ar
    21     5     8    1
    22     8     9    1
    23    23    24   ar
    24    24    19   ar
    25     9     2    1
    26    15    10   ar
@<TRIPOS>MOLECULE
*****
 24 26 0 0 0
SMALL
GASTEIGER

@<TRIPOS>ATOM
      1 C           5.4032   -1.5504   33.2144 C.2     1  UNL1        0.0412
      2 C           4.3148   -0.6506   32.7088 C.2     1  UNL1       -0.0326
      3 C           3.8004   -0.8093   31.3087 C.3     1  UNL1        0.0442
      4 C           2.7120    0.0904   30.8031 C.3     1  UNL1        0.0981
      5 N           2.1379    1.1490   31.6975 N.am    1  UNL1       -0.2754
      6 C           1.0495    2.0487   31.1919 C.2     1  UNL1        0.2490
      7 O           0.4755    3.1072   32.0864 O.2     1  UNL1       -0.2699
      8 C           2.6523    1.3077   33.0976 C.3     1  UNL1        0.0981
      9 C           3.7408    0.4078   33.6032 C.3     1  UNL1        0.0442
     10 C           0.5351    1.8900   29.7918 C.ar    1  UNL1        0.0536
     11 C           1.0387    2.7885   28.7014 C.ar    1  UNL1        0.0045
     12 C           0.5243    2.6298   27.3013 C.ar    1  UNL1        0.0001
     13 C          -0.4937    1.5727   26.9917 C.ar    1  UNL1        0.0000
     14 C          -0.9973    0.6742   28.0821 C.ar    1  UNL1        0.0001
     15 C          -0.4829    0.8329   29.4821 C.ar    1  UNL1        0.0045
     16 C           6.5514   -3.6675   31.4255 C.1     1  UNL1       -0.0405
     17 C           5.9773   -2.6089   32.3199 C.1     1  UNL1       -0.0583
     18 C           6.6529   -6.1187   26.8450 C.3     1  UNL1        0.0521
     19 C           7.1762   -5.9516   28.2408 C.ar    1  UNL1        0.0600
     20 C           8.2735   -6.8429   28.7421 C.ar    1  UNL1        0.0148
     21 C           8.7968   -6.6758   30.1379 C.ar    1  UNL1        0.0034
     22 C           8.2228   -5.6173   31.0324 C.ar    1  UNL1        0.0276
     23 C           7.1255   -4.7260   30.5310 C.ar    1  UNL1        0.1224
     24 N           6.6022   -4.8931   29.1352 N.ar    1  UNL1       -0.2414
@<TRIPOS>BOND
     1    18    19    1
     2    19    20   ar
     3    20    21   ar
     4    21    22   ar
     5    22    23   ar
     6    23    16    1
     7    16    17    3
     8    17     1    1
     9     1     2    2
    10     2     3    1
    11     3     4    1
    12     4     5    1
    13     5     6   am
    14     6     7    2
    15     6    10    1
    16    10    11   ar
    17    11    12   ar
    18    12    13   ar
    19    13    14   ar
    20    14    15   ar
    21     5     8    1
    22     8     9    1
    23    23    24   ar
    24    24    19   ar
    25     9     2    1
    26    15    10   ar
@<TRIPOS>MOLECULE
*****
 24 26 0 0 0
SMALL
GASTEIGER

@<TRIPOS>ATOM
      1 C           0.0893    2.5080   21.4677 C.2     1  UNL1        0.0412
      2 C           0.9602    1.6208   20.6284 C.2     1  UNL1       -0.0326
      3 C           1.8499    0.6063   21.2835 C.3     1  UNL1        0.0442
      4 C           2.7207   -0.2809   20.4443 C.3     1  UNL1        0.0981
      5 N           2.7019   -0.1537   18.9497 N.am    1  UNL1       -0.2754
      6 C           3.5727   -1.0409   18.1105 C.2     1  UNL1        0.2490
      7 O           3.5539   -0.9136   16.6160 O.2     1  UNL1       -0.2699
      8 C           1.8122    0.8608   18.2946 C.3     1  UNL1        0.0981
      9 C           0.9413    1.7481   19.1340 C.3     1  UNL1        0.0442
     10 C           4.4624   -2.0554   18.7656 C.ar    1  UNL1        0.0536
     11 C           5.8605   -1.6828   19.1611 C.ar    1  UNL1        0.0045
     12 C           6.7502   -2.6974   19.8162 C.ar    1  UNL1        0.0001
     13 C           6.2418   -4.0844   20.0759 C.ar    1  UNL1        0.0000
     14 C           4.8437   -4.4570   19.6805 C.ar    1  UNL1        0.0001
     15 C           3.9540   -3.4425   19.0253 C.ar    1  UNL1        0.0045
     16 C           0.1270    2.2535   24.4567 C.1     1  UNL1       -0.0405
     17 C           0.1082    2.3807   22.9622 C.1     1  UNL1       -0.0583
     18 C          -1.2624   -0.2807   28.7749 C.3     1  UNL1        0.0521
     19 C          -0.5489    0.8591   28.1103 C.ar    1  UNL1        0.0600
     20 C           0.1834    1.8716   28.9401 C.ar    1  UNL1        0.0148
     21 C           0.8968    3.0114   28.2754 C.ar    1  UNL1        0.0034
     22 C           0.8781    3.1387   26.7809 C.ar    1  UNL1        0.0276
     23 C           0.1458    2.1262   25.9512 C.ar    1  UNL1        0.1224
     24 N          -0.5677    0.9864   26.6158 N.ar    1  UNL1       -0.2414
@<TRIPOS>BOND
     1    18    19    1
     2    19    20   ar
     3    20    21   ar
     4    21    22   ar
     5    22    23   ar
     6    23    16    1
     7    16    17    3
     8    17     1    1
     9     1     2    2
    10     2     3    1
    11     3     4    1
    12     4     5    1
    13     5     6   am
    14     6     7    2
    15     6    10    1
    16    10    11   ar
    17    11    12   ar
    18    12    13   ar
    19    13    14   ar
    20    14    15   ar
    21     5     8    1
    22     8     9    1
    23    23    24   ar
    24    24    19   ar
    25     9     2    1
    26    15    10   ar
@<TRIPOS>MOLECULE
*****
 24 26 0 0 0
SMALL
GASTEIGER

@<TRIPOS>ATOM
      1 C           2.0448    4.0745   18.2158 C.2     1  UNL1        0.0412
      2 C           2.9437    2.8874   18.3965 C.2     1  UNL1       -0.0326
      3 C           2.3731    1.5768   18.8512 C.3     1  UNL1        0.0442
      4 C           3.2721    0.3897   19.0319 C.3     1  UNL1        0.0981
      5 N           4.7417    0.5132   18.7579 N.am    1  UNL1       -0.2754
      6 C           5.6406   -0.6739   18.9387 C.2     1  UNL1        0.2490
      7 O           7.1102   -0.5504   18.6647 O.2     1  UNL1       -0.2699
      8 C           5.3123    1.8238   18.3032 C.3     1  UNL1        0.0981
      9 C           4.4133    3.0109   18.1225 C.3     1  UNL1        0.0442
     10 C           5.0700   -1.9845   19.3934 C.ar    1  UNL1        0.0536
     11 C           4.6864   -3.0259   18.3844 C.ar    1  UNL1        0.0045
     12 C           4.1158   -4.3365   18.8391 C.ar    1  UNL1        0.0001
     13 C           3.9288   -4.6056   20.3028 C.ar    1  UNL1        0.0000
     14 C           4.3123   -3.5641   21.3118 C.ar    1  UNL1        0.0001
     15 C           4.8829   -2.2536   20.8571 C.ar    1  UNL1        0.0045
     16 C          -0.8944    3.8276   18.7638 C.1     1  UNL1       -0.0405
     17 C           0.5752    3.9510   18.4897 C.1     1  UNL1       -0.0583
     18 C          -4.7970    2.9931   22.0915 C.3     1  UNL1        0.0521
     19 C          -4.3153    3.2869   20.7016 C.ar    1  UNL1        0.0600
     20 C          -5.3031    3.4572   19.5858 C.ar    1  UNL1        0.0148
     21 C          -4.8214    3.7510   18.1960 C.ar    1  UNL1        0.0034
     22 C          -3.3519    3.8744   17.9220 C.ar    1  UNL1        0.0276
     23 C          -2.3640    3.7041   19.0378 C.ar    1  UNL1        0.1224
     24 N          -2.8457    3.4104   20.4276 N.ar    1  UNL1       -0.2414
@<TRIPOS>BOND
     1    18    19    1
     2    19    20   ar
     3    20    21   ar
     4    21    22   ar
     5    22    23   ar
     6    23    16    1
     7    16    17    3
     8    17     1    1
     9     1     2    2
    10     2     3    1
    11     3     4    1
    12     4     5    1
    13     5     6   am
    14     6     7    2
    15     6    10    1
    16    10    11   ar
    17    11    12   ar
    18    12    13   ar
    19    13    14   ar
    20    14    15   ar
    21     5     8    1
    22     8     9    1
    23    23    24   ar
    24    24    19   ar
    25     9     2    1
    26    15    10   ar
@<TRIPOS>MOLECULE
*****
 24 26 0 0 0
SMALL
GASTEIGER

@<TRIPOS>ATOM
      1 C           6.4184   -3.9105   21.9726 C.2     1  UNL1        0.0412
      2 C           5.7530   -3.0890   20.9086 C.2     1  UNL1       -0.0326
      3 C           4.9951   -1.8496   21.2821 C.3     1  UNL1        0.0442
      4 C           4.3297   -1.0281   20.2181 C.3     1  UNL1        0.0981
      5 N           4.4220   -1.4460   18.7804 N.am    1  UNL1       -0.2754
      6 C           3.7565   -0.6245   17.7163 C.2     1  UNL1        0.2490
      7 O           3.8488   -1.0425   16.2787 O.2     1  UNL1       -0.2699
      8 C           5.1798   -2.6854   18.4068 C.3     1  UNL1        0.0981
      9 C           5.8453   -3.5070   19.4710 C.3     1  UNL1        0.0442
     10 C           2.9987    0.6149   18.0899 C.ar    1  UNL1        0.0536
     11 C           1.5144    0.5527   18.2967 C.ar    1  UNL1        0.0045
     12 C           0.7565    1.7921   18.6703 C.ar    1  UNL1        0.0001
     13 C           1.4831    3.0938   18.8370 C.ar    1  UNL1        0.0000
     14 C           2.9674    3.1560   18.6302 C.ar    1  UNL1        0.0001
     15 C           3.7252    1.9165   18.2566 C.ar    1  UNL1        0.0045
     16 C           6.2339   -3.0747   24.8479 C.1     1  UNL1       -0.0405
     17 C           6.3261   -3.4926   23.4103 C.1     1  UNL1       -0.0583
     18 C           6.7939   -4.1680   29.8968 C.3     1  UNL1        0.0521
     19 C           6.4216   -3.2035   28.8101 C.ar    1  UNL1        0.0600
     20 C           5.9570   -1.8211   29.1609 C.ar    1  UNL1        0.0148
     21 C           5.5847   -0.8566   28.0741 C.ar    1  UNL1        0.0034
     22 C           5.6770   -1.2744   26.6365 C.ar    1  UNL1        0.0276
     23 C           6.1416   -2.6568   26.2856 C.ar    1  UNL1        0.1224
     24 N           6.5139   -3.6213   27.3724 N.ar    1  UNL1       -0.2414
@<TRIPOS>BOND
     1    18    19    1
     2    19    20   ar
     3    20    21   ar
     4    21    22   ar
     5    22    23   ar
     6    23    16    1
     7    16    17    3
     8    17     1    1
     9     1     2    2
    10     2     3    1
    11     3     4    1
    12     4     5    1
    13     5     6   am
    14     6     7    2
    15     6    10    1
    16    10    11   ar
    17    11    12   ar
    18    12    13   ar
    19    13    14   ar
    20    14    15   ar
    21     5     8    1
    22     8     9    1
    23    23    24   ar
    24    24    19   ar
    25     9     2    1
    26    15    10   ar
@<TRIPOS>MOLECULE
*****
 24 26 0 0 0
SMALL
GASTEIGER

@<TRIPOS>ATOM
      1 C           0.8831    2.0093   18.3626 C.2     1  UNL1        0.0412
      2 C          -0.1253    2.7726   19.1691 C.2     1  UNL1       -0.0326
      3 C          -0.4137    2.3695   20.5849 C.3     1  UNL1        0.0442
      4 C          -1.4220    3.1328   21.3914 C.3     1  UNL1        0.0981
      5 N          -2.1421    4.2992   20.7822 N.am    1  UNL1       -0.2754
      6 C          -3.1504    5.0625   21.5888 C.2     1  UNL1        0.2490
      7 O          -3.8704    6.2289   20.9796 O.2     1  UNL1       -0.2699
      8 C          -1.8536    4.7023   19.3665 C.3     1  UNL1        0.0981
      9 C          -0.8452    3.9390   18.5599 C.3     1  UNL1        0.0442
     10 C          -3.4388    4.6594   23.0045 C.ar    1  UNL1        0.0536
     11 C          -2.6280    5.2341   24.1279 C.ar    1  UNL1        0.0045
     12 C          -2.9164    4.8310   25.5437 C.ar    1  UNL1        0.0001
     13 C          -4.0156    3.8532   25.8360 C.ar    1  UNL1        0.0000
     14 C          -4.8265    3.2785   24.7125 C.ar    1  UNL1        0.0001
     15 C          -4.5381    3.6816   23.2968 C.ar    1  UNL1        0.0045
     16 C           2.3231   -0.3235   19.5810 C.1     1  UNL1       -0.0405
     17 C           1.6031    0.8429   18.9718 C.1     1  UNL1       -0.0583
     18 C           4.3972   -5.0663   19.1288 C.3     1  UNL1        0.0521
     19 C           4.0802   -3.8613   19.9640 C.ar    1  UNL1        0.0600
     20 C           4.4831   -3.8228   21.4084 C.ar    1  UNL1        0.0148
     21 C           4.1660   -2.6178   22.2436 C.ar    1  UNL1        0.0034
     22 C           3.4461   -1.4514   21.6345 C.ar    1  UNL1        0.0276
     23 C           3.0431   -1.4899   20.1901 C.ar    1  UNL1        0.1224
     24 N           3.3602   -2.6949   19.3549 N.ar    1  UNL1       -0.2414
@<TRIPOS>BOND
     1    18    19    1
     2    19    20   ar
     3    20    21   ar
     4    21    22   ar
     5    22    23   ar
     6    23    16    1
     7    16    17    3
     8    17     1    1
     9     1     2    2
    10     2     3    1
    11     3     4    1
    12     4     5    1
    13     5     6   am
    14     6     7    2
    15     6    10    1
    16    10    11   ar
    17    11    12   ar
    18    12    13   ar
    19    13    14   ar
    20    14    15   ar
    21     5     8    1
    22     8     9    1
    23    23    24   ar
    24    24    19   ar
    25     9     2    1
    26    15    10   ar
@<TRIPOS>MOLECULE
*****
 24 26 0 0 0
SMALL
GASTEIGER

@<TRIPOS>ATOM
      1 C           8.5963   -7.2540   24.7708 C.2     1  UNL1        0.0412
      2 C           8.6582   -7.0390   26.2539 C.2     1  UNL1       -0.0326
      3 C           8.2122   -5.7331   26.8418 C.3     1  UNL1        0.0442
      4 C           8.2742   -5.5181   28.3250 C.3     1  UNL1        0.0981
      5 N           8.7821   -6.6092   29.2204 N.am    1  UNL1       -0.2754
      6 C           8.8441   -6.3942   30.7036 C.2     1  UNL1        0.2490
      7 O           9.3520   -7.4852   31.5989 O.2     1  UNL1       -0.2699
      8 C           9.2281   -7.9151   28.6326 C.3     1  UNL1        0.0981
      9 C           9.1662   -8.1300   27.1493 C.3     1  UNL1        0.0442
     10 C           8.3981   -5.0883   31.2915 C.ar    1  UNL1        0.0536
     11 C           6.9480   -4.8613   31.6009 C.ar    1  UNL1        0.0045
     12 C           6.5020   -3.5554   32.1888 C.ar    1  UNL1        0.0001
     13 C           7.5061   -2.4764   32.4672 C.ar    1  UNL1        0.0000
     14 C           8.9561   -2.7033   32.1578 C.ar    1  UNL1        0.0001
     15 C           9.4021   -4.0093   31.5699 C.ar    1  UNL1        0.0045
     16 C           7.5804   -5.0720   22.9800 C.1     1  UNL1       -0.0405
     17 C           8.0883   -6.1629   23.8753 C.1     1  UNL1       -0.0583
     18 C           5.1594   -3.5819   18.6304 C.3     1  UNL1        0.0521
     19 C           5.8619   -3.2359   19.9098 C.ar    1  UNL1        0.0600
     20 C           6.0565   -1.7991   20.2938 C.ar    1  UNL1        0.0148
     21 C           6.7590   -1.4531   21.5731 C.ar    1  UNL1        0.0034
     22 C           7.2670   -2.5441   22.4685 C.ar    1  UNL1        0.0276
     23 C           7.0724   -3.9809   22.0846 C.ar    1  UNL1        0.1224
     24 N           6.3699   -4.3269   20.8052 N.ar    1  UNL1       -0.2414
@<TRIPOS>BOND
     1    18    19    1
     2    19    20   ar
     3    20    21   ar
     4    21    22   ar
     5    22    23   ar
     6    23    16    1
     7    16    17    3
     8    17     1    1
     9     1     2    2
    10     2     3    1
    11     3     4    1
    12     4     5    1
    13     5     6   am
    14     6     7    2
    15     6    10    1
    16    10    11   ar
    17    11    12   ar
    18    12    13   ar
    19    13    14   ar
    20    14    15   ar
    21     5     8    1
    22     8     9    1
    23    23    24   ar
    24    24    19   ar
    25     9     2    1
    26    15    10   ar
@<TRIPOS>MOLECULE
*****
 24 26 0 0 0
SMALL
GASTEIGER

@<TRIPOS>ATOM
      1 C           8.2802   -3.9211   20.5208 C.2     1  UNL1        0.0412
      2 C           7.2412   -2.9243   20.1004 C.2     1  UNL1       -0.0326
      3 C           6.0776   -2.6292   20.9998 C.3     1  UNL1        0.0442
      4 C           5.0386   -1.6324   20.5793 C.3     1  UNL1        0.0981
      5 N           5.1632   -0.9305   19.2595 N.am    1  UNL1       -0.2754
      6 C           4.1243    0.0663   18.8391 C.2     1  UNL1        0.2490
      7 O           4.2489    0.7681   17.5193 O.2     1  UNL1       -0.2699
      8 C           6.3269   -1.2256   18.3601 C.3     1  UNL1        0.0981
      9 C           7.3659   -2.2225   18.7806 C.3     1  UNL1        0.0442
     10 C           2.9606    0.3613   19.7384 C.ar    1  UNL1        0.0536
     11 C           1.6987   -0.4409   19.6198 C.ar    1  UNL1        0.0045
     12 C           0.5351   -0.1459   20.5192 C.ar    1  UNL1        0.0001
     13 C           0.6333    0.9514   21.5372 C.ar    1  UNL1        0.0000
     14 C           1.8951    1.7536   21.6558 C.ar    1  UNL1        0.0001
     15 C           3.0588    1.4585   20.7565 C.ar    1  UNL1        0.0045
     16 C           8.0310   -5.3248   23.1604 C.1     1  UNL1       -0.0405
     17 C           8.1556   -4.6230   21.8406 C.1     1  UNL1       -0.0583
     18 C           6.2999   -5.4237   28.0588 C.3     1  UNL1        0.0521
     19 C           7.0407   -6.0761   26.9294 C.ar    1  UNL1        0.0600
     20 C           7.6570   -7.4303   27.1198 C.ar    1  UNL1        0.0148
     21 C           8.3979   -8.0827   25.9905 C.ar    1  UNL1        0.0034
     22 C           8.5225   -7.3809   24.6707 C.ar    1  UNL1        0.0276
     23 C           7.9063   -6.0267   24.4803 C.ar    1  UNL1        0.1224
     24 N           7.1654   -5.3743   25.6096 N.ar    1  UNL1       -0.2414
@<TRIPOS>BOND
     1    18    19    1
     2    19    20   ar
     3    20    21   ar
     4    21    22   ar
     5    22    23   ar
     6    23    16    1
     7    16    17    3
     8    17     1    1
     9     1     2    2
    10     2     3    1
    11     3     4    1
    12     4     5    1
    13     5     6   am
    14     6     7    2
    15     6    10    1
    16    10    11   ar
    17    11    12   ar
    18    12    13   ar
    19    13    14   ar
    20    14    15   ar
    21     5     8    1
    22     8     9    1
    23    23    24   ar
    24    24    19   ar
    25     9     2    1
    26    15    10   ar
@<TRIPOS>MOLECULE
*****
 24 26 0 0 0
SMALL
GASTEIGER

@<TRIPOS>ATOM
      1 C           6.4774   -2.7741   25.9844 C.2     1  UNL1        0.0412
      2 C           5.5096   -2.0551   26.8768 C.2     1  UNL1       -0.0326
      3 C           4.2195   -1.5328   26.3175 C.3     1  UNL1        0.0442
      4 C           3.2517   -0.8138   27.2099 C.3     1  UNL1        0.0981
      5 N           3.5740   -0.6170   28.6616 N.am    1  UNL1       -0.2754
      6 C           2.6063    0.1020   29.5539 C.2     1  UNL1        0.2490
      7 O           2.9286    0.2988   31.0056 O.2     1  UNL1       -0.2699
      8 C           4.8642   -1.1392   29.2209 C.3     1  UNL1        0.0981
      9 C           5.8320   -1.8583   28.3284 C.3     1  UNL1        0.0442
     10 C           1.3161    0.6243   28.9946 C.ar    1  UNL1        0.0536
     11 C           1.2590    2.0000   28.3996 C.ar    1  UNL1        0.0045
     12 C          -0.0312    2.5222   27.8403 C.ar    1  UNL1        0.0001
     13 C          -1.2642    1.6687   27.8761 C.ar    1  UNL1        0.0000
     14 C          -1.2070    0.2931   28.4712 C.ar    1  UNL1        0.0001
     15 C           0.0831   -0.2292   29.0304 C.ar    1  UNL1        0.0045
     16 C           5.8328   -3.1677   23.0811 C.1     1  UNL1       -0.0405
     17 C           6.1551   -2.9709   24.5327 C.1     1  UNL1       -0.0583
     18 C           6.8297   -2.1859   18.0768 C.3     1  UNL1        0.0521
     19 C           6.0090   -2.8736   19.1273 C.ar    1  UNL1        0.0600
     20 C           4.8659   -3.7581   18.7260 C.ar    1  UNL1        0.0148
     21 C           4.0451   -4.4458   19.7764 C.ar    1  UNL1        0.0034
     22 C           4.3674   -4.2490   21.2281 C.ar    1  UNL1        0.0276
     23 C           5.5104   -3.3645   21.6293 C.ar    1  UNL1        0.1224
     24 N           6.3312   -2.6768   20.5789 N.ar    1  UNL1       -0.2414
@<TRIPOS>BOND
     1    18    19    1
     2    19    20   ar
     3    20    21   ar
     4    21    22   ar
     5    22    23   ar
     6    23    16    1
     7    16    17    3
     8    17     1    1
     9     1     2    2
    10     2     3    1
    11     3     4    1
    12     4     5    1
    13     5     6   am
    14     6     7    2
    15     6    10    1
    16    10    11   ar
    17    11    12   ar
    18    12    13   ar
    19    13    14   ar
    20    14    15   ar
    21     5     8    1
    22     8     9    1
    23    23    24   ar
    24    24    19   ar
    25     9     2    1
    26    15    10   ar
