@<TRIPOS>MOLECULE
*****
 42 46 0 0 0
SMALL
GASTEIGER

@<TRIPOS>ATOM
      1 N           1.7491   -0.3341   19.3491 N.pl3   1  UNL1       -0.2790
      2 H           1.1485   -0.9389   18.8564 H       1  UNL1        0.1552
      3 C           1.8847    1.0982   18.9244 C.ar    1  UNL1        0.2383
      4 N           3.2407    1.7359   18.8591 N.ar    1  UNL1       -0.2093
      5 C           3.3763    3.1681   18.4344 C.ar    1  UNL1        0.1209
      6 C           2.1557    3.9626   18.0750 C.ar    1  UNL1        0.1021
      7 C           1.9791    5.3824   17.6242 C.ar    1  UNL1        0.0223
      8 C           0.5138    5.6220   17.4110 C.ar    1  UNL1        0.0208
      9 C          -0.2151    4.3504   17.7299 C.ar    1  UNL1        0.0842
     10 N           0.7997    3.3248   18.1403 N.ar    1  UNL1       -0.2255
     11 N           0.6641    1.8926   18.5650 N.ar    1  UNL1       -0.1295
     12 C          -1.6984    4.1411   17.6521 C.ar    1  UNL1        0.0326
     13 C          -2.3333    3.7491   16.3509 C.ar    1  UNL1        0.0028
     14 C          -3.8166    3.5398   16.2732 C.ar    1  UNL1        0.0001
     15 C          -4.6650    3.7224   17.4967 C.ar    1  UNL1        0.0013
     16 C          -4.0300    4.1143   18.7978 C.ar    1  UNL1        0.0162
     17 C          -2.5468    4.3236   18.8756 C.ar    1  UNL1        0.0699
     18 N          -1.9119    4.7156   20.1769 N.pl3   1  UNL1       -0.1925
     19 C          -1.9587    6.1434   20.6342 C.3     1  UNL1        0.1388
     20 S          -1.2302    3.6797   21.0208 S.O2    1  UNL1        0.0588
     21 C          -0.5485    2.6438   21.8647 C.3     1  UNL1        0.1999
     22 O          -2.4034    2.7622   20.8423 O.2     1  UNL1       -0.1542
     23 O          -0.0570    4.5971   21.1993 O.2     1  UNL1       -0.1542
     24 C           3.4236   -2.0386   20.3692 C.ar    1  UNL1        0.1533
     25 C           4.2031   -2.5494   21.5446 C.ar    1  UNL1        0.0527
     26 C           4.0877   -1.8664   22.8751 C.ar    1  UNL1        0.0510
     27 C           3.1928   -0.6727   23.0303 C.ar    1  UNL1        0.0160
     28 C           2.4132   -0.1619   21.8549 C.ar    1  UNL1        0.0190
     29 C           2.5286   -0.8448   20.5244 C.ar    1  UNL1        0.0850
     30 N           4.8672   -2.3772   24.0504 N.pl3   1  UNL1       -0.3046
     31 C           5.7779   -3.5583   23.8903 C.3     1  UNL1        0.1081
     32 C           6.5575   -4.0690   25.0657 C.3     1  UNL1        0.0939
     33 N           6.4263   -3.3987   26.4011 N.3     1  UNL1       -0.2677
     34 C           5.5156   -2.2176   26.5612 C.3     1  UNL1        0.0939
     35 C           4.7361   -1.7068   25.3859 C.3     1  UNL1        0.1081
     36 C           7.2058   -3.9094   27.5765 C.3     1  UNL1        0.1017
     37 C           6.7082   -5.0955   28.3483 C.3     1  UNL1        0.1265
     38 C           7.4650   -5.5798   29.5495 C.3     1  UNL1        0.0332
     39 O           5.4539   -5.7971   27.9190 O.3     1  UNL1       -0.3830
     40 H           5.2747   -6.5364   28.5209 H       1  UNL1        0.2104
     41 C           3.6831   -4.2131   18.9713 C.3     1  UNL1        0.2525
     42 O           3.5390   -2.7215   19.0387 O.3     1  UNL1       -0.4701
@<TRIPOS>BOND
     1    41    42    1
     2    42    24    1
     3    24    25   ar
     4    25    26   ar
     5    26    30    1
     6    30    31    1
     7    31    32    1
     8    32    33    1
     9    33    36    1
    10    36    37    1
    11    37    38    1
    12    37    39    1
    13    33    34    1
    14    34    35    1
    15    26    27   ar
    16    27    28   ar
    17    28    29   ar
    18    29     1    1
    19     1     3    1
    20     3     4   ar
    21     4     5   ar
    22     5     6   ar
    23     6     7   ar
    24     7     8   ar
    25     8     9   ar
    26     9    12    1
    27    12    13   ar
    28    13    14   ar
    29    14    15   ar
    30    15    16   ar
    31    16    17   ar
    32    17    18    1
    33    18    19    1
    34    18    20    1
    35    20    21    1
    36    20    22    2
    37    20    23    2
    38     9    10   ar
    39    10    11   ar
    40    29    24   ar
    41    11     3   ar
    42    35    30    1
    43    10     6   ar
    44    17    12   ar
    45    39    40    1
    46     1     2    1
@<TRIPOS>MOLECULE
*****
 42 46 0 0 0
SMALL
GASTEIGER

@<TRIPOS>ATOM
      1 N           1.7842    1.7218   32.3934 N.pl3   1  UNL1       -0.2790
      2 H           0.8711    1.6817   32.0276 H       1  UNL1        0.1552
      3 C           2.1617    2.8141   33.3498 C.ar    1  UNL1        0.2383
      4 N           2.6780    4.1223   32.8283 N.ar    1  UNL1       -0.2093
      5 C           3.0554    5.2145   33.7847 C.ar    1  UNL1        0.1209
      6 C           2.9165    4.9985   35.2625 C.ar    1  UNL1        0.1021
      7 C           3.2070    5.8840   36.4380 C.ar    1  UNL1        0.0223
      8 C           2.8701    5.1230   37.6859 C.ar    1  UNL1        0.0208
      9 C           2.3715    3.7672   37.2817 C.ar    1  UNL1        0.0842
     10 N           2.4001    3.6903   35.7840 N.ar    1  UNL1       -0.2255
     11 N           2.0227    2.5981   34.8277 N.ar    1  UNL1       -0.1295
     12 C           1.9229    2.6794   38.2120 C.ar    1  UNL1        0.0326
     13 C           0.5750    2.7596   38.8652 C.ar    1  UNL1        0.0028
     14 C           0.1264    1.6717   39.7955 C.ar    1  UNL1        0.0001
     15 C           1.0258    0.5036   40.0725 C.ar    1  UNL1        0.0013
     16 C           2.3737    0.4235   39.4193 C.ar    1  UNL1        0.0162
     17 C           2.8222    1.5113   38.4891 C.ar    1  UNL1        0.0699
     18 N           4.1701    1.4311   37.8359 N.pl3   1  UNL1       -0.1925
     19 C           4.4149    0.4355   36.7409 C.3     1  UNL1        0.1388
     20 S           5.2733    2.3464   38.2777 S.O2    1  UNL1        0.0588
     21 C           6.3765    3.2617   38.7194 C.3     1  UNL1        0.1999
     22 O           4.9365    2.0604   39.7111 O.2     1  UNL1       -0.1542
     23 O           5.6101    2.6323   36.8442 O.2     1  UNL1       -0.1542
     24 C           2.8706    0.2214   30.5717 C.ar    1  UNL1        0.1533
     25 C           3.8843   -0.8096   30.1728 C.ar    1  UNL1        0.0527
     26 C           4.8256   -1.3714   31.1968 C.ar    1  UNL1        0.0510
     27 C           4.7530   -0.9021   32.6196 C.ar    1  UNL1        0.0160
     28 C           3.7392    0.1290   33.0185 C.ar    1  UNL1        0.0190
     29 C           2.7980    0.6908   31.9946 C.ar    1  UNL1        0.0850
     30 N           5.8393   -2.4025   30.7979 N.pl3   1  UNL1       -0.3046
     31 C           6.3003   -3.4255   31.7934 C.3     1  UNL1        0.1081
     32 C           7.3141   -4.4566   31.3945 C.3     1  UNL1        0.0939
     33 N           7.8669   -4.4646   30.0001 N.3     1  UNL1       -0.2677
     34 C           7.4060   -3.4417   29.0046 C.3     1  UNL1        0.0939
     35 C           6.3922   -2.4106   29.4035 C.3     1  UNL1        0.1081
     36 C           8.8807   -5.4957   29.6013 C.3     1  UNL1        0.1017
     37 C           8.7083   -6.2620   28.3233 C.3     1  UNL1        0.1265
     38 C           9.5352   -5.9121   27.1217 C.3     1  UNL1        0.0332
     39 O           7.7090   -7.3780   28.2470 O.3     1  UNL1       -0.3830
     40 H           7.7240   -7.7652   27.3578 H       1  UNL1        0.2104
     41 C           1.0910   -0.1394   28.7135 C.3     1  UNL1        0.2525
     42 O           1.9293    0.7832   29.5477 O.3     1  UNL1       -0.4701
@<TRIPOS>BOND
     1    41    42    1
     2    42    24    1
     3    24    25   ar
     4    25    26   ar
     5    26    30    1
     6    30    31    1
     7    31    32    1
     8    32    33    1
     9    33    36    1
    10    36    37    1
    11    37    38    1
    12    37    39    1
    13    33    34    1
    14    34    35    1
    15    26    27   ar
    16    27    28   ar
    17    28    29   ar
    18    29     1    1
    19     1     3    1
    20     3     4   ar
    21     4     5   ar
    22     5     6   ar
    23     6     7   ar
    24     7     8   ar
    25     8     9   ar
    26     9    12    1
    27    12    13   ar
    28    13    14   ar
    29    14    15   ar
    30    15    16   ar
    31    16    17   ar
    32    17    18    1
    33    18    19    1
    34    18    20    1
    35    20    21    1
    36    20    22    2
    37    20    23    2
    38     9    10   ar
    39    10    11   ar
    40    29    24   ar
    41    11     3   ar
    42    35    30    1
    43    10     6   ar
    44    17    12   ar
    45    39    40    1
    46     1     2    1
@<TRIPOS>MOLECULE
*****
 42 46 0 0 0
SMALL
GASTEIGER

@<TRIPOS>ATOM
      1 N           4.6634    0.3575   33.1139 N.pl3   1  UNL1       -0.2790
      2 H           3.8635    0.8203   32.7744 H       1  UNL1        0.1552
      3 C           5.3135    0.8181   34.3849 C.ar    1  UNL1        0.2383
      4 N           6.8039    0.9734   34.4515 N.ar    1  UNL1       -0.2093
      5 C           7.4539    1.4339   35.7225 C.ar    1  UNL1        0.1209
      6 C           6.6134    1.7390   36.9269 C.ar    1  UNL1        0.1021
      7 C           6.9695    2.2075   38.3067 C.ar    1  UNL1        0.0223
      8 C           5.6991    2.3416   39.0929 C.ar    1  UNL1        0.0208
      9 C           4.5579    1.9561   38.1989 C.ar    1  UNL1        0.0842
     10 N           5.1230    1.5837   36.8603 N.ar    1  UNL1       -0.2255
     11 N           4.4730    1.1232   35.5893 N.ar    1  UNL1       -0.1295
     12 C           3.1064    1.9449   38.5772 C.ar    1  UNL1        0.0326
     13 C           2.5187    0.7462   39.2609 C.ar    1  UNL1        0.0028
     14 C           1.0672    0.7350   39.6391 C.ar    1  UNL1        0.0001
     15 C           0.2034    1.9226   39.3337 C.ar    1  UNL1        0.0013
     16 C           0.7911    3.1214   38.6500 C.ar    1  UNL1        0.0162
     17 C           2.2426    3.1326   38.2717 C.ar    1  UNL1        0.0699
     18 N           2.8303    4.3314   37.5880 N.pl3   1  UNL1       -0.1925
     19 C           3.3368    5.4854   38.4015 C.3     1  UNL1        0.1388
     20 S           2.9113    4.3762   36.0909 S.O2    1  UNL1        0.0588
     21 C           2.9924    4.4210   34.5938 C.3     1  UNL1        0.1999
     22 O           4.3379    4.8306   36.1817 O.2     1  UNL1       -0.1542
     23 O           1.4847    3.9218   36.0001 O.2     1  UNL1       -0.1542
     24 C           5.5845   -0.6631   30.9093 C.ar    1  UNL1        0.1533
     25 C           6.1532   -1.8286   30.1557 C.ar    1  UNL1        0.0527
     26 C           6.3695   -3.1391   30.8527 C.ar    1  UNL1        0.0510
     27 C           6.0171   -3.2840   32.3035 C.ar    1  UNL1        0.0160
     28 C           5.4484   -2.1184   33.0573 C.ar    1  UNL1        0.0190
     29 C           5.2321   -0.8080   32.3602 C.ar    1  UNL1        0.0850
     30 N           6.9382   -4.3046   30.0991 N.pl3   1  UNL1       -0.3046
     31 C           6.5195   -4.5571   28.6810 C.3     1  UNL1        0.1081
     32 C           7.0883   -5.7227   27.9273 C.3     1  UNL1        0.0939
     33 N           8.0756   -6.6358   28.5917 N.3     1  UNL1       -0.2677
     34 C           8.4943   -6.3832   30.0098 C.3     1  UNL1        0.0939
     35 C           7.9256   -5.2177   30.7634 C.3     1  UNL1        0.1081
     36 C           8.6443   -7.8013   27.8380 C.3     1  UNL1        0.1017
     37 C           8.0715   -8.1844   26.5057 C.3     1  UNL1        0.1265
     38 C           8.8606   -7.9439   25.2528 C.3     1  UNL1        0.0332
     39 O           6.7096   -8.8081   26.4261 O.3     1  UNL1       -0.3830
     40 H           6.4922   -8.9927   25.4990 H       1  UNL1        0.2104
     41 C           4.0337    0.9621   29.6042 C.3     1  UNL1        0.2525
     42 O           5.3682    0.6474   30.2123 O.3     1  UNL1       -0.4701
@<TRIPOS>BOND
     1    41    42    1
     2    42    24    1
     3    24    25   ar
     4    25    26   ar
     5    26    30    1
     6    30    31    1
     7    31    32    1
     8    32    33    1
     9    33    36    1
    10    36    37    1
    11    37    38    1
    12    37    39    1
    13    33    34    1
    14    34    35    1
    15    26    27   ar
    16    27    28   ar
    17    28    29   ar
    18    29     1    1
    19     1     3    1
    20     3     4   ar
    21     4     5   ar
    22     5     6   ar
    23     6     7   ar
    24     7     8   ar
    25     8     9   ar
    26     9    12    1
    27    12    13   ar
    28    13    14   ar
    29    14    15   ar
    30    15    16   ar
    31    16    17   ar
    32    17    18    1
    33    18    19    1
    34    18    20    1
    35    20    21    1
    36    20    22    2
    37    20    23    2
    38     9    10   ar
    39    10    11   ar
    40    29    24   ar
    41    11     3   ar
    42    35    30    1
    43    10     6   ar
    44    17    12   ar
    45    39    40    1
    46     1     2    1
@<TRIPOS>MOLECULE
*****
 42 46 0 0 0
SMALL
GASTEIGER

@<TRIPOS>ATOM
      1 N           7.5667   -5.2793   23.5011 N.pl3   1  UNL1       -0.2790
      2 H           7.5164   -6.2381   23.2833 H       1  UNL1        0.1552
      3 C           7.8814   -4.2815   22.4261 C.ar    1  UNL1        0.2383
      4 N           9.2175   -4.3093   21.7449 N.ar    1  UNL1       -0.2093
      5 C           9.5321   -3.3115   20.6701 C.ar    1  UNL1        0.1209
      6 C           8.5107   -2.2859   20.2764 C.ar    1  UNL1        0.1021
      7 C           8.5356   -1.1835   19.2595 C.ar    1  UNL1        0.0223
      8 C           7.2149   -0.4743   19.3123 C.ar    1  UNL1        0.0208
      9 C           6.3738   -1.1385   20.3618 C.ar    1  UNL1        0.0842
     10 N           7.1747   -2.2581   20.9576 N.ar    1  UNL1       -0.2255
     11 N           6.8600   -3.2559   22.0325 N.ar    1  UNL1       -0.1295
     12 C           4.9770   -0.7511   20.7477 C.ar    1  UNL1        0.0326
     13 C           4.7327    0.0042   22.0204 C.ar    1  UNL1        0.0028
     14 C           3.3359    0.3916   22.4063 C.ar    1  UNL1        0.0001
     15 C           2.1834    0.0237   21.5195 C.ar    1  UNL1        0.0013
     16 C           2.4278   -0.7315   20.2468 C.ar    1  UNL1        0.0162
     17 C           3.8245   -1.1190   19.8609 C.ar    1  UNL1        0.0699
     18 N           4.0688   -1.8743   18.5882 N.pl3   1  UNL1       -0.1925
     19 C           3.9968   -1.1640   17.2689 C.3     1  UNL1        0.1388
     20 S           4.3851   -3.3398   18.6347 S.O2    1  UNL1        0.0588
     21 C           4.7014   -4.8053   18.6812 C.3     1  UNL1        0.1999
     22 O           3.1328   -3.5850   19.4231 O.2     1  UNL1       -0.1542
     23 O           5.6374   -3.0945   17.8463 O.2     1  UNL1       -0.1542
     24 C           7.1969   -5.8192   26.0154 C.ar    1  UNL1        0.1533
     25 C           6.9587   -5.3562   27.4221 C.ar    1  UNL1        0.0527
     26 C           6.8520   -3.8902   27.7212 C.ar    1  UNL1        0.0510
     27 C           6.9835   -2.8872   26.6136 C.ar    1  UNL1        0.0160
     28 C           7.2217   -3.3502   25.2069 C.ar    1  UNL1        0.0190
     29 C           7.3284   -4.8162   24.9078 C.ar    1  UNL1        0.0850
     30 N           6.6138   -3.4271   29.1279 N.pl3   1  UNL1       -0.3046
     31 C           6.1548   -2.0229   29.3877 C.3     1  UNL1        0.1081
     32 C           5.9166   -1.5599   30.7945 C.3     1  UNL1        0.0939
     33 N           6.1374   -2.5011   31.9413 N.3     1  UNL1       -0.2677
     34 C           6.5964   -3.9053   31.6816 C.3     1  UNL1        0.0939
     35 C           6.8346   -4.3683   30.2749 C.3     1  UNL1        0.1081
     36 C           5.8992   -2.0380   33.3480 C.3     1  UNL1        0.1017
     37 C           4.4983   -1.9149   33.8700 C.3     1  UNL1        0.1265
     38 C           3.9923   -0.5884   34.3544 C.3     1  UNL1        0.0332
     39 O           3.6035   -3.1181   33.9076 O.3     1  UNL1       -0.3830
     40 H           2.7394   -2.8672   34.2700 H       1  UNL1        0.2104
     41 C           8.6170   -7.9907   25.8814 C.3     1  UNL1        0.2525
     42 O           7.3037   -7.2852   25.7163 O.3     1  UNL1       -0.4701
@<TRIPOS>BOND
     1    41    42    1
     2    42    24    1
     3    24    25   ar
     4    25    26   ar
     5    26    30    1
     6    30    31    1
     7    31    32    1
     8    32    33    1
     9    33    36    1
    10    36    37    1
    11    37    38    1
    12    37    39    1
    13    33    34    1
    14    34    35    1
    15    26    27   ar
    16    27    28   ar
    17    28    29   ar
    18    29     1    1
    19     1     3    1
    20     3     4   ar
    21     4     5   ar
    22     5     6   ar
    23     6     7   ar
    24     7     8   ar
    25     8     9   ar
    26     9    12    1
    27    12    13   ar
    28    13    14   ar
    29    14    15   ar
    30    15    16   ar
    31    16    17   ar
    32    17    18    1
    33    18    19    1
    34    18    20    1
    35    20    21    1
    36    20    22    2
    37    20    23    2
    38     9    10   ar
    39    10    11   ar
    40    29    24   ar
    41    11     3   ar
    42    35    30    1
    43    10     6   ar
    44    17    12   ar
    45    39    40    1
    46     1     2    1
@<TRIPOS>MOLECULE
*****
 42 46 0 0 0
SMALL
GASTEIGER

@<TRIPOS>ATOM
      1 N           2.7909   -0.9799   27.6723 N.pl3   1  UNL1       -0.2790
      2 H           2.0849   -1.6193   27.4234 H       1  UNL1        0.1552
      3 C           3.7556   -0.4864   26.6350 C.ar    1  UNL1        0.2383
      4 N           5.1853   -0.2237   27.0051 N.ar    1  UNL1       -0.2093
      5 C           6.1499    0.2698   25.9678 C.ar    1  UNL1        0.1209
      6 C           5.6848    0.5005   24.5605 C.ar    1  UNL1        0.1021
      7 C           6.4010    0.9794   23.3325 C.ar    1  UNL1        0.0223
      8 C           5.4139    1.0125   22.2036 C.ar    1  UNL1        0.0208
      9 C           4.0877    0.5542   22.7338 C.ar    1  UNL1        0.0842
     10 N           4.2552    0.2377   24.1905 N.ar    1  UNL1       -0.2255
     11 N           3.2905   -0.2557   25.2277 N.ar    1  UNL1       -0.1295
     12 C           2.8171    0.4335   21.9458 C.ar    1  UNL1        0.0326
     13 C           1.7525    1.4823   22.0740 C.ar    1  UNL1        0.0028
     14 C           0.4819    1.3616   21.2859 C.ar    1  UNL1        0.0001
     15 C           0.2759    0.1920   20.3697 C.ar    1  UNL1        0.0013
     16 C           1.3405   -0.8568   20.2415 C.ar    1  UNL1        0.0162
     17 C           2.6111   -0.7361   21.0295 C.ar    1  UNL1        0.0699
     18 N           3.6757   -1.7850   20.9012 N.pl3   1  UNL1       -0.1925
     19 C           4.1651   -2.5098   22.1199 C.3     1  UNL1        0.1388
     20 S           4.2508   -2.1091   19.5543 S.O2    1  UNL1        0.0588
     21 C           4.8260   -2.4331   18.2074 C.3     1  UNL1        0.1999
     22 O           3.6883   -3.4965   19.6480 O.2     1  UNL1       -0.1542
     23 O           4.8133   -0.7217   19.4607 O.2     1  UNL1       -0.1542
     24 C           1.8561    0.4152   29.6547 C.ar    1  UNL1        0.1533
     25 C           1.9671    0.8959   31.0712 C.ar    1  UNL1        0.0527
     26 C           3.1239    0.4622   31.9219 C.ar    1  UNL1        0.0510
     27 C           4.1697   -0.4522   31.3561 C.ar    1  UNL1        0.0160
     28 C           4.0587   -0.9330   29.9395 C.ar    1  UNL1        0.0190
     29 C           2.9019   -0.4993   29.0888 C.ar    1  UNL1        0.0850
     30 N           3.2349    0.9428   33.3385 N.pl3   1  UNL1       -0.3046
     31 C           2.3855    2.0850   33.8116 C.3     1  UNL1        0.1081
     32 C           2.4966    2.5657   35.2282 C.3     1  UNL1        0.0939
     33 N           3.4570    1.9042   36.1716 N.3     1  UNL1       -0.2677
     34 C           4.3064    0.7620   35.6984 C.3     1  UNL1        0.0939
     35 C           4.1954    0.2813   34.2819 C.3     1  UNL1        0.1081
     36 C           3.5680    2.3849   37.5881 C.3     1  UNL1        0.1017
     37 C           2.6947    1.7899   38.6526 C.3     1  UNL1        0.1265
     38 C           1.3644    2.4092   38.9643 C.3     1  UNL1        0.0332
     39 O           3.1515    0.5757   39.4055 O.3     1  UNL1       -0.3830
     40 H           2.4743    0.3225   40.0523 H       1  UNL1        0.2104
     41 C          -0.5533    0.0247   28.7647 C.3     1  UNL1        0.2525
     42 O           0.6993    0.8489   28.8040 O.3     1  UNL1       -0.4701
@<TRIPOS>BOND
     1    41    42    1
     2    42    24    1
     3    24    25   ar
     4    25    26   ar
     5    26    30    1
     6    30    31    1
     7    31    32    1
     8    32    33    1
     9    33    36    1
    10    36    37    1
    11    37    38    1
    12    37    39    1
    13    33    34    1
    14    34    35    1
    15    26    27   ar
    16    27    28   ar
    17    28    29   ar
    18    29     1    1
    19     1     3    1
    20     3     4   ar
    21     4     5   ar
    22     5     6   ar
    23     6     7   ar
    24     7     8   ar
    25     8     9   ar
    26     9    12    1
    27    12    13   ar
    28    13    14   ar
    29    14    15   ar
    30    15    16   ar
    31    16    17   ar
    32    17    18    1
    33    18    19    1
    34    18    20    1
    35    20    21    1
    36    20    22    2
    37    20    23    2
    38     9    10   ar
    39    10    11   ar
    40    29    24   ar
    41    11     3   ar
    42    35    30    1
    43    10     6   ar
    44    17    12   ar
    45    39    40    1
    46     1     2    1
@<TRIPOS>MOLECULE
*****
 42 46 0 0 0
SMALL
GASTEIGER

@<TRIPOS>ATOM
      1 N           2.9760    1.7163   25.9962 N.pl3   1  UNL1       -0.2790
      2 H           3.6053    2.2166   26.5645 H       1  UNL1        0.1552
      3 C           3.4348    0.4848   25.2730 C.ar    1  UNL1        0.2383
      4 N           4.2039   -0.5732   26.0070 N.ar    1  UNL1       -0.2093
      5 C           4.6627   -1.8047   25.2838 C.ar    1  UNL1        0.1209
      6 C           4.3522   -1.9780   23.8265 C.ar    1  UNL1        0.1021
      7 C           4.6714   -3.0765   22.8561 C.ar    1  UNL1        0.0223
      8 C           4.0994   -2.6972   21.5223 C.ar    1  UNL1        0.0208
      9 C           3.4268   -1.3644   21.6684 C.ar    1  UNL1        0.0842
     10 N           3.5831   -0.9200   23.0925 N.ar    1  UNL1       -0.2255
     11 N           3.1243    0.3114   23.8157 N.ar    1  UNL1       -0.1295
     12 C           2.7218   -0.6087   20.5813 C.ar    1  UNL1        0.0326
     13 C           1.2495   -0.3419   20.6867 C.ar    1  UNL1        0.0028
     14 C           0.5444    0.4137   19.5996 C.ar    1  UNL1        0.0001
     15 C           1.3116    0.9027   18.4070 C.ar    1  UNL1        0.0013
     16 C           2.7839    0.6358   18.3016 C.ar    1  UNL1        0.0162
     17 C           3.4890   -0.1198   19.3887 C.ar    1  UNL1        0.0699
     18 N           4.9613   -0.3866   19.2832 N.pl3   1  UNL1       -0.1925
     19 C           5.4664   -1.4467   18.3498 C.3     1  UNL1        0.1388
     20 S           5.9284    0.4067   20.1110 S.O2    1  UNL1        0.0588
     21 C           6.8956    1.2000   20.9388 C.3     1  UNL1        0.1999
     22 O           6.7800   -0.8155   20.2873 O.2     1  UNL1       -0.1542
     23 O           5.0768    1.6289   19.9347 O.2     1  UNL1       -0.1542
     24 C           1.2041    3.1921   24.7993 C.ar    1  UNL1        0.1533
     25 C          -0.2134    3.6614   24.6566 C.ar    1  UNL1        0.0527
     26 C          -1.2766    3.1241   25.5682 C.ar    1  UNL1        0.0510
     27 C          -0.9223    2.1177   26.6224 C.ar    1  UNL1        0.0160
     28 C           0.4953    1.6484   26.7651 C.ar    1  UNL1        0.0190
     29 C           1.5585    2.1856   25.8535 C.ar    1  UNL1        0.0850
     30 N          -2.6941    3.5934   25.4255 N.pl3   1  UNL1       -0.3046
     31 C          -3.4524    4.0664   26.6302 C.3     1  UNL1        0.1081
     32 C          -4.8700    4.5357   26.4875 C.3     1  UNL1        0.0939
     33 N          -5.5292    4.5319   25.1401 N.3     1  UNL1       -0.2677
     34 C          -4.7709    4.0589   23.9354 C.3     1  UNL1        0.0939
     35 C          -3.3534    3.5897   24.0781 C.3     1  UNL1        0.1081
     36 C          -6.9468    5.0012   24.9975 C.3     1  UNL1        0.1017
     37 C          -7.5900    5.0438   23.6430 C.3     1  UNL1        0.1265
     38 C          -7.5779    6.3149   22.8466 C.3     1  UNL1        0.0332
     39 O          -8.2453    3.8153   23.0850 O.3     1  UNL1       -0.3830
     40 H          -8.6087    4.0129   22.2077 H       1  UNL1        0.2104
     41 C           2.1176    3.5972   22.4011 C.3     1  UNL1        0.2525
     42 O           2.2674    3.7293   23.8877 O.3     1  UNL1       -0.4701
@<TRIPOS>BOND
     1    41    42    1
     2    42    24    1
     3    24    25   ar
     4    25    26   ar
     5    26    30    1
     6    30    31    1
     7    31    32    1
     8    32    33    1
     9    33    36    1
    10    36    37    1
    11    37    38    1
    12    37    39    1
    13    33    34    1
    14    34    35    1
    15    26    27   ar
    16    27    28   ar
    17    28    29   ar
    18    29     1    1
    19     1     3    1
    20     3     4   ar
    21     4     5   ar
    22     5     6   ar
    23     6     7   ar
    24     7     8   ar
    25     8     9   ar
    26     9    12    1
    27    12    13   ar
    28    13    14   ar
    29    14    15   ar
    30    15    16   ar
    31    16    17   ar
    32    17    18    1
    33    18    19    1
    34    18    20    1
    35    20    21    1
    36    20    22    2
    37    20    23    2
    38     9    10   ar
    39    10    11   ar
    40    29    24   ar
    41    11     3   ar
    42    35    30    1
    43    10     6   ar
    44    17    12   ar
    45    39    40    1
    46     1     2    1
@<TRIPOS>MOLECULE
*****
 42 46 0 0 0
SMALL
GASTEIGER

@<TRIPOS>ATOM
      1 N           3.2461   -0.4356   17.8997 N.pl3   1  UNL1       -0.2790
      2 H           2.9916   -0.6261   16.9679 H       1  UNL1        0.1552
      3 C           4.5860   -0.8704   18.4152 C.ar    1  UNL1        0.2383
      4 N           5.5629   -1.5391   17.4941 N.ar    1  UNL1       -0.2093
      5 C           6.9028   -1.9739   18.0096 C.ar    1  UNL1        0.1209
      6 C           7.2657   -1.7398   19.4461 C.ar    1  UNL1        0.1021
      7 C           8.5027   -2.0568   20.2333 C.ar    1  UNL1        0.0223
      8 C           8.2902   -1.5839   21.6408 C.ar    1  UNL1        0.0208
      9 C           6.9219   -0.9747   21.7235 C.ar    1  UNL1        0.0842
     10 N           6.2888   -1.0711   20.3671 N.ar    1  UNL1       -0.2255
     11 N           4.9489   -0.6364   19.8517 N.ar    1  UNL1       -0.1295
     12 C           6.2966   -0.3745   22.9477 C.ar    1  UNL1        0.0326
     13 C           6.2767    1.1146   23.1265 C.ar    1  UNL1        0.0028
     14 C           5.6514    1.7148   24.3507 C.ar    1  UNL1        0.0001
     15 C           5.0458    0.8259   25.3962 C.ar    1  UNL1        0.0013
     16 C           5.0657   -0.6633   25.2174 C.ar    1  UNL1        0.0162
     17 C           5.6910   -1.2635   23.9932 C.ar    1  UNL1        0.0699
     18 N           5.7108   -2.7526   23.8145 N.pl3   1  UNL1       -0.1925
     19 C           6.4453   -3.6162   24.7968 C.3     1  UNL1        0.1388
     20 S           4.9962   -3.3783   22.6535 S.O2    1  UNL1        0.0588
     21 C           4.2816   -4.0039   21.4926 C.3     1  UNL1        0.1999
     22 O           6.1527   -4.3102   22.4439 O.2     1  UNL1       -0.1542
     23 O           3.8397   -2.4463   22.8632 O.2     1  UNL1       -0.1542
     24 C           2.3446    1.7853   18.9022 C.ar    1  UNL1        0.1533
     25 C           1.3924    2.5102   19.8065 C.ar    1  UNL1        0.0527
     26 C           0.3894    1.7393   20.6124 C.ar    1  UNL1        0.0510
     27 C           0.3386    0.2434   20.5142 C.ar    1  UNL1        0.0160
     28 C           1.2908   -0.4816   19.6099 C.ar    1  UNL1        0.0190
     29 C           2.2938    0.2893   18.8039 C.ar    1  UNL1        0.0850
     30 N          -0.5629    2.4642   21.5167 N.pl3   1  UNL1       -0.3046
     31 C          -0.2398    2.6242   22.9727 C.3     1  UNL1        0.1081
     32 C          -1.1922    3.3492   23.8769 C.3     1  UNL1        0.0939
     33 N          -2.4674    3.9142   23.3251 N.3     1  UNL1       -0.2677
     34 C          -2.7904    3.7542   21.8691 C.3     1  UNL1        0.0939
     35 C          -1.8382    3.0292   20.9649 C.3     1  UNL1        0.1081
     36 C          -3.4196    4.6391   24.2294 C.3     1  UNL1        0.1017
     37 C          -4.1603    3.8880   25.2957 C.3     1  UNL1        0.1265
     38 C          -3.6147    3.8346   26.6920 C.3     1  UNL1        0.0332
     39 O          -5.4465    3.1902   24.9659 O.3     1  UNL1       -0.3830
     40 H          -5.7924    2.7566   25.7616 H       1  UNL1        0.2104
     41 C           4.6929    2.8741   18.6787 C.3     1  UNL1        0.2525
     42 O           3.3477    2.5562   18.0963 O.3     1  UNL1       -0.4701
@<TRIPOS>BOND
     1    41    42    1
     2    42    24    1
     3    24    25   ar
     4    25    26   ar
     5    26    30    1
     6    30    31    1
     7    31    32    1
     8    32    33    1
     9    33    36    1
    10    36    37    1
    11    37    38    1
    12    37    39    1
    13    33    34    1
    14    34    35    1
    15    26    27   ar
    16    27    28   ar
    17    28    29   ar
    18    29     1    1
    19     1     3    1
    20     3     4   ar
    21     4     5   ar
    22     5     6   ar
    23     6     7   ar
    24     7     8   ar
    25     8     9   ar
    26     9    12    1
    27    12    13   ar
    28    13    14   ar
    29    14    15   ar
    30    15    16   ar
    31    16    17   ar
    32    17    18    1
    33    18    19    1
    34    18    20    1
    35    20    21    1
    36    20    22    2
    37    20    23    2
    38     9    10   ar
    39    10    11   ar
    40    29    24   ar
    41    11     3   ar
    42    35    30    1
    43    10     6   ar
    44    17    12   ar
    45    39    40    1
    46     1     2    1
@<TRIPOS>MOLECULE
*****
 42 46 0 0 0
SMALL
GASTEIGER

@<TRIPOS>ATOM
      1 N           2.6753    1.0706   26.3601 N.pl3   1  UNL1       -0.2790
      2 H           3.1477    1.3540   27.1761 H       1  UNL1        0.1552
      3 C           3.2523   -0.0121   25.4971 C.ar    1  UNL1        0.2383
      4 N           4.0822   -1.0995   26.1126 N.ar    1  UNL1       -0.2093
      5 C           4.6592   -2.1822   25.2496 C.ar    1  UNL1        0.1209
      6 C           4.4062   -2.1775   23.7711 C.ar    1  UNL1        0.1021
      7 C           4.8407   -3.1056   22.6755 C.ar    1  UNL1        0.0223
      8 C           4.2792   -2.5917   21.3830 C.ar    1  UNL1        0.0208
      9 C           3.4978   -1.3462   21.6797 C.ar    1  UNL1        0.0842
     10 N           3.5763   -1.0902   23.1556 N.ar    1  UNL1       -0.2255
     11 N           2.9994   -0.0075   24.0186 N.ar    1  UNL1       -0.1295
     12 C           2.7663   -0.5043   20.6766 C.ar    1  UNL1        0.0326
     13 C           1.2675   -0.5337   20.6233 C.ar    1  UNL1        0.0028
     14 C           0.5360    0.3081   19.6202 C.ar    1  UNL1        0.0001
     15 C           1.3033    1.1794   18.6703 C.ar    1  UNL1        0.0013
     16 C           2.8020    1.2087   18.7236 C.ar    1  UNL1        0.0162
     17 C           3.5335    0.3669   19.7267 C.ar    1  UNL1        0.0699
     18 N           5.0323    0.3963   19.7799 N.pl3   1  UNL1       -0.1925
     19 C           5.7310    0.7089   21.0699 C.3     1  UNL1        0.1388
     20 S           5.8323    0.1132   18.5431 S.O2    1  UNL1        0.0588
     21 C           6.6324   -0.1700   17.3063 C.3     1  UNL1        0.1999
     22 O           6.4041    1.4989   18.5957 O.2     1  UNL1       -0.1542
     23 O           5.2605   -1.2726   18.4904 O.2     1  UNL1       -0.1542
     24 C           0.1758    1.5700   26.8634 C.ar    1  UNL1        0.1533
     25 C          -1.1209    2.2210   26.4832 C.ar    1  UNL1        0.0527
     26 C          -1.2150    3.0237   25.2196 C.ar    1  UNL1        0.0510
     27 C          -0.0123    3.1754   24.3362 C.ar    1  UNL1        0.0160
     28 C           1.2845    2.5244   24.7163 C.ar    1  UNL1        0.0190
     29 C           1.3786    1.7217   25.9800 C.ar    1  UNL1        0.0850
     30 N          -2.5117    3.6748   24.8394 N.pl3   1  UNL1       -0.3046
     31 C          -3.7673    3.3391   25.5883 C.3     1  UNL1        0.1081
     32 C          -5.0641    3.9902   25.2080 C.3     1  UNL1        0.0939
     33 N          -5.1052    4.9769   24.0790 N.3     1  UNL1       -0.2677
     34 C          -3.8496    5.3125   23.3302 C.3     1  UNL1        0.0939
     35 C          -2.5529    4.6615   23.7104 C.3     1  UNL1        0.1081
     36 C          -6.4020    5.6279   23.6988 C.3     1  UNL1        0.1017
     37 C          -7.3034    4.9737   22.6942 C.3     1  UNL1        0.1265
     38 C          -7.3270    5.4635   21.2765 C.3     1  UNL1        0.0332
     39 O          -8.1814    3.8297   23.1070 O.3     1  UNL1       -0.3830
     40 H          -8.6962    3.5252   22.3434 H       1  UNL1        0.2104
     41 C          -0.8877   -0.0800   28.5653 C.3     1  UNL1        0.2525
     42 O           0.2699    0.7672   28.1270 O.3     1  UNL1       -0.4701
@<TRIPOS>BOND
     1    41    42    1
     2    42    24    1
     3    24    25   ar
     4    25    26   ar
     5    26    30    1
     6    30    31    1
     7    31    32    1
     8    32    33    1
     9    33    36    1
    10    36    37    1
    11    37    38    1
    12    37    39    1
    13    33    34    1
    14    34    35    1
    15    26    27   ar
    16    27    28   ar
    17    28    29   ar
    18    29     1    1
    19     1     3    1
    20     3     4   ar
    21     4     5   ar
    22     5     6   ar
    23     6     7   ar
    24     7     8   ar
    25     8     9   ar
    26     9    12    1
    27    12    13   ar
    28    13    14   ar
    29    14    15   ar
    30    15    16   ar
    31    16    17   ar
    32    17    18    1
    33    18    19    1
    34    18    20    1
    35    20    21    1
    36    20    22    2
    37    20    23    2
    38     9    10   ar
    39    10    11   ar
    40    29    24   ar
    41    11     3   ar
    42    35    30    1
    43    10     6   ar
    44    17    12   ar
    45    39    40    1
    46     1     2    1
@<TRIPOS>MOLECULE
*****
 42 46 0 0 0
SMALL
GASTEIGER

@<TRIPOS>ATOM
      1 N           2.1593    0.1558   25.4057 N.pl3   1  UNL1       -0.2790
      2 H           2.1325   -0.7630   25.7582 H       1  UNL1        0.1552
      3 C           3.2881    0.5851   24.5159 C.ar    1  UNL1        0.2383
      4 N           4.0396    1.8484   24.8143 N.ar    1  UNL1       -0.2093
      5 C           5.1683    2.2776   23.9245 C.ar    1  UNL1        0.1209
      6 C           5.5454    1.4435   22.7362 C.ar    1  UNL1        0.1021
      7 C           6.6046    1.6116   21.6873 C.ar    1  UNL1        0.0223
      8 C           6.5076    0.4521   20.7407 C.ar    1  UNL1        0.0208
      9 C           5.3885   -0.4326   21.2045 C.ar    1  UNL1        0.0842
     10 N           4.7939    0.1801   22.4378 N.ar    1  UNL1       -0.2255
     11 N           3.6652   -0.2491   23.3276 N.ar    1  UNL1       -0.1295
     12 C           4.9423   -1.7063   20.5499 C.ar    1  UNL1        0.0326
     13 C           5.8229   -2.9198   20.5923 C.ar    1  UNL1        0.0028
     14 C           5.3768   -4.1936   19.9378 C.ar    1  UNL1        0.0001
     15 C           4.0500   -4.2539   19.2407 C.ar    1  UNL1        0.0013
     16 C           3.1694   -3.0403   19.1982 C.ar    1  UNL1        0.0162
     17 C           3.6155   -1.7666   19.8528 C.ar    1  UNL1        0.0699
     18 N           2.7348   -0.5531   19.8103 N.pl3   1  UNL1       -0.1925
     19 C           1.4211   -0.5541   20.5342 C.3     1  UNL1        0.1388
     20 S           3.1679    0.6614   19.0438 S.O2    1  UNL1        0.0588
     21 C           3.6010    1.8759   18.2774 C.3     1  UNL1        0.1999
     22 O           2.8093    1.5280   20.2144 O.2     1  UNL1       -0.1542
     23 O           3.5266   -0.2052   17.8732 O.2     1  UNL1       -0.1542
     24 C           0.8572    1.5257   27.1884 C.ar    1  UNL1        0.1533
     25 C          -0.2306    2.4963   27.5411 C.ar    1  UNL1        0.0527
     26 C          -1.1041    3.0678   26.4639 C.ar    1  UNL1        0.0510
     27 C          -0.8898    2.6687   25.0339 C.ar    1  UNL1        0.0160
     28 C           0.1981    1.6980   24.6812 C.ar    1  UNL1        0.0190
     29 C           1.0715    1.1265   25.7584 C.ar    1  UNL1        0.0850
     30 N          -2.1919    4.0385   26.8165 N.pl3   1  UNL1       -0.3046
     31 C          -3.6251    3.6912   26.5417 C.3     1  UNL1        0.1081
     32 C          -4.7129    4.6620   26.8945 C.3     1  UNL1        0.0939
     33 N          -4.3676    5.9799   27.5220 N.3     1  UNL1       -0.2677
     34 C          -2.9344    6.3272   27.7968 C.3     1  UNL1        0.0939
     35 C          -1.8466    5.3565   27.4441 C.3     1  UNL1        0.1081
     36 C          -5.4554    6.9506   27.8747 C.3     1  UNL1        0.1017
     37 C          -6.8797    6.4862   27.9493 C.3     1  UNL1        0.1265
     38 C          -7.7991    6.6959   26.7826 C.3     1  UNL1        0.0332
     39 O          -7.3848    5.8122   29.1905 O.3     1  UNL1       -0.3830
     40 H          -8.3186    5.5772   29.0736 H       1  UNL1        0.2104
     41 C           2.2619    1.8430   29.3508 C.3     1  UNL1        0.2525
     42 O           1.7306    0.9541   28.2656 O.3     1  UNL1       -0.4701
@<TRIPOS>BOND
     1    41    42    1
     2    42    24    1
     3    24    25   ar
     4    25    26   ar
     5    26    30    1
     6    30    31    1
     7    31    32    1
     8    32    33    1
     9    33    36    1
    10    36    37    1
    11    37    38    1
    12    37    39    1
    13    33    34    1
    14    34    35    1
    15    26    27   ar
    16    27    28   ar
    17    28    29   ar
    18    29     1    1
    19     1     3    1
    20     3     4   ar
    21     4     5   ar
    22     5     6   ar
    23     6     7   ar
    24     7     8   ar
    25     8     9   ar
    26     9    12    1
    27    12    13   ar
    28    13    14   ar
    29    14    15   ar
    30    15    16   ar
    31    16    17   ar
    32    17    18    1
    33    18    19    1
    34    18    20    1
    35    20    21    1
    36    20    22    2
    37    20    23    2
    38     9    10   ar
    39    10    11   ar
    40    29    24   ar
    41    11     3   ar
    42    35    30    1
    43    10     6   ar
    44    17    12   ar
    45    39    40    1
    46     1     2    1
