@<TRIPOS>MOLECULE
*****
 36 39 0 0 0
SMALL
GASTEIGER

@<TRIPOS>ATOM
      1 N          -8.9691  -16.7902   26.0103 N.3     1  UNL1       -0.2685
      2 C          -9.1543  -15.7954   24.9031 C.3     1  UNL1        0.1035
      3 C          -9.8306  -16.2081   23.6294 C.3     1  UNL1        0.1470
      4 C         -10.5070  -16.6207   22.3557 C.3     1  UNL1        0.1036
      5 N         -10.9982  -18.0282   22.1893 N.3     1  UNL1       -0.2653
      6 C         -10.8130  -19.0231   23.2966 C.3     1  UNL1        0.1036
      7 C         -10.1366  -18.6104   24.5703 C.3     1  UNL1        0.1470
      8 C          -9.4603  -18.1977   25.8439 C.3     1  UNL1        0.1035
      9 O         -10.3218  -17.6156   23.4630 O.3     1  UNL1       -0.3530
     10 C          -8.2928  -16.3775   27.2840 C.3     1  UNL1        0.0737
     11 C          -7.2636  -15.2865   27.2673 C.3     1  UNL1        0.0362
     12 C          -6.0026  -15.4570   26.4730 C.3     1  UNL1        0.0929
     13 N          -5.9946  -15.1536   25.0041 N.3     1  UNL1       -0.1793
     14 H          -6.9102  -15.4217   24.6431 H       1  UNL1        0.1488
     15 S          -4.9729  -15.7935   24.1116 S.O2    1  UNL1        0.0602
     16 O          -5.2445  -14.7596   23.0594 O.2     1  UNL1       -0.1530
     17 O          -4.7013  -16.8273   25.1639 O.2     1  UNL1       -0.1530
     18 C          -1.9076  -17.7134   21.4343 C.ar    1  UNL1        0.0685
     19 C          -2.0223  -16.2189   21.4919 C.ar    1  UNL1        0.0116
     20 C          -3.0440  -15.5789   22.3843 C.ar    1  UNL1        0.0206
     21 C          -3.9511  -16.4334   23.2191 C.ar    1  UNL1        0.1220
     22 C          -3.8364  -17.9279   23.1615 C.ar    1  UNL1        0.0206
     23 C          -2.8147  -18.5679   22.2691 C.ar    1  UNL1        0.0116
     24 N           0.1359  -18.9932   19.6494 N.1     1  UNL1       -0.1908
     25 C          -0.8858  -18.3533   20.5418 C.1     1  UNL1        0.1004
     26 C         -11.6745  -18.4409   20.9157 C.3     1  UNL1        0.1202
     27 C         -10.8547  -18.8908   19.7428 C.3     1  UNL1        0.2229
     28 O          -9.4487  -18.3954   19.5763 O.3     1  UNL1       -0.4694
     29 C          -8.2934  -19.3135   19.8449 C.ar    1  UNL1        0.1930
     30 C          -7.3257  -18.9988   20.9469 C.ar    1  UNL1        0.1761
     31 F          -7.5133  -17.7659   21.7804 F       1  UNL1       -0.2009
     32 C          -6.1703  -19.9170   21.2155 C.ar    1  UNL1        0.0329
     33 C          -5.9826  -21.1499   20.3820 C.ar    1  UNL1        0.0048
     34 C          -6.9504  -21.4647   19.2800 C.ar    1  UNL1        0.0329
     35 C          -8.1057  -20.5465   19.0114 C.ar    1  UNL1        0.1761
     36 F          -9.0734  -20.8613   17.9094 F       1  UNL1       -0.2009
@<TRIPOS>BOND
     1    24    25    3
     2    25    18    1
     3    18    19   ar
     4    19    20   ar
     5    20    21   ar
     6    21    15    1
     7    15    16    2
     8    15    17    2
     9    15    13    1
    10    13    12    1
    11    12    11    1
    12    11    10    1
    13    10     1    1
    14     1     2    1
    15     2     3    1
    16     3     4    1
    17     4     5    1
    18     5    26    1
    19    26    27    1
    20    27    28    1
    21    28    29    1
    22    29    30   ar
    23    30    31    1
    24    30    32   ar
    25    32    33   ar
    26    33    34   ar
    27    34    35   ar
    28    35    36    1
    29     5     6    1
    30     6     7    1
    31     7     8    1
    32     7     9    1
    33    21    22   ar
    34    22    23   ar
    35    23    18   ar
    36     8     1    1
    37     9     3    1
    38    35    29   ar
    39    13    14    1
@<TRIPOS>MOLECULE
*****
 36 39 0 0 0
SMALL
GASTEIGER

@<TRIPOS>ATOM
      1 N          -8.9026  -16.3118   25.9822 N.3     1  UNL1       -0.2685
      2 C          -9.2117  -17.7778   26.0545 C.3     1  UNL1        0.1035
      3 C          -9.8242  -18.4741   24.8756 C.3     1  UNL1        0.1470
      4 C         -10.4368  -19.1705   23.6966 C.3     1  UNL1        0.1036
      5 N         -10.7401  -18.4008   22.4454 N.3     1  UNL1       -0.2653
      6 C         -10.4310  -16.9347   22.3731 C.3     1  UNL1        0.1036
      7 C          -9.8185  -16.2384   23.5521 C.3     1  UNL1        0.1470
      8 C          -9.2060  -15.5421   24.7310 C.3     1  UNL1        0.1035
      9 O         -10.1276  -17.7044   23.6244 O.3     1  UNL1       -0.3530
     10 C          -8.2901  -15.6154   27.1612 C.3     1  UNL1        0.0737
     11 C          -6.8282  -15.7808   27.4536 C.3     1  UNL1        0.0362
     12 C          -5.8065  -15.1937   26.5253 C.3     1  UNL1        0.0929
     13 N          -6.0306  -15.2319   25.0427 N.3     1  UNL1       -0.1793
     14 H          -6.8996  -15.7435   24.8893 H       1  UNL1        0.1488
     15 S          -5.0003  -15.8494   24.1442 S.O2    1  UNL1        0.0602
     16 O          -4.7364  -16.9075   25.1740 O.2     1  UNL1       -0.1530
     17 O          -5.2643  -14.7912   23.1144 O.2     1  UNL1       -0.1530
     18 C          -1.9095  -17.7015   21.4486 C.ar    1  UNL1        0.0685
     19 C          -2.7570  -18.5728   22.3275 C.ar    1  UNL1        0.0116
     20 C          -3.7873  -17.9555   23.2260 C.ar    1  UNL1        0.0206
     21 C          -3.9700  -16.4668   23.2456 C.ar    1  UNL1        0.1220
     22 C          -3.1225  -15.5955   22.3667 C.ar    1  UNL1        0.0206
     23 C          -2.0922  -16.2128   21.4682 C.ar    1  UNL1        0.0116
     24 N           0.1511  -18.9363   19.6516 N.1     1  UNL1       -0.1908
     25 C          -0.8792  -18.3189   20.5500 C.1     1  UNL1        0.1004
     26 C         -11.3526  -19.0971   21.2664 C.3     1  UNL1        0.1202
     27 C         -10.7813  -18.8927   19.8946 C.3     1  UNL1        0.2229
     28 O          -9.3808  -18.3801   19.7342 O.3     1  UNL1       -0.4694
     29 C          -8.2160  -19.3001   19.9506 C.ar    1  UNL1        0.1930
     30 C          -8.0396  -20.5055   19.0754 C.ar    1  UNL1        0.1761
     31 F          -9.0279  -20.7909   17.9838 F       1  UNL1       -0.2009
     32 C          -6.8748  -21.4255   19.2919 C.ar    1  UNL1        0.0329
     33 C          -5.8864  -21.1401   20.3835 C.ar    1  UNL1        0.0048
     34 C          -6.0628  -19.9347   21.2587 C.ar    1  UNL1        0.0329
     35 C          -7.2276  -19.0147   21.0423 C.ar    1  UNL1        0.1761
     36 F          -7.4040  -17.8093   21.9175 F       1  UNL1       -0.2009
@<TRIPOS>BOND
     1    24    25    3
     2    25    18    1
     3    18    19   ar
     4    19    20   ar
     5    20    21   ar
     6    21    15    1
     7    15    16    2
     8    15    17    2
     9    15    13    1
    10    13    12    1
    11    12    11    1
    12    11    10    1
    13    10     1    1
    14     1     2    1
    15     2     3    1
    16     3     4    1
    17     4     5    1
    18     5    26    1
    19    26    27    1
    20    27    28    1
    21    28    29    1
    22    29    30   ar
    23    30    31    1
    24    30    32   ar
    25    32    33   ar
    26    33    34   ar
    27    34    35   ar
    28    35    36    1
    29     5     6    1
    30     6     7    1
    31     7     8    1
    32     7     9    1
    33    21    22   ar
    34    22    23   ar
    35    23    18   ar
    36     8     1    1
    37     9     3    1
    38    35    29   ar
    39    13    14    1
@<TRIPOS>MOLECULE
*****
 36 39 0 0 0
SMALL
GASTEIGER

@<TRIPOS>ATOM
      1 N         -10.4791  -18.3562   21.4884 N.3     1  UNL1       -0.2685
      2 C         -10.4655  -19.3832   22.5816 C.3     1  UNL1        0.1035
      3 C         -10.0072  -19.0062   23.9591 C.3     1  UNL1        0.1470
      4 C          -9.5488  -18.6292   25.3368 C.3     1  UNL1        0.1036
      5 N          -9.1040  -17.2252   25.6212 N.3     1  UNL1       -0.2653
      6 C          -9.1176  -16.1982   24.5279 C.3     1  UNL1        0.1036
      7 C          -9.5759  -16.5752   23.1503 C.3     1  UNL1        0.1470
      8 C         -10.0343  -16.9522   21.7728 C.3     1  UNL1        0.1035
      9 O          -9.5624  -17.6022   24.2435 O.3     1  UNL1       -0.3530
     10 C         -10.9375  -18.7332   20.1107 C.3     1  UNL1        0.0737
     11 C         -10.1647  -19.7413   19.3128 C.3     1  UNL1        0.0362
     12 C          -8.6718  -19.6341   19.2134 C.3     1  UNL1        0.0929
     13 N          -7.8152  -19.9701   20.3981 N.3     1  UNL1       -0.1793
     14 H          -8.2254  -19.4952   21.2022 H       1  UNL1        0.1488
     15 S          -6.3554  -19.6254   20.3899 S.O2    1  UNL1        0.0602
     16 O          -6.6982  -18.1708   20.5189 O.2     1  UNL1       -0.1530
     17 O          -6.0127  -21.0799   20.2608 O.2     1  UNL1       -0.1530
     18 C          -1.9760  -18.5913   20.3652 C.ar    1  UNL1        0.0685
     19 C          -2.5524  -19.3869   21.4987 C.ar    1  UNL1        0.0116
     20 C          -4.0121  -19.7316   21.5069 C.ar    1  UNL1        0.0206
     21 C          -4.8956  -19.2807   20.3817 C.ar    1  UNL1        0.1220
     22 C          -4.3192  -18.4850   19.2482 C.ar    1  UNL1        0.0206
     23 C          -2.8594  -18.1403   19.2400 C.ar    1  UNL1        0.0116
     24 N           0.9437  -17.9018   20.3488 N.1     1  UNL1       -0.1908
     25 C          -0.5161  -18.2466   20.3570 C.1     1  UNL1        0.1004
     26 C          -8.6456  -16.8482   26.9987 C.3     1  UNL1        0.1202
     27 C          -7.8717  -15.5809   27.2110 C.3     1  UNL1        0.2229
     28 O          -6.3720  -15.6060   27.1930 O.3     1  UNL1       -0.4694
     29 C          -5.6427  -15.9405   25.9256 C.ar    1  UNL1        0.1930
     30 C          -4.5817  -17.0007   25.9283 C.ar    1  UNL1        0.1761
     31 F          -4.2499  -17.7265   27.1984 F       1  UNL1       -0.2009
     32 C          -3.8524  -17.3351   24.6609 C.ar    1  UNL1        0.0329
     33 C          -4.1842  -16.6094   23.3908 C.ar    1  UNL1        0.0048
     34 C          -5.2453  -15.5491   23.3881 C.ar    1  UNL1        0.0329
     35 C          -5.9745  -15.2147   24.6555 C.ar    1  UNL1        0.1761
     36 F          -7.0356  -14.1544   24.6528 F       1  UNL1       -0.2009
@<TRIPOS>BOND
     1    24    25    3
     2    25    18    1
     3    18    19   ar
     4    19    20   ar
     5    20    21   ar
     6    21    15    1
     7    15    16    2
     8    15    17    2
     9    15    13    1
    10    13    12    1
    11    12    11    1
    12    11    10    1
    13    10     1    1
    14     1     2    1
    15     2     3    1
    16     3     4    1
    17     4     5    1
    18     5    26    1
    19    26    27    1
    20    27    28    1
    21    28    29    1
    22    29    30   ar
    23    30    31    1
    24    30    32   ar
    25    32    33   ar
    26    33    34   ar
    27    34    35   ar
    28    35    36    1
    29     5     6    1
    30     6     7    1
    31     7     8    1
    32     7     9    1
    33    21    22   ar
    34    22    23   ar
    35    23    18   ar
    36     8     1    1
    37     9     3    1
    38    35    29   ar
    39    13    14    1
@<TRIPOS>MOLECULE
*****
 36 39 0 0 0
SMALL
GASTEIGER

@<TRIPOS>ATOM
      1 N         -10.5518  -18.9293   21.9321 N.3     1  UNL1       -0.2685
      2 C         -10.2726  -17.4590   21.8297 C.3     1  UNL1        0.1035
      3 C          -9.7587  -16.7084   23.0224 C.3     1  UNL1        0.1470
      4 C          -9.2448  -15.9577   24.2150 C.3     1  UNL1        0.1036
      5 N          -9.0100  -16.6773   25.5101 N.3     1  UNL1       -0.2653
      6 C          -9.2892  -18.1476   25.6124 C.3     1  UNL1        0.1036
      7 C          -9.8031  -18.8982   24.4198 C.3     1  UNL1        0.1470
      8 C         -10.3170  -19.6488   23.2271 C.3     1  UNL1        0.1035
      9 O          -9.5239  -17.4280   24.3174 O.3     1  UNL1       -0.3530
     10 C         -11.0657  -19.6799   20.7394 C.3     1  UNL1        0.0737
     11 C         -10.2737  -19.6972   19.4657 C.3     1  UNL1        0.0362
     12 C          -8.8207  -19.3245   19.4809 C.3     1  UNL1        0.0929
     13 N          -7.9056  -19.9155   20.5120 N.3     1  UNL1       -0.1793
     14 H          -8.2424  -19.5983   21.4210 H       1  UNL1        0.1488
     15 S          -6.4357  -19.6202   20.4676 S.O2    1  UNL1        0.0602
     16 O          -6.7248  -18.1572   20.6292 O.2     1  UNL1       -0.1530
     17 O          -6.1466  -21.0831   20.3060 O.2     1  UNL1       -0.1530
     18 C          -2.0258  -18.7343   20.3346 C.ar    1  UNL1        0.0685
     19 C          -2.9438  -18.1270   19.3157 C.ar    1  UNL1        0.0116
     20 C          -4.4138  -18.4222   19.3600 C.ar    1  UNL1        0.0206
     21 C          -4.9657  -19.3248   20.4233 C.ar    1  UNL1        0.1220
     22 C          -4.0476  -19.9322   21.4423 C.ar    1  UNL1        0.0206
     23 C          -2.5777  -19.6369   21.3979 C.ar    1  UNL1        0.0116
     24 N           0.9142  -18.1437   20.2460 N.1     1  UNL1       -0.1908
     25 C          -0.5557  -18.4390   20.2903 C.1     1  UNL1        0.1004
     26 C          -8.4961  -15.9267   26.7027 C.3     1  UNL1        0.1202
     27 C          -7.2275  -16.3629   27.3739 C.3     1  UNL1        0.2229
     28 O          -5.9227  -15.7255   26.9983 O.3     1  UNL1       -0.4694
     29 C          -5.2467  -16.1018   25.7133 C.ar    1  UNL1        0.1930
     30 C          -5.6196  -15.4060   24.4378 C.ar    1  UNL1        0.1761
     31 F          -6.6686  -14.3339   24.4474 F       1  UNL1       -0.2009
     32 C          -4.9435  -15.7823   23.1528 C.ar    1  UNL1        0.0329
     33 C          -3.8945  -16.8545   23.1432 C.ar    1  UNL1        0.0048
     34 C          -3.5216  -17.5503   24.4186 C.ar    1  UNL1        0.0329
     35 C          -4.1976  -17.1740   25.7036 C.ar    1  UNL1        0.1761
     36 F          -3.8247  -17.8698   26.9791 F       1  UNL1       -0.2009
@<TRIPOS>BOND
     1    24    25    3
     2    25    18    1
     3    18    19   ar
     4    19    20   ar
     5    20    21   ar
     6    21    15    1
     7    15    16    2
     8    15    17    2
     9    15    13    1
    10    13    12    1
    11    12    11    1
    12    11    10    1
    13    10     1    1
    14     1     2    1
    15     2     3    1
    16     3     4    1
    17     4     5    1
    18     5    26    1
    19    26    27    1
    20    27    28    1
    21    28    29    1
    22    29    30   ar
    23    30    31    1
    24    30    32   ar
    25    32    33   ar
    26    33    34   ar
    27    34    35   ar
    28    35    36    1
    29     5     6    1
    30     6     7    1
    31     7     8    1
    32     7     9    1
    33    21    22   ar
    34    22    23   ar
    35    23    18   ar
    36     8     1    1
    37     9     3    1
    38    35    29   ar
    39    13    14    1
@<TRIPOS>MOLECULE
*****
 36 39 0 0 0
SMALL
GASTEIGER

@<TRIPOS>ATOM
      1 N          -7.2349  -15.7181   25.1518 N.3     1  UNL1       -0.2685
      2 C          -6.9430  -15.3847   23.7188 C.3     1  UNL1        0.1035
      3 C          -7.9865  -15.6181   22.6669 C.3     1  UNL1        0.1470
      4 C          -9.0301  -15.8515   21.6149 C.3     1  UNL1        0.1036
      5 N         -10.3655  -16.4183   21.9960 N.3     1  UNL1       -0.2653
      6 C         -10.6574  -16.7518   23.4291 C.3     1  UNL1        0.1036
      7 C          -9.6139  -16.5184   24.4810 C.3     1  UNL1        0.1470
      8 C          -8.5704  -16.2850   25.5329 C.3     1  UNL1        0.1035
      9 O          -9.3220  -16.1849   23.0480 O.3     1  UNL1       -0.3530
     10 C          -6.1914  -15.4847   26.2038 C.3     1  UNL1        0.0737
     11 C          -4.7400  -15.4526   25.8264 C.3     1  UNL1        0.0362
     12 C          -3.9892  -16.7353   25.6234 C.3     1  UNL1        0.0929
     13 N          -4.4823  -17.7435   24.6283 N.3     1  UNL1       -0.1793
     14 H          -4.3162  -18.6641   25.0348 H       1  UNL1        0.1488
     15 S          -3.9086  -17.7721   23.2426 S.O2    1  UNL1        0.0602
     16 O          -3.9197  -19.2718   23.2690 O.2     1  UNL1       -0.1530
     17 O          -3.8976  -16.2724   23.2162 O.2     1  UNL1       -0.1530
     18 C          -2.1875  -17.8578   19.0857 C.ar    1  UNL1        0.0685
     19 C          -3.3268  -18.7651   19.4445 C.ar    1  UNL1        0.0116
     20 C          -3.9005  -18.7365   20.8302 C.ar    1  UNL1        0.0206
     21 C          -3.3349  -17.8007   21.8569 C.ar    1  UNL1        0.1220
     22 C          -2.1956  -16.8935   21.4981 C.ar    1  UNL1        0.0206
     23 C          -1.6219  -16.9220   20.1125 C.ar    1  UNL1        0.0116
     24 N          -1.0400  -17.9150   16.3144 N.1     1  UNL1       -0.1908
     25 C          -1.6138  -17.8864   17.7000 C.1     1  UNL1        0.1004
     26 C         -11.4090  -16.6517   20.9441 C.3     1  UNL1        0.1202
     27 C         -12.0777  -17.9901   20.8349 C.3     1  UNL1        0.2229
     28 O         -11.2891  -19.1890   20.3985 O.3     1  UNL1       -0.4694
     29 C          -9.9451  -19.4641   21.0051 C.ar    1  UNL1        0.1930
     30 C          -8.7061  -19.3470   20.1677 C.ar    1  UNL1        0.1761
     31 F          -8.8111  -18.9549   18.7237 F       1  UNL1       -0.2009
     32 C          -7.3621  -19.6221   20.7744 C.ar    1  UNL1        0.0329
     33 C          -7.2571  -20.0142   22.2184 C.ar    1  UNL1        0.0048
     34 C          -8.4961  -20.1312   23.0558 C.ar    1  UNL1        0.0329
     35 C          -9.8400  -19.8562   22.4492 C.ar    1  UNL1        0.1761
     36 F         -11.0790  -19.9733   23.2865 F       1  UNL1       -0.2009
@<TRIPOS>BOND
     1    24    25    3
     2    25    18    1
     3    18    19   ar
     4    19    20   ar
     5    20    21   ar
     6    21    15    1
     7    15    16    2
     8    15    17    2
     9    15    13    1
    10    13    12    1
    11    12    11    1
    12    11    10    1
    13    10     1    1
    14     1     2    1
    15     2     3    1
    16     3     4    1
    17     4     5    1
    18     5    26    1
    19    26    27    1
    20    27    28    1
    21    28    29    1
    22    29    30   ar
    23    30    31    1
    24    30    32   ar
    25    32    33   ar
    26    33    34   ar
    27    34    35   ar
    28    35    36    1
    29     5     6    1
    30     6     7    1
    31     7     8    1
    32     7     9    1
    33    21    22   ar
    34    22    23   ar
    35    23    18   ar
    36     8     1    1
    37     9     3    1
    38    35    29   ar
    39    13    14    1
@<TRIPOS>MOLECULE
*****
 36 39 0 0 0
SMALL
GASTEIGER

@<TRIPOS>ATOM
      1 N           8.6556   -6.5489   28.8852 N.3     1  UNL1       -0.2685
      2 C           8.0586   -6.1713   30.2084 C.3     1  UNL1        0.1035
      3 C           7.2517   -4.9133   30.3356 C.3     1  UNL1        0.1470
      4 C           6.4448   -3.6552   30.4627 C.3     1  UNL1        0.1036
      5 N           6.2348   -2.7747   29.2666 N.3     1  UNL1       -0.2653
      6 C           6.8318   -3.1523   27.9433 C.3     1  UNL1        0.1036
      7 C           7.6387   -4.4104   27.8162 C.3     1  UNL1        0.1470
      8 C           8.4456   -5.6684   27.6891 C.3     1  UNL1        0.1035
      9 O           7.0418   -4.0328   29.1394 O.3     1  UNL1       -0.3530
     10 C           9.4625   -7.8070   28.7580 C.3     1  UNL1        0.0737
     11 C           9.1637   -8.7816   27.6577 C.3     1  UNL1        0.0362
     12 C           7.8638   -9.5302   27.6513 C.3     1  UNL1        0.0929
     13 N           7.8380  -10.9910   27.9909 N.3     1  UNL1       -0.1793
     14 H           8.4287  -11.4630   27.3064 H       1  UNL1        0.1488
     15 S           6.5336  -11.7310   28.0206 S.O2    1  UNL1        0.0602
     16 O           5.8350  -10.5218   27.4733 O.2     1  UNL1       -0.1530
     17 O           7.2322  -12.9403   28.5679 O.2     1  UNL1       -0.1530
     18 C           2.6205  -13.9514   28.1097 C.ar    1  UNL1        0.0685
     19 C           2.9466  -12.9626   29.1896 C.ar    1  UNL1        0.0116
     20 C           4.2509  -12.2225   29.1599 C.ar    1  UNL1        0.0206
     21 C           5.2292  -12.4712   28.0503 C.ar    1  UNL1        0.1220
     22 C           4.9031  -13.4599   26.9705 C.ar    1  UNL1        0.0206
     23 C           3.5988  -14.2000   27.0002 C.ar    1  UNL1        0.0116
     24 N           0.0118  -15.4316   28.1693 N.1     1  UNL1       -0.1908
     25 C           1.3161  -14.6915   28.1395 C.1     1  UNL1        0.1004
     26 C           5.4279   -1.5167   29.3937 C.3     1  UNL1        0.1202
     27 C           4.6064   -1.0323   28.2359 C.3     1  UNL1        0.2229
     28 O           3.9308    0.3052   28.3031 O.3     1  UNL1       -0.4694
     29 C           2.4431    0.4030   28.1386 C.ar    1  UNL1        0.1930
     30 C           1.8649    1.1007   26.9433 C.ar    1  UNL1        0.1761
     31 F           2.7744    1.7006   25.9124 F       1  UNL1       -0.2009
     32 C           0.3771    1.1985   26.7788 C.ar    1  UNL1        0.0329
     33 C          -0.5325    0.5986   27.8097 C.ar    1  UNL1        0.0048
     34 C           0.0457   -0.0991   29.0051 C.ar    1  UNL1        0.0329
     35 C           1.5334   -0.1969   29.1696 C.ar    1  UNL1        0.1761
     36 F           2.1116   -0.8946   30.3650 F       1  UNL1       -0.2009
@<TRIPOS>BOND
     1    24    25    3
     2    25    18    1
     3    18    19   ar
     4    19    20   ar
     5    20    21   ar
     6    21    15    1
     7    15    16    2
     8    15    17    2
     9    15    13    1
    10    13    12    1
    11    12    11    1
    12    11    10    1
    13    10     1    1
    14     1     2    1
    15     2     3    1
    16     3     4    1
    17     4     5    1
    18     5    26    1
    19    26    27    1
    20    27    28    1
    21    28    29    1
    22    29    30   ar
    23    30    31    1
    24    30    32   ar
    25    32    33   ar
    26    33    34   ar
    27    34    35   ar
    28    35    36    1
    29     5     6    1
    30     6     7    1
    31     7     8    1
    32     7     9    1
    33    21    22   ar
    34    22    23   ar
    35    23    18   ar
    36     8     1    1
    37     9     3    1
    38    35    29   ar
    39    13    14    1
@<TRIPOS>MOLECULE
*****
 36 39 0 0 0
SMALL
GASTEIGER

@<TRIPOS>ATOM
      1 N           6.2707   -0.7766   20.8514 N.3     1  UNL1       -0.2685
      2 C           5.5957   -1.7806   21.7380 C.3     1  UNL1        0.1035
      3 C           4.4094   -1.3758   22.5619 C.3     1  UNL1        0.1470
      4 C           3.2231   -0.9710   23.3859 C.3     1  UNL1        0.1036
      5 N           2.7118    0.4378   23.3231 N.3     1  UNL1       -0.2653
      6 C           3.3869    1.4418   22.4364 C.3     1  UNL1        0.1036
      7 C           4.5732    1.0370   21.6125 C.3     1  UNL1        0.1470
      8 C           5.7595    0.6322   20.7886 C.3     1  UNL1        0.1035
      9 O           3.8982    0.0330   22.4992 O.3     1  UNL1       -0.3530
     10 C           7.4571   -1.1813   20.0274 C.3     1  UNL1        0.0737
     11 C           7.2746   -1.5699   18.5902 C.3     1  UNL1        0.0362
     12 C           6.2621   -2.6122   18.2178 C.3     1  UNL1        0.0929
     13 N           5.0533   -2.2307   17.4157 N.3     1  UNL1       -0.1793
     14 H           5.3897   -1.7101   16.6057 H       1  UNL1        0.1488
     15 S           3.9683   -1.4052   18.0410 S.O2    1  UNL1        0.0602
     16 O           3.6200   -2.5490   18.9467 O.2     1  UNL1       -0.1530
     17 O           4.3166   -0.2614   17.1353 O.2     1  UNL1       -0.1530
     18 C           0.7132    1.0718   19.9169 C.ar    1  UNL1        0.0685
     19 C           0.9245   -0.3465   20.3571 C.ar    1  UNL1        0.0116
     20 C           2.0095   -1.1722   19.7319 C.ar    1  UNL1        0.0206
     21 C           2.8832   -0.5795   18.6664 C.ar    1  UNL1        0.1220
     22 C           2.6719    0.8388   18.2261 C.ar    1  UNL1        0.0206
     23 C           1.5869    1.6644   18.8514 C.ar    1  UNL1        0.0116
     24 N          -1.4569    2.7231   21.1675 N.1     1  UNL1       -0.1908
     25 C          -0.3719    1.8974   20.5422 C.1     1  UNL1        0.1004
     26 C           1.5256    0.8426   24.1470 C.3     1  UNL1        0.1202
     27 C           1.3394    2.2785   24.5391 C.3     1  UNL1        0.2229
     28 O           1.3145    2.6629   25.9887 O.3     1  UNL1       -0.4694
     29 C           0.7971    1.6961   27.0122 C.ar    1  UNL1        0.1930
     30 C          -0.6732    1.6244   27.3005 C.ar    1  UNL1        0.1761
     31 F          -1.6261    2.5195   26.5652 F       1  UNL1       -0.2009
     32 C          -1.1905    0.6575   28.3240 C.ar    1  UNL1        0.0329
     33 C          -0.2376   -0.2376   29.0592 C.ar    1  UNL1        0.0048
     34 C           1.2327   -0.1659   28.7710 C.ar    1  UNL1        0.0329
     35 C           1.7501    0.8009   27.7475 C.ar    1  UNL1        0.1761
     36 F           3.2204    0.8726   27.4593 F       1  UNL1       -0.2009
@<TRIPOS>BOND
     1    24    25    3
     2    25    18    1
     3    18    19   ar
     4    19    20   ar
     5    20    21   ar
     6    21    15    1
     7    15    16    2
     8    15    17    2
     9    15    13    1
    10    13    12    1
    11    12    11    1
    12    11    10    1
    13    10     1    1
    14     1     2    1
    15     2     3    1
    16     3     4    1
    17     4     5    1
    18     5    26    1
    19    26    27    1
    20    27    28    1
    21    28    29    1
    22    29    30   ar
    23    30    31    1
    24    30    32   ar
    25    32    33   ar
    26    33    34   ar
    27    34    35   ar
    28    35    36    1
    29     5     6    1
    30     6     7    1
    31     7     8    1
    32     7     9    1
    33    21    22   ar
    34    22    23   ar
    35    23    18   ar
    36     8     1    1
    37     9     3    1
    38    35    29   ar
    39    13    14    1
@<TRIPOS>MOLECULE
*****
 36 39 0 0 0
SMALL
GASTEIGER

@<TRIPOS>ATOM
      1 N           8.9942   -7.3146   25.2220 N.3     1  UNL1       -0.2685
      2 C           9.5250   -7.5451   23.8382 C.3     1  UNL1        0.1035
      3 C           9.0487   -6.6916   22.7004 C.3     1  UNL1        0.1470
      4 C           8.5724   -5.8380   21.5625 C.3     1  UNL1        0.1036
      5 N           7.5653   -4.7540   21.8086 N.3     1  UNL1       -0.2653
      6 C           7.0344   -4.5235   23.1925 C.3     1  UNL1        0.1036
      7 C           7.5107   -5.3771   24.3303 C.3     1  UNL1        0.1470
      8 C           7.9870   -6.2306   25.4681 C.3     1  UNL1        0.1035
      9 O           8.0416   -5.6076   22.9465 O.3     1  UNL1       -0.3530
     10 C           9.4704   -8.1681   26.3599 C.3     1  UNL1        0.0737
     11 C           8.6292   -8.3111   27.5935 C.3     1  UNL1        0.0362
     12 C           7.3970   -9.1663   27.5661 C.3     1  UNL1        0.0929
     13 N           7.4920  -10.6289   27.8849 N.3     1  UNL1       -0.1793
     14 H           8.0978  -11.0456   27.1779 H       1  UNL1        0.1488
     15 S           6.2491  -11.4670   27.9386 S.O2    1  UNL1        0.0602
     16 O           6.9904  -12.5167   28.7122 O.2     1  UNL1       -0.1530
     17 O           5.5078  -10.4172   27.1650 O.2     1  UNL1       -0.1530
     18 C           2.5205  -13.9811   28.0997 C.ar    1  UNL1        0.0685
     19 C           2.7833  -12.9601   29.1667 C.ar    1  UNL1        0.0116
     20 C           4.0261  -12.1221   29.1130 C.ar    1  UNL1        0.0206
     21 C           5.0062  -12.3050   27.9923 C.ar    1  UNL1        0.1220
     22 C           4.7434  -13.3260   26.9253 C.ar    1  UNL1        0.0206
     23 C           3.5006  -14.1641   26.9790 C.ar    1  UNL1        0.0116
     24 N           0.0347  -15.6572   28.2071 N.1     1  UNL1       -0.1908
     25 C           1.2776  -14.8192   28.1534 C.1     1  UNL1        0.1004
     26 C           7.0890   -3.9005   20.6708 C.3     1  UNL1        0.1202
     27 C           5.6387   -3.5320   20.5655 C.3     1  UNL1        0.2229
     28 O           5.1946   -2.1354   20.8849 O.3     1  UNL1       -0.4694
     29 C           4.2913   -1.4009   19.9392 C.ar    1  UNL1        0.1930
     30 C           2.9592   -0.8989   20.4118 C.ar    1  UNL1        0.1761
     31 F           2.5303   -1.1314   21.8302 F       1  UNL1       -0.2009
     32 C           2.0559   -0.1643   19.4660 C.ar    1  UNL1        0.0329
     33 C           2.4847    0.0682   18.0475 C.ar    1  UNL1        0.0048
     34 C           3.8169   -0.4338   17.5749 C.ar    1  UNL1        0.0329
     35 C           4.7202   -1.1683   18.5206 C.ar    1  UNL1        0.1761
     36 F           6.0523   -1.6703   18.0480 F       1  UNL1       -0.2009
@<TRIPOS>BOND
     1    24    25    3
     2    25    18    1
     3    18    19   ar
     4    19    20   ar
     5    20    21   ar
     6    21    15    1
     7    15    16    2
     8    15    17    2
     9    15    13    1
    10    13    12    1
    11    12    11    1
    12    11    10    1
    13    10     1    1
    14     1     2    1
    15     2     3    1
    16     3     4    1
    17     4     5    1
    18     5    26    1
    19    26    27    1
    20    27    28    1
    21    28    29    1
    22    29    30   ar
    23    30    31    1
    24    30    32   ar
    25    32    33   ar
    26    33    34   ar
    27    34    35   ar
    28    35    36    1
    29     5     6    1
    30     6     7    1
    31     7     8    1
    32     7     9    1
    33    21    22   ar
    34    22    23   ar
    35    23    18   ar
    36     8     1    1
    37     9     3    1
    38    35    29   ar
    39    13    14    1
@<TRIPOS>MOLECULE
*****
 36 39 0 0 0
SMALL
GASTEIGER

@<TRIPOS>ATOM
      1 N           8.7693   -6.5857   26.4914 N.3     1  UNL1       -0.2685
      2 C           7.8128   -6.1168   27.5474 C.3     1  UNL1        0.1035
      3 C           7.1641   -4.7697   27.4269 C.3     1  UNL1        0.1470
      4 C           6.5154   -3.4225   27.3064 C.3     1  UNL1        0.1036
      5 N           6.8233   -2.5444   26.1299 N.3     1  UNL1       -0.2653
      6 C           7.7799   -3.0134   25.0739 C.3     1  UNL1        0.1036
      7 C           8.4285   -4.3605   25.1944 C.3     1  UNL1        0.1470
      8 C           9.0771   -5.7076   25.3149 C.3     1  UNL1        0.1035
      9 O           7.4720   -3.8915   26.2504 O.3     1  UNL1       -0.3530
     10 C           9.4180   -7.9329   26.6119 C.3     1  UNL1        0.0737
     11 C           9.0197   -8.8605   27.7213 C.3     1  UNL1        0.0362
     12 C           7.7434   -9.6426   27.6232 C.3     1  UNL1        0.0929
     13 N           7.7210  -11.0926   28.0067 N.3     1  UNL1       -0.1793
     14 H           8.3227  -11.5817   27.3440 H       1  UNL1        0.1488
     15 S           6.4202  -11.8387   28.0429 S.O2    1  UNL1        0.0602
     16 O           5.7096  -10.6251   27.5212 O.2     1  UNL1       -0.1530
     17 O           7.1309  -13.0523   28.5645 O.2     1  UNL1       -0.1530
     18 C           2.5180  -14.0772   28.1514 C.ar    1  UNL1        0.0685
     19 C           2.7904  -12.9956   29.1544 C.ar    1  UNL1        0.0116
     20 C           4.0911  -12.2494   29.1182 C.ar    1  UNL1        0.0206
     21 C           5.1194  -12.5848   28.0791 C.ar    1  UNL1        0.1220
     22 C           4.8471  -13.6664   27.0761 C.ar    1  UNL1        0.0206
     23 C           3.5464  -14.4126   27.1123 C.ar    1  UNL1        0.0116
     24 N          -0.0835  -15.5694   28.2239 N.1     1  UNL1       -0.1908
     25 C           1.2172  -14.8233   28.1877 C.1     1  UNL1        0.1004
     26 C           6.1747   -1.1973   26.0094 C.3     1  UNL1        0.1202
     27 C           5.1733   -0.9415   24.9222 C.3     1  UNL1        0.2229
     28 O           4.3550   -2.0732   24.3749 O.3     1  UNL1       -0.4694
     29 C           4.1285   -2.1886   22.8966 C.ar    1  UNL1        0.1930
     30 C           4.8004   -3.2805   22.1179 C.ar    1  UNL1        0.1761
     31 F           5.6986   -4.2570   22.8175 F       1  UNL1       -0.2009
     32 C           4.5739   -3.3958   20.6395 C.ar    1  UNL1        0.0329
     33 C           3.6756   -2.4193   19.9400 C.ar    1  UNL1        0.0048
     34 C           3.0038   -1.3274   20.7187 C.ar    1  UNL1        0.0329
     35 C           3.2302   -1.2120   22.1970 C.ar    1  UNL1        0.1761
     36 F           2.5584   -0.1201   22.9757 F       1  UNL1       -0.2009
@<TRIPOS>BOND
     1    24    25    3
     2    25    18    1
     3    18    19   ar
     4    19    20   ar
     5    20    21   ar
     6    21    15    1
     7    15    16    2
     8    15    17    2
     9    15    13    1
    10    13    12    1
    11    12    11    1
    12    11    10    1
    13    10     1    1
    14     1     2    1
    15     2     3    1
    16     3     4    1
    17     4     5    1
    18     5    26    1
    19    26    27    1
    20    27    28    1
    21    28    29    1
    22    29    30   ar
    23    30    31    1
    24    30    32   ar
    25    32    33   ar
    26    33    34   ar
    27    34    35   ar
    28    35    36    1
    29     5     6    1
    30     6     7    1
    31     7     8    1
    32     7     9    1
    33    21    22   ar
    34    22    23   ar
    35    23    18   ar
    36     8     1    1
    37     9     3    1
    38    35    29   ar
    39    13    14    1
