@<TRIPOS>MOLECULE
*****
 39 43 0 0 0
SMALL
GASTEIGER

@<TRIPOS>ATOM
      1 C         -11.9808  -18.8842   23.0360 C.3     1  UNL1        0.0666
      2 S         -11.4468  -19.8458   22.0161 S.3     1  UNL1       -0.0756
      3 C          -8.4764  -20.0131   23.3573 C.3     1  UNL1        0.1340
      4 N          -8.7832  -19.6352   21.9385 N.ar    1  UNL1       -0.2884
      5 C         -10.1485  -19.5583   21.3220 C.ar    1  UNL1        0.1932
      6 N          -9.9876  -19.1434   19.8895 N.ar    1  UNL1       -0.1221
      7 N          -8.5228  -18.9639   19.6206 N.ar    1  UNL1       -0.1282
      8 C          -7.7784  -19.2678   20.8870 C.ar    1  UNL1        0.1668
      9 C          -6.2906  -19.2139   21.0697 C.ar    1  UNL1        0.0359
     10 C          -5.7056  -18.5017   22.2531 C.ar    1  UNL1        0.0027
     11 C          -4.2177  -18.4478   22.4359 C.ar    1  UNL1       -0.0037
     12 C          -3.3149  -19.1061   21.4350 C.ar    1  UNL1       -0.0131
     13 C          -3.8999  -19.8182   20.2515 C.ar    1  UNL1       -0.0037
     14 C          -5.3878  -19.8721   20.0689 C.ar    1  UNL1        0.0027
     15 C          -1.8270  -19.0521   21.6177 C.3     1  UNL1        0.1111
     16 C          -0.9985  -18.1428   20.7594 C.2     1  UNL1        0.2238
     17 N          -1.1352  -16.6550   20.8929 N.am    1  UNL1       -0.3285
     18 O          -0.0331  -18.7212   19.7677 O.2     1  UNL1       -0.2750
     19 H          -1.7688  -16.2753   21.5438 H       1  UNL1        0.1450
     20 H          -0.5914  -16.0582   20.3296 H       1  UNL1        0.1450
     21 C         -13.1007  -17.9537   22.6753 C.3     1  UNL1        0.0294
     22 C         -13.1447  -17.3251   21.3141 C.3     1  UNL1        0.0730
     23 N         -11.9951  -16.4879   20.8371 N.3     1  UNL1       -0.2726
     24 C         -11.8590  -15.8700   19.4771 C.3     1  UNL1        0.0721
     25 C         -10.5595  -15.1219   19.4358 C.3     1  UNL1        0.0190
     26 C          -9.8925  -15.2774   20.7704 C.3     1  UNL1        0.0201
     27 C          -8.6795  -14.4611   20.4355 C.3     1  UNL1        0.0061
     28 C          -8.8156  -15.0790   21.7955 C.3     1  UNL1        0.0237
     29 C         -10.7798  -16.1217   21.6364 C.3     1  UNL1        0.0724
     30 C          -8.2725  -15.3212   23.1726 C.ar    1  UNL1       -0.0225
     31 C          -6.8264  -15.0520   23.4665 C.ar    1  UNL1       -0.0043
     32 C          -6.2832  -15.2941   24.8436 C.ar    1  UNL1        0.0035
     33 C          -7.1862  -15.8056   25.9267 C.ar    1  UNL1        0.0714
     34 C          -8.6323  -16.0748   25.6327 C.ar    1  UNL1        0.0035
     35 C          -9.1754  -15.8326   24.2557 C.ar    1  UNL1       -0.0043
     36 C          -6.6430  -16.0478   27.3037 C.3     1  UNL1        0.4186
     37 F          -6.0998  -16.2900   28.6809 F       1  UNL1       -0.1659
     38 F          -8.0407  -16.1808   27.8316 F       1  UNL1       -0.1659
     39 F          -5.2453  -15.9147   26.7758 F       1  UNL1       -0.1659
@<TRIPOS>BOND
     1     3     4    1
     2     4     5   ar
     3     5     2    1
     4     2     1    1
     5     1    21    1
     6    21    22    1
     7    22    23    1
     8    23    24    1
     9    24    25    1
    10    26    25    1
    11    26    27    1
    12    27    28    1
    13    28    30    1
    14    30    31   ar
    15    31    32   ar
    16    32    33   ar
    17    33    36    1
    18    36    37    1
    19    36    38    1
    20    36    39    1
    21    33    34   ar
    22    34    35   ar
    23    26    29    1
    24     5     6   ar
    25     6     7   ar
    26     7     8   ar
    27     8     9    1
    28     9    10   ar
    29    10    11   ar
    30    11    12   ar
    31    12    15    1
    32    15    16    1
    33    16    17   am
    34    16    18    2
    35    12    13   ar
    36    13    14   ar
    37     8     4   ar
    38    14     9   ar
    39    29    23    1
    40    28    26    1
    41    35    30   ar
    42    17    19    1
    43    17    20    1
@<TRIPOS>MOLECULE
*****
 39 43 0 0 0
SMALL
GASTEIGER

@<TRIPOS>ATOM
      1 C          -4.9056  -20.7893   20.1045 C.3     1  UNL1        0.0666
      2 S          -5.6699  -19.5440   19.7655 S.3     1  UNL1       -0.0756
      3 C          -7.4013  -18.2241   22.1965 C.3     1  UNL1        0.1340
      4 N          -7.9616  -18.9222   20.9929 N.ar    1  UNL1       -0.2884
      5 C          -7.1658  -19.5288   19.8754 C.ar    1  UNL1        0.1932
      6 N          -8.1285  -20.1178   18.8873 N.ar    1  UNL1       -0.1221
      7 N          -9.5193  -19.8751   19.3940 N.ar    1  UNL1       -0.1282
      8 C          -9.4163  -19.1361   20.6953 C.ar    1  UNL1        0.1668
      9 C         -10.5659  -18.6896   21.5491 C.ar    1  UNL1        0.0359
     10 C         -11.5511  -17.6911   21.0180 C.ar    1  UNL1        0.0027
     11 C         -12.7007  -17.2446   21.8718 C.ar    1  UNL1       -0.0037
     12 C         -12.8650  -17.7967   23.2569 C.ar    1  UNL1       -0.0131
     13 C         -11.8797  -18.7952   23.7880 C.ar    1  UNL1       -0.0037
     14 C         -10.7301  -19.2417   22.9341 C.ar    1  UNL1        0.0027
     15 C         -14.0146  -17.3501   24.1107 C.3     1  UNL1        0.1111
     16 C         -14.7461  -18.3442   24.9632 C.2     1  UNL1        0.2238
     17 N         -14.3421  -18.5464   26.3936 N.am    1  UNL1       -0.3285
     18 O         -15.8816  -19.1359   24.3855 O.2     1  UNL1       -0.2750
     19 H         -13.5969  -18.0268   26.7728 H       1  UNL1        0.1450
     20 H         -14.8222  -19.1988   26.9531 H       1  UNL1        0.1450
     21 C          -3.4535  -20.7018   20.4704 C.3     1  UNL1        0.0294
     22 C          -3.0398  -20.0184   21.7400 C.3     1  UNL1        0.0730
     23 N          -2.9161  -18.5241   21.7814 N.3     1  UNL1       -0.2726
     24 C          -1.9822  -17.6934   20.9522 C.3     1  UNL1        0.0721
     25 C          -2.1935  -16.2541   21.3177 C.3     1  UNL1        0.0190
     26 C          -3.2580  -16.1952   22.3728 C.3     1  UNL1        0.0201
     27 C          -3.2462  -14.7029   22.5244 C.3     1  UNL1        0.0061
     28 C          -4.1802  -15.5336   23.3536 C.3     1  UNL1        0.0237
     29 C          -3.7046  -17.5982   22.6595 C.3     1  UNL1        0.0724
     30 C          -5.2518  -15.6313   24.3986 C.ar    1  UNL1       -0.0225
     31 C          -6.6905  -15.4445   24.0174 C.ar    1  UNL1       -0.0043
     32 C          -7.7621  -15.5422   25.0624 C.ar    1  UNL1        0.0035
     33 C          -7.3950  -15.8267   26.4887 C.ar    1  UNL1        0.0714
     34 C          -5.9563  -16.0135   26.8700 C.ar    1  UNL1        0.0035
     35 C          -4.8847  -15.9158   25.8249 C.ar    1  UNL1       -0.0043
     36 C          -8.4666  -15.9243   27.5337 C.3     1  UNL1        0.4186
     37 F          -9.5383  -16.0221   28.5788 F       1  UNL1       -0.1659
     38 F          -8.2751  -14.4741   27.8656 F       1  UNL1       -0.1659
     39 F          -8.6581  -17.3746   27.2018 F       1  UNL1       -0.1659
@<TRIPOS>BOND
     1     3     4    1
     2     4     5   ar
     3     5     2    1
     4     2     1    1
     5     1    21    1
     6    21    22    1
     7    22    23    1
     8    23    24    1
     9    24    25    1
    10    26    25    1
    11    26    27    1
    12    27    28    1
    13    28    30    1
    14    30    31   ar
    15    31    32   ar
    16    32    33   ar
    17    33    36    1
    18    36    37    1
    19    36    38    1
    20    36    39    1
    21    33    34   ar
    22    34    35   ar
    23    26    29    1
    24     5     6   ar
    25     6     7   ar
    26     7     8   ar
    27     8     9    1
    28     9    10   ar
    29    10    11   ar
    30    11    12   ar
    31    12    15    1
    32    15    16    1
    33    16    17   am
    34    16    18    2
    35    12    13   ar
    36    13    14   ar
    37     8     4   ar
    38    14     9   ar
    39    29    23    1
    40    28    26    1
    41    35    30   ar
    42    17    19    1
    43    17    20    1
@<TRIPOS>MOLECULE
*****
 39 43 0 0 0
SMALL
GASTEIGER

@<TRIPOS>ATOM
      1 C          -1.7115  -18.4635   21.9310 C.3     1  UNL1        0.0666
      2 S          -2.4014  -19.3774   20.9620 S.3     1  UNL1       -0.0756
      3 C          -5.0142  -20.1092   22.7750 C.3     1  UNL1        0.1340
      4 N          -5.0334  -19.4663   21.4199 N.ar    1  UNL1       -0.2884
      5 C          -3.8324  -19.1300   20.5866 C.ar    1  UNL1        0.1932
      6 N          -4.3136  -18.5027   19.3118 N.ar    1  UNL1       -0.1221
      7 N          -5.8120  -18.4515   19.3573 N.ar    1  UNL1       -0.1282
      8 C          -6.2569  -19.0470   20.6602 C.ar    1  UNL1        0.1668
      9 C          -7.6761  -19.1968   21.1222 C.ar    1  UNL1        0.0359
     10 C          -8.7906  -19.2413   20.1192 C.ar    1  UNL1        0.0027
     11 C         -10.2098  -19.3912   20.5812 C.ar    1  UNL1       -0.0037
     12 C         -10.5144  -19.4965   22.0462 C.ar    1  UNL1       -0.0131
     13 C          -9.3999  -19.4520   23.0492 C.ar    1  UNL1       -0.0037
     14 C          -7.9807  -19.3021   22.5871 C.ar    1  UNL1        0.0027
     15 C         -11.9336  -19.6464   22.5082 C.3     1  UNL1        0.1111
     16 C         -12.4038  -18.9212   23.7342 C.2     1  UNL1        0.2238
     17 N         -11.6518  -19.0632   25.0243 N.am    1  UNL1       -0.3285
     18 O         -13.6260  -18.0539   23.6702 O.2     1  UNL1       -0.2750
     19 H         -10.8497  -19.6325   25.0664 H       1  UNL1        0.1450
     20 H         -11.9604  -18.5873   25.8289 H       1  UNL1        0.1450
     21 C          -2.4641  -17.9077   23.1036 C.3     1  UNL1        0.0294
     22 C          -3.4107  -16.7601   22.9117 C.3     1  UNL1        0.0730
     23 N          -4.4270  -16.4415   23.9678 N.3     1  UNL1       -0.2726
     24 C          -4.1521  -16.2674   25.4321 C.3     1  UNL1        0.0721
     25 C          -5.4519  -15.9594   26.1143 C.3     1  UNL1        0.0190
     26 C          -6.5303  -15.9432   25.0718 C.3     1  UNL1        0.0201
     27 C          -7.6538  -15.6247   26.0131 C.3     1  UNL1        0.0061
     28 C          -7.9288  -15.7988   24.5489 C.3     1  UNL1        0.0237
     29 C          -5.8968  -16.2412   23.7451 C.3     1  UNL1        0.0724
     30 C          -8.8949  -15.8160   23.4016 C.ar    1  UNL1       -0.0225
     31 C         -10.3623  -15.9902   23.6594 C.ar    1  UNL1       -0.0043
     32 C         -11.3284  -16.0073   22.5121 C.ar    1  UNL1        0.0035
     33 C         -10.8272  -15.8504   21.1071 C.ar    1  UNL1        0.0714
     34 C          -9.3598  -15.6762   20.8493 C.ar    1  UNL1        0.0035
     35 C          -8.3936  -15.6590   21.9966 C.ar    1  UNL1       -0.0043
     36 C         -11.7933  -15.8676   19.9598 C.3     1  UNL1        0.4186
     37 F         -12.7595  -15.8847   18.8124 F       1  UNL1       -0.1659
     38 F         -12.7714  -16.6393   20.7951 F       1  UNL1       -0.1659
     39 F         -10.8152  -15.0958   19.1245 F       1  UNL1       -0.1659
@<TRIPOS>BOND
     1     3     4    1
     2     4     5   ar
     3     5     2    1
     4     2     1    1
     5     1    21    1
     6    21    22    1
     7    22    23    1
     8    23    24    1
     9    24    25    1
    10    26    25    1
    11    26    27    1
    12    27    28    1
    13    28    30    1
    14    30    31   ar
    15    31    32   ar
    16    32    33   ar
    17    33    36    1
    18    36    37    1
    19    36    38    1
    20    36    39    1
    21    33    34   ar
    22    34    35   ar
    23    26    29    1
    24     5     6   ar
    25     6     7   ar
    26     7     8   ar
    27     8     9    1
    28     9    10   ar
    29    10    11   ar
    30    11    12   ar
    31    12    15    1
    32    15    16    1
    33    16    17   am
    34    16    18    2
    35    12    13   ar
    36    13    14   ar
    37     8     4   ar
    38    14     9   ar
    39    29    23    1
    40    28    26    1
    41    35    30   ar
    42    17    19    1
    43    17    20    1
@<TRIPOS>MOLECULE
*****
 39 43 0 0 0
SMALL
GASTEIGER

@<TRIPOS>ATOM
      1 C          -2.8971  -19.8329   21.3137 C.3     1  UNL1        0.0666
      2 S          -4.0393  -20.3454   20.4875 S.3     1  UNL1       -0.0756
      3 C          -6.2751  -21.0845   22.7468 C.3     1  UNL1        0.1340
      4 N          -6.4259  -20.0639   21.6578 N.ar    1  UNL1       -0.2884
      5 C          -5.3982  -19.7242   20.6194 C.ar    1  UNL1        0.1932
      6 N          -5.9680  -18.6543   19.7359 N.ar    1  UNL1       -0.1221
      7 N          -7.3479  -18.3327   20.2283 N.ar    1  UNL1       -0.1282
      8 C          -7.6310  -19.2039   21.4162 C.ar    1  UNL1        0.1668
      9 C          -8.8967  -19.2134   22.2210 C.ar    1  UNL1        0.0359
     10 C          -8.8347  -19.1296   23.7174 C.ar    1  UNL1        0.0027
     11 C         -10.1005  -19.1391   24.5222 C.ar    1  UNL1       -0.0037
     12 C         -11.4283  -19.2325   23.8306 C.ar    1  UNL1       -0.0131
     13 C         -11.4903  -19.3163   22.3342 C.ar    1  UNL1       -0.0037
     14 C         -10.2245  -19.3068   21.5294 C.ar    1  UNL1        0.0027
     15 C         -12.6941  -19.2420   24.6354 C.3     1  UNL1        0.1111
     16 C         -13.7845  -18.2582   24.3300 C.2     1  UNL1        0.2238
     17 N         -15.1722  -18.4915   24.8495 N.am    1  UNL1       -0.3285
     18 O         -13.4872  -17.0412   23.5051 O.2     1  UNL1       -0.2750
     19 H         -15.3673  -19.2902   25.3910 H       1  UNL1        0.1450
     20 H         -15.8878  -17.8458   24.6491 H       1  UNL1        0.1450
     21 C          -3.1665  -19.1217   22.6066 C.3     1  UNL1        0.0294
     22 C          -3.3851  -17.6378   22.6151 C.3     1  UNL1        0.0730
     23 N          -4.2650  -17.0152   23.6583 N.3     1  UNL1       -0.2726
     24 C          -3.8778  -16.7216   25.0774 C.3     1  UNL1        0.0721
     25 C          -5.0601  -16.1019   25.7617 C.3     1  UNL1        0.0190
     26 C          -6.1780  -16.0126   24.7655 C.3     1  UNL1        0.0201
     27 C          -7.1699  -15.3842   25.6988 C.3     1  UNL1        0.0061
     28 C          -7.5571  -15.6778   24.2798 C.3     1  UNL1        0.0237
     29 C          -5.6866  -16.5771   23.4655 C.3     1  UNL1        0.0724
     30 C          -8.5769  -15.6541   23.1800 C.ar    1  UNL1       -0.0225
     31 C          -8.1613  -15.3157   21.7790 C.ar    1  UNL1       -0.0043
     32 C          -9.1811  -15.2920   20.6792 C.ar    1  UNL1        0.0035
     33 C         -10.6164  -15.6066   20.9805 C.ar    1  UNL1        0.0714
     34 C         -11.0320  -15.9449   22.3815 C.ar    1  UNL1        0.0035
     35 C         -10.0122  -15.9687   23.4813 C.ar    1  UNL1       -0.0043
     36 C         -11.6362  -15.5829   19.8807 C.3     1  UNL1        0.4186
     37 F         -12.6560  -15.5591   18.7809 F       1  UNL1       -0.1659
     38 F         -10.6607  -14.8703   18.9916 F       1  UNL1       -0.1659
     39 F         -12.6117  -16.2954   20.7699 F       1  UNL1       -0.1659
@<TRIPOS>BOND
     1     3     4    1
     2     4     5   ar
     3     5     2    1
     4     2     1    1
     5     1    21    1
     6    21    22    1
     7    22    23    1
     8    23    24    1
     9    24    25    1
    10    26    25    1
    11    26    27    1
    12    27    28    1
    13    28    30    1
    14    30    31   ar
    15    31    32   ar
    16    32    33   ar
    17    33    36    1
    18    36    37    1
    19    36    38    1
    20    36    39    1
    21    33    34   ar
    22    34    35   ar
    23    26    29    1
    24     5     6   ar
    25     6     7   ar
    26     7     8   ar
    27     8     9    1
    28     9    10   ar
    29    10    11   ar
    30    11    12   ar
    31    12    15    1
    32    15    16    1
    33    16    17   am
    34    16    18    2
    35    12    13   ar
    36    13    14   ar
    37     8     4   ar
    38    14     9   ar
    39    29    23    1
    40    28    26    1
    41    35    30   ar
    42    17    19    1
    43    17    20    1
@<TRIPOS>MOLECULE
*****
 39 43 0 0 0
SMALL
GASTEIGER

@<TRIPOS>ATOM
      1 C           7.3534    5.4043   17.3349 C.3     1  UNL1        0.0666
      2 S           8.1266    4.2684   16.7335 S.3     1  UNL1       -0.0756
      3 C           8.3314    2.6923   19.5836 C.3     1  UNL1        0.1340
      4 N           7.7962    2.1285   18.3008 N.ar    1  UNL1       -0.2884
      5 C           7.7021    2.8529   16.9907 C.ar    1  UNL1        0.1932
      6 N           7.1089    1.9134   15.9830 N.ar    1  UNL1       -0.1221
      7 N           6.8364    0.6083   16.6703 N.ar    1  UNL1       -0.1282
      8 C           7.2612    0.7411   18.1028 C.ar    1  UNL1        0.1668
      9 C           7.1674   -0.3259   19.1529 C.ar    1  UNL1        0.0359
     10 C           7.9541   -1.5945   19.0054 C.ar    1  UNL1        0.0027
     11 C           7.8604   -2.6615   20.0555 C.ar    1  UNL1       -0.0037
     12 C           6.9798   -2.4599   21.2530 C.ar    1  UNL1       -0.0131
     13 C           6.1931   -1.1913   21.4005 C.ar    1  UNL1       -0.0037
     14 C           6.2869   -0.1243   20.3503 C.ar    1  UNL1        0.0027
     15 C           6.8860   -3.5269   22.3031 C.3     1  UNL1        0.1111
     16 C           6.9275   -3.1554   23.7557 C.2     1  UNL1        0.2238
     17 N           5.8582   -3.6460   24.6863 N.am    1  UNL1       -0.3285
     18 O           8.0383   -2.2932   24.2779 O.2     1  UNL1       -0.2750
     19 H           5.1291   -4.2119   24.3436 H       1  UNL1        0.1450
     20 H           5.8855   -3.4022   25.6397 H       1  UNL1        0.1450
     21 C           5.8536    5.3768   17.3291 C.3     1  UNL1        0.0294
     22 C           5.1051    5.0205   18.5792 C.3     1  UNL1        0.0730
     23 N           3.7152    4.4639   18.4882 N.3     1  UNL1       -0.2726
     24 C           2.4545    5.2616   18.3324 C.3     1  UNL1        0.0721
     25 C           1.3021    4.3026   18.2850 C.3     1  UNL1        0.0190
     26 C           1.8505    2.9122   18.4115 C.3     1  UNL1        0.0201
     27 C           0.5256    2.2133   18.3342 C.3     1  UNL1        0.0061
     28 C           1.7863    1.4156   18.4900 C.3     1  UNL1        0.0237
     29 C           3.3419    3.0119   18.5371 C.3     1  UNL1        0.0724
     30 C           2.4771    0.0910   18.6254 C.ar    1  UNL1       -0.0225
     31 C           3.4114   -0.3808   17.5509 C.ar    1  UNL1       -0.0043
     32 C           4.1021   -1.7054   17.6862 C.ar    1  UNL1        0.0035
     33 C           3.8586   -2.5581   18.8960 C.ar    1  UNL1        0.0714
     34 C           2.9243   -2.0862   19.9705 C.ar    1  UNL1        0.0035
     35 C           2.2335   -0.7617   19.8352 C.ar    1  UNL1       -0.0043
     36 C           4.5494   -3.8827   19.0313 C.3     1  UNL1        0.4186
     37 F           5.2402   -5.2073   19.1667 F       1  UNL1       -0.1659
     38 F           5.4203   -3.5485   17.8567 F       1  UNL1       -0.1659
     39 F           3.6785   -4.2168   20.2060 F       1  UNL1       -0.1659
@<TRIPOS>BOND
     1     3     4    1
     2     4     5   ar
     3     5     2    1
     4     2     1    1
     5     1    21    1
     6    21    22    1
     7    22    23    1
     8    23    24    1
     9    24    25    1
    10    26    25    1
    11    26    27    1
    12    27    28    1
    13    28    30    1
    14    30    31   ar
    15    31    32   ar
    16    32    33   ar
    17    33    36    1
    18    36    37    1
    19    36    38    1
    20    36    39    1
    21    33    34   ar
    22    34    35   ar
    23    26    29    1
    24     5     6   ar
    25     6     7   ar
    26     7     8   ar
    27     8     9    1
    28     9    10   ar
    29    10    11   ar
    30    11    12   ar
    31    12    15    1
    32    15    16    1
    33    16    17   am
    34    16    18    2
    35    12    13   ar
    36    13    14   ar
    37     8     4   ar
    38    14     9   ar
    39    29    23    1
    40    28    26    1
    41    35    30   ar
    42    17    19    1
    43    17    20    1
@<TRIPOS>MOLECULE
*****
 39 43 0 0 0
SMALL
GASTEIGER

@<TRIPOS>ATOM
      1 C           3.8784   -1.3044   27.5851 C.3     1  UNL1        0.0666
      2 S           2.9572   -0.1270   27.4631 S.3     1  UNL1       -0.0756
      3 C           4.0335    1.7626   29.8963 C.3     1  UNL1        0.1340
      4 N           2.6516    1.1937   29.7669 N.ar    1  UNL1       -0.2884
      5 C           2.1569    0.3251   28.6485 C.ar    1  UNL1        0.1932
      6 N           0.7213   -0.0119   28.9235 N.ar    1  UNL1       -0.1221
      7 N           0.3288    0.6483   30.2119 N.ar    1  UNL1       -0.1282
      8 C           1.5218    1.3934   30.7332 C.ar    1  UNL1        0.1668
      9 C           1.5755    2.1971   31.9986 C.ar    1  UNL1        0.0359
     10 C           0.8289    3.4945   32.0954 C.ar    1  UNL1        0.0027
     11 C           0.8826    4.2982   33.3608 C.ar    1  UNL1       -0.0037
     12 C           1.6830    3.8043   34.5294 C.ar    1  UNL1       -0.0131
     13 C           2.4296    2.5069   34.4327 C.ar    1  UNL1       -0.0037
     14 C           2.3758    1.7033   33.1672 C.ar    1  UNL1        0.0027
     15 C           1.7367    4.6080   35.7948 C.3     1  UNL1        0.1111
     16 C           2.0725    3.9389   37.0946 C.2     1  UNL1        0.2238
     17 N           3.4505    4.0712   37.6723 N.am    1  UNL1       -0.3285
     18 O           1.0304    3.1374   37.8168 O.2     1  UNL1       -0.2750
     19 H           4.1345    4.5973   37.1983 H       1  UNL1        0.1450
     20 H           3.6708    3.6320   38.5254 H       1  UNL1        0.1450
     21 C           5.3327   -1.1569   27.2484 C.3     1  UNL1        0.0294
     22 C           6.1508   -2.3677   26.9098 C.3     1  UNL1        0.0730
     23 N           6.4443   -3.3934   27.9642 N.3     1  UNL1       -0.2726
     24 C           6.8534   -4.8159   27.7209 C.3     1  UNL1        0.0721
     25 C           7.0422   -5.4783   29.0534 C.3     1  UNL1        0.0190
     26 C           6.7497   -4.4652   30.1203 C.3     1  UNL1        0.0201
     27 C           7.0110   -5.3794   31.2804 C.3     1  UNL1        0.0061
     28 C           6.6018   -3.9569   31.5238 C.3     1  UNL1        0.0237
     29 C           6.3802   -3.1767   29.4471 C.3     1  UNL1        0.0724
     30 C           6.2803   -2.8422   32.4746 C.ar    1  UNL1       -0.0225
     31 C           7.3328   -1.8356   32.8336 C.ar    1  UNL1       -0.0043
     32 C           7.0113   -0.7209   33.7843 C.ar    1  UNL1        0.0035
     33 C           5.6372   -0.6128   34.3761 C.ar    1  UNL1        0.0714
     34 C           4.5846   -1.6195   34.0171 C.ar    1  UNL1        0.0035
     35 C           4.9062   -2.7342   33.0663 C.ar    1  UNL1       -0.0043
     36 C           5.3156    0.5019   35.3269 C.3     1  UNL1        0.4186
     37 F           4.9940    1.6166   36.2777 F       1  UNL1       -0.1659
     38 F           6.2430    1.4103   34.5754 F       1  UNL1       -0.1659
     39 F           4.3882   -0.4066   36.0783 F       1  UNL1       -0.1659
@<TRIPOS>BOND
     1     3     4    1
     2     4     5   ar
     3     5     2    1
     4     2     1    1
     5     1    21    1
     6    21    22    1
     7    22    23    1
     8    23    24    1
     9    24    25    1
    10    26    25    1
    11    26    27    1
    12    27    28    1
    13    28    30    1
    14    30    31   ar
    15    31    32   ar
    16    32    33   ar
    17    33    36    1
    18    36    37    1
    19    36    38    1
    20    36    39    1
    21    33    34   ar
    22    34    35   ar
    23    26    29    1
    24     5     6   ar
    25     6     7   ar
    26     7     8   ar
    27     8     9    1
    28     9    10   ar
    29    10    11   ar
    30    11    12   ar
    31    12    15    1
    32    15    16    1
    33    16    17   am
    34    16    18    2
    35    12    13   ar
    36    13    14   ar
    37     8     4   ar
    38    14     9   ar
    39    29    23    1
    40    28    26    1
    41    35    30   ar
    42    17    19    1
    43    17    20    1
@<TRIPOS>MOLECULE
*****
 39 43 0 0 0
SMALL
GASTEIGER

@<TRIPOS>ATOM
      1 C          -0.0852    3.9872   17.8990 C.3     1  UNL1        0.0666
      2 S           1.0405    3.2458   18.5571 S.3     1  UNL1       -0.0756
      3 C           1.2551    4.2246   21.6628 C.3     1  UNL1        0.1340
      4 N           0.8742    2.8511   21.1956 N.ar    1  UNL1       -0.2884
      5 C           0.7755    2.4012   19.7680 C.ar    1  UNL1        0.1932
      6 N           0.3654    0.9584   19.7640 N.ar    1  UNL1       -0.1221
      7 N           0.2106    0.5165   21.1891 N.ar    1  UNL1       -0.1282
      8 C           0.5250    1.6863   22.0739 C.ar    1  UNL1        0.1668
      9 C           0.4955    1.6905   23.5736 C.ar    1  UNL1        0.0359
     10 C          -0.6268    2.3710   24.2997 C.ar    1  UNL1        0.0027
     11 C          -0.6564    2.3752   25.7995 C.ar    1  UNL1       -0.0037
     12 C           0.4365    1.6989   26.5730 C.ar    1  UNL1       -0.0131
     13 C           1.5589    1.0184   25.8468 C.ar    1  UNL1       -0.0037
     14 C           1.5883    1.0142   24.3471 C.ar    1  UNL1        0.0027
     15 C           0.4070    1.7031   28.0727 C.3     1  UNL1        0.1111
     16 C           0.1431    0.4303   28.8212 C.2     1  UNL1        0.2238
     17 N          -0.8591   -0.5546   28.2963 N.am    1  UNL1       -0.3285
     18 O           0.8815    0.1422   30.0947 O.2     1  UNL1       -0.2750
     19 H          -1.3438   -0.3655   27.4604 H       1  UNL1        0.1450
     20 H          -1.0323   -1.3899   28.7876 H       1  UNL1        0.1450
     21 C          -0.3917    5.3987   18.3038 C.3     1  UNL1        0.0294
     22 C          -1.7111    6.0132   17.9414 C.3     1  UNL1        0.0730
     23 N          -2.9563    5.1768   17.9519 N.3     1  UNL1       -0.2726
     24 C          -3.6576    4.6245   16.7465 C.3     1  UNL1        0.0721
     25 C          -4.8534    3.8523   17.2194 C.3     1  UNL1        0.0190
     26 C          -4.8911    3.9273   18.7171 C.3     1  UNL1        0.0201
     27 C          -6.1333    3.1033   18.8841 C.3     1  UNL1        0.0061
     28 C          -5.4320    3.6556   20.0896 C.3     1  UNL1        0.0237
     29 C          -3.7186    4.7459   19.1698 C.3     1  UNL1        0.0724
     30 C          -5.3393    3.8176   21.5779 C.ar    1  UNL1       -0.0225
     31 C          -4.0826    3.4274   22.2980 C.ar    1  UNL1       -0.0043
     32 C          -3.9899    3.5895   23.7863 C.ar    1  UNL1        0.0035
     33 C          -5.1539    4.1417   24.5545 C.ar    1  UNL1        0.0714
     34 C          -6.4106    4.5319   23.8344 C.ar    1  UNL1        0.0035
     35 C          -6.5033    4.3699   22.3461 C.ar    1  UNL1       -0.0043
     36 C          -5.0612    4.3038   26.0428 C.3     1  UNL1        0.4186
     37 F          -4.9685    4.4659   27.5312 F       1  UNL1       -0.1659
     38 F          -3.8393    3.4339   26.0614 F       1  UNL1       -0.1659
     39 F          -6.2830    5.1737   26.0242 F       1  UNL1       -0.1659
@<TRIPOS>BOND
     1     3     4    1
     2     4     5   ar
     3     5     2    1
     4     2     1    1
     5     1    21    1
     6    21    22    1
     7    22    23    1
     8    23    24    1
     9    24    25    1
    10    26    25    1
    11    26    27    1
    12    27    28    1
    13    28    30    1
    14    30    31   ar
    15    31    32   ar
    16    32    33   ar
    17    33    36    1
    18    36    37    1
    19    36    38    1
    20    36    39    1
    21    33    34   ar
    22    34    35   ar
    23    26    29    1
    24     5     6   ar
    25     6     7   ar
    26     7     8   ar
    27     8     9    1
    28     9    10   ar
    29    10    11   ar
    30    11    12   ar
    31    12    15    1
    32    15    16    1
    33    16    17   am
    34    16    18    2
    35    12    13   ar
    36    13    14   ar
    37     8     4   ar
    38    14     9   ar
    39    29    23    1
    40    28    26    1
    41    35    30   ar
    42    17    19    1
    43    17    20    1
@<TRIPOS>MOLECULE
*****
 39 43 0 0 0
SMALL
GASTEIGER

@<TRIPOS>ATOM
      1 C          -1.5677    4.4263   20.1402 C.3     1  UNL1        0.0666
      2 S          -1.4512    3.3720   21.2008 S.3     1  UNL1       -0.0756
      3 C           0.3012    0.6293   20.9639 C.3     1  UNL1        0.1340
      4 N           0.6776    1.8511   21.7484 N.ar    1  UNL1       -0.2884
      5 C          -0.1278    3.1118   21.8573 C.ar    1  UNL1        0.1932
      6 N           0.6223    4.0666   22.7380 N.ar    1  UNL1       -0.1221
      7 N           1.8915    3.3960   23.1735 N.ar    1  UNL1       -0.1282
      8 C           1.9257    2.0267   22.5619 C.ar    1  UNL1        0.1668
      9 C           3.0164    1.0114   22.7336 C.ar    1  UNL1        0.0359
     10 C           2.7143   -0.3140   23.3678 C.ar    1  UNL1        0.0027
     11 C           3.8051   -1.3293   23.5395 C.ar    1  UNL1       -0.0037
     12 C           5.1979   -1.0192   23.0769 C.ar    1  UNL1       -0.0131
     13 C           5.5000    0.3062   22.4427 C.ar    1  UNL1       -0.0037
     14 C           4.4092    1.3214   22.2710 C.ar    1  UNL1        0.0027
     15 C           6.2886   -2.0345   23.2486 C.3     1  UNL1        0.1111
     16 C           6.5219   -3.0710   22.1897 C.2     1  UNL1        0.2238
     17 N           7.5345   -2.8259   21.1104 N.am    1  UNL1       -0.3285
     18 O           5.7427   -4.3525   22.2099 O.2     1  UNL1       -0.2750
     19 H           8.0459   -1.9848   21.0971 H       1  UNL1        0.1450
     20 H           7.6876   -3.5062   20.4154 H       1  UNL1        0.1450
     21 C          -1.5680    4.0363   18.6918 C.3     1  UNL1        0.0294
     22 C          -0.6321    2.9717   18.2015 C.3     1  UNL1        0.0730
     23 N           0.8510    3.1743   18.2981 N.3     1  UNL1       -0.2726
     24 C           1.5644    4.4935   18.2694 C.3     1  UNL1        0.0721
     25 C           3.0354    4.2277   18.3939 C.3     1  UNL1        0.0190
     26 C           3.2312    2.7443   18.4995 C.3     1  UNL1        0.0201
     27 C           4.7266    2.7907   18.6067 C.3     1  UNL1        0.0061
     28 C           4.0132    1.4715   18.6353 C.3     1  UNL1        0.0237
     29 C           1.8811    2.0932   18.4403 C.3     1  UNL1        0.0724
     30 C           4.0529   -0.0250   18.7302 C.ar    1  UNL1       -0.0225
     31 C           4.9994   -0.8064   17.8679 C.ar    1  UNL1       -0.0043
     32 C           5.0390   -2.3028   17.9628 C.ar    1  UNL1        0.0035
     33 C           4.1322   -3.0179   18.9200 C.ar    1  UNL1        0.0714
     34 C           3.1857   -2.2365   19.7824 C.ar    1  UNL1        0.0035
     35 C           3.1460   -0.7400   19.6875 C.ar    1  UNL1       -0.0043
     36 C           4.1718   -4.5143   19.0150 C.3     1  UNL1        0.4186
     37 F           4.2115   -6.0109   19.1099 F       1  UNL1       -0.1659
     38 F           2.6758   -4.5602   18.9164 F       1  UNL1       -0.1659
     39 F           5.6678   -4.4684   19.1135 F       1  UNL1       -0.1659
@<TRIPOS>BOND
     1     3     4    1
     2     4     5   ar
     3     5     2    1
     4     2     1    1
     5     1    21    1
     6    21    22    1
     7    22    23    1
     8    23    24    1
     9    24    25    1
    10    26    25    1
    11    26    27    1
    12    27    28    1
    13    28    30    1
    14    30    31   ar
    15    31    32   ar
    16    32    33   ar
    17    33    36    1
    18    36    37    1
    19    36    38    1
    20    36    39    1
    21    33    34   ar
    22    34    35   ar
    23    26    29    1
    24     5     6   ar
    25     6     7   ar
    26     7     8   ar
    27     8     9    1
    28     9    10   ar
    29    10    11   ar
    30    11    12   ar
    31    12    15    1
    32    15    16    1
    33    16    17   am
    34    16    18    2
    35    12    13   ar
    36    13    14   ar
    37     8     4   ar
    38    14     9   ar
    39    29    23    1
    40    28    26    1
    41    35    30   ar
    42    17    19    1
    43    17    20    1
@<TRIPOS>MOLECULE
*****
 39 43 0 0 0
SMALL
GASTEIGER

@<TRIPOS>ATOM
      1 C           7.3595   -2.6329   29.3027 C.3     1  UNL1        0.0666
      2 S           7.7779   -2.3824   30.7212 S.3     1  UNL1       -0.0756
      3 C           7.4989    0.2241   32.6649 C.3     1  UNL1        0.1340
      4 N           6.6113   -0.9851   32.6787 N.ar    1  UNL1       -0.2884
      5 C           6.7396   -2.1831   31.7853 C.ar    1  UNL1        0.1932
      6 N           5.6472   -3.1470   32.1427 N.ar    1  UNL1       -0.1221
      7 N           4.8438   -2.5446   33.2570 N.ar    1  UNL1       -0.1282
      8 C           5.4397   -1.2084   33.5883 C.ar    1  UNL1        0.1668
      9 C           4.9499   -0.2619   34.6439 C.ar    1  UNL1        0.0359
     10 C           4.0141    0.8515   34.2770 C.ar    1  UNL1        0.0027
     11 C           3.5243    1.7981   35.3326 C.ar    1  UNL1       -0.0037
     12 C           3.9703    1.6311   36.7550 C.ar    1  UNL1       -0.0131
     13 C           4.9061    0.5176   37.1219 C.ar    1  UNL1       -0.0037
     14 C           5.3958   -0.4289   36.0662 C.ar    1  UNL1        0.0027
     15 C           3.4805    2.5776   37.8106 C.3     1  UNL1        0.1111
     16 C           2.0338    2.5758   38.2067 C.2     1  UNL1        0.2238
     17 N           1.5401    1.6061   39.2391 N.am    1  UNL1       -0.3285
     18 O           1.0807    3.5436   37.5704 O.2     1  UNL1       -0.2750
     19 H           2.1656    0.9708   39.6567 H       1  UNL1        0.1450
     20 H           0.5905    1.6049   39.4991 H       1  UNL1        0.1450
     21 C           6.4573   -1.6595   28.6038 C.3     1  UNL1        0.0294
     22 C           5.2192   -2.1478   27.9120 C.3     1  UNL1        0.0730
     23 N           4.4062   -1.2050   27.0753 N.3     1  UNL1       -0.2726
     24 C           3.7328    0.0455   27.5580 C.3     1  UNL1        0.0721
     25 C           3.0343    0.6761   26.3899 C.3     1  UNL1        0.0190
     26 C           3.2760   -0.1845   25.1854 C.3     1  UNL1        0.0201
     27 C           2.4927    0.6632   24.2273 C.3     1  UNL1        0.0061
     28 C           3.1660   -0.5873   23.7446 C.3     1  UNL1        0.0237
     29 C           4.1238   -1.3471   25.6090 C.3     1  UNL1        0.0724
     30 C           3.4914   -1.5417   22.6342 C.ar    1  UNL1       -0.0225
     31 C           3.0123   -1.2622   21.2405 C.ar    1  UNL1       -0.0043
     32 C           3.3376   -2.2167   20.1300 C.ar    1  UNL1        0.0035
     33 C           4.1420   -3.4507   20.4133 C.ar    1  UNL1        0.0714
     34 C           4.6211   -3.7302   21.8070 C.ar    1  UNL1        0.0035
     35 C           4.2957   -2.7757   22.9175 C.ar    1  UNL1       -0.0043
     36 C           4.4673   -4.4051   19.3028 C.3     1  UNL1        0.4186
     37 F           4.7927   -5.3597   18.1923 F       1  UNL1       -0.1659
     38 F           3.0153   -4.4685   18.9319 F       1  UNL1       -0.1659
     39 F           5.9193   -4.3418   19.6738 F       1  UNL1       -0.1659
@<TRIPOS>BOND
     1     3     4    1
     2     4     5   ar
     3     5     2    1
     4     2     1    1
     5     1    21    1
     6    21    22    1
     7    22    23    1
     8    23    24    1
     9    24    25    1
    10    26    25    1
    11    26    27    1
    12    27    28    1
    13    28    30    1
    14    30    31   ar
    15    31    32   ar
    16    32    33   ar
    17    33    36    1
    18    36    37    1
    19    36    38    1
    20    36    39    1
    21    33    34   ar
    22    34    35   ar
    23    26    29    1
    24     5     6   ar
    25     6     7   ar
    26     7     8   ar
    27     8     9    1
    28     9    10   ar
    29    10    11   ar
    30    11    12   ar
    31    12    15    1
    32    15    16    1
    33    16    17   am
    34    16    18    2
    35    12    13   ar
    36    13    14   ar
    37     8     4   ar
    38    14     9   ar
    39    29    23    1
    40    28    26    1
    41    35    30   ar
    42    17    19    1
    43    17    20    1
