@<TRIPOS>MOLECULE
*****
 44 48 0 0 0
SMALL
GASTEIGER

@<TRIPOS>ATOM
      1 C           5.4355   -3.4826   23.8527 C.3     1  UNL1        0.1305
      2 N           4.5514   -2.3411   23.4463 N.ar    1  UNL1       -0.3242
      3 C           4.0660   -2.0533   22.0565 C.ar    1  UNL1        0.0738
      4 C           3.2120   -0.8213   22.1096 C.ar    1  UNL1       -0.0038
      5 C           3.1695   -0.3476   23.5322 C.ar    1  UNL1        0.0133
      6 C           2.4841    0.8176   24.1820 C.ar    1  UNL1        0.0013
      7 C           2.6264    1.0435   25.6580 C.ar    1  UNL1        0.0046
      8 C           3.4542    0.1042   26.4842 C.ar    1  UNL1        0.0548
      9 C           4.1397   -1.0610   25.8343 C.ar    1  UNL1        0.0217
     10 C           3.9973   -1.2869   24.3583 C.ar    1  UNL1        0.0598
     11 C           4.3796   -2.8565   20.8291 C.ar    1  UNL1        0.0967
     12 C           3.6706   -4.1549   20.5810 C.ar    1  UNL1        0.0206
     13 C           3.9842   -4.9581   19.3536 C.ar    1  UNL1        0.0032
     14 C           5.0068   -4.4630   18.3743 C.ar    1  UNL1        0.0207
     15 C           5.7158   -3.1646   18.6223 C.ar    1  UNL1        0.0989
     16 N           5.4022   -2.3614   19.8497 N.ar    1  UNL1       -0.2424
     17 C           2.5216   -0.1762   20.9446 C.3     1  UNL1        0.0238
     18 C           3.3294    0.4086   19.8240 C.3     1  UNL1        0.0044
     19 C           2.6391    1.0538   18.6590 C.3     1  UNL1        0.0003
     20 C           1.1409    1.1141   18.6145 C.3     1  UNL1        0.0000
     21 C           0.3332    0.5293   19.7350 C.3     1  UNL1        0.0003
     22 C           1.0236   -0.1158   20.9000 C.3     1  UNL1        0.0044
     23 C           3.5965    0.3302   27.9603 C.2     1  UNL1        0.2461
     24 O           4.0273    1.6715   28.4755 O.2     1  UNL1       -0.2701
     25 N           3.3080   -0.7849   28.9210 N.am    1  UNL1       -0.2964
     26 H           3.0252   -1.6652   28.5828 H       1  UNL1        0.1501
     27 C           3.4503   -0.5590   30.3971 C.3     1  UNL1        0.1262
     28 C           2.0388   -0.0547   30.4560 C.3     1  UNL1        0.0290
     29 C           4.8617   -1.0632   30.3382 C.3     1  UNL1        0.0290
     30 C           3.5926   -0.3330   31.8731 C.2     1  UNL1        0.2419
     31 O           3.6571   -1.5040   32.8083 O.2     1  UNL1       -0.2731
     32 N           3.6705    1.0640   32.4139 N.am    1  UNL1       -0.2826
     33 H           3.6282    1.8325   31.8001 H       1  UNL1        0.1549
     34 C           3.8128    1.2899   33.8899 C.ar    1  UNL1        0.0503
     35 C           2.7654    2.0634   34.6347 C.ar    1  UNL1        0.0147
     36 C           2.9077    2.2894   36.1107 C.ar    1  UNL1        0.0013
     37 C           4.0975    1.7419   36.8420 C.ar    1  UNL1        0.0001
     38 C           5.1449    0.9684   36.0973 C.ar    1  UNL1        0.0013
     39 C           5.0026    0.7424   34.6212 C.ar    1  UNL1        0.0147
     40 C           4.2398    1.9679   38.3180 C.2     1  UNL1        0.0012
     41 C           4.5254    3.3440   38.8420 C.2     1  UNL1        0.0151
     42 C           4.6678    3.5700   40.3181 C.2     1  UNL1        0.0729
     43 O           3.6421    4.3788   41.0554 O.co2   1  UNL1       -0.5446
     44 O           5.8359    2.9870   41.0568 O.co2   1  UNL1       -0.5446
@<TRIPOS>UNITY_ATOM_ATTR
43 1
charge -1
@<TRIPOS>BOND
     1     1     2    1
     2     2     3   ar
     3     3    11    1
     4    11    12   ar
     5    12    13   ar
     6    13    14   ar
     7    14    15   ar
     8    15    16   ar
     9     3     4   ar
    10     4    17    1
    11    17    18    1
    12    18    19    1
    13    19    20    1
    14    20    21    1
    15    21    22    1
    16     4     5   ar
    17     5     6   ar
    18     6     7   ar
    19     7     8   ar
    20     8    23    1
    21    23    24    2
    22    23    25   am
    23    25    27    1
    24    27    28    1
    25    27    29    1
    26    27    30    1
    27    30    31    2
    28    30    32   am
    29    32    34    1
    30    34    35   ar
    31    35    36   ar
    32    36    37   ar
    33    37    40    1
    34    40    41    2
    35    41    42    1
    36    42    43   ar
    37    42    44   ar
    38    37    38   ar
    39    38    39   ar
    40     8     9   ar
    41     9    10   ar
    42    10     2   ar
    43    16    11   ar
    44    22    17    1
    45    10     5   ar
    46    39    34   ar
    47    25    26    1
    48    32    33    1
@<TRIPOS>MOLECULE
*****
 44 48 0 0 0
SMALL
GASTEIGER

@<TRIPOS>ATOM
      1 C           2.0067    2.6466   33.5144 C.3     1  UNL1        0.1305
      2 N           2.7306    1.5959   32.7257 N.ar    1  UNL1       -0.3242
      3 C           3.9115    0.7988   33.1947 C.ar    1  UNL1        0.0738
      4 C           4.3114   -0.1319   32.0884 C.ar    1  UNL1       -0.0038
      5 C           3.3777    0.0901   30.9356 C.ar    1  UNL1        0.0133
      6 C           3.2908   -0.5422   29.5782 C.ar    1  UNL1        0.0013
      7 C           2.2269   -0.1066   28.6147 C.ar    1  UNL1        0.0046
      8 C           1.2499    0.9612   29.0086 C.ar    1  UNL1        0.0548
      9 C           1.3368    1.5935   30.3660 C.ar    1  UNL1        0.0217
     10 C           2.4007    1.1579   31.3295 C.ar    1  UNL1        0.0598
     11 C           4.5759    0.9123   34.5347 C.ar    1  UNL1        0.0967
     12 C           4.6318   -0.2768   35.4473 C.ar    1  UNL1        0.0206
     13 C           5.2962   -0.1632   36.7874 C.ar    1  UNL1        0.0032
     14 C           5.9047    1.1395   37.2148 C.ar    1  UNL1        0.0207
     15 C           5.8488    2.3285   36.3022 C.ar    1  UNL1        0.0989
     16 N           5.1844    2.2150   34.9622 N.ar    1  UNL1       -0.2424
     17 C           5.4459   -1.1124   32.1278 C.3     1  UNL1        0.0238
     18 C           6.8533   -0.6401   31.9125 C.3     1  UNL1        0.0044
     19 C           7.9878   -1.6206   31.9519 C.3     1  UNL1        0.0003
     20 C           7.7150   -3.0734   32.2067 C.3     1  UNL1        0.0000
     21 C           6.3077   -3.5457   32.4220 C.3     1  UNL1        0.0003
     22 C           5.1732   -2.5651   32.3826 C.3     1  UNL1        0.0044
     23 C           0.1860    1.3968   28.0450 C.2     1  UNL1        0.2461
     24 O          -1.2045    0.8472   28.1643 O.2     1  UNL1       -0.2701
     25 N           0.5127    2.3819   26.9620 N.am    1  UNL1       -0.2964
     26 H           1.4254    2.7426   26.8837 H       1  UNL1        0.1501
     27 C          -0.5512    2.8175   25.9984 C.3     1  UNL1        0.1262
     28 C          -0.1825    1.6893   25.0813 C.3     1  UNL1        0.0290
     29 C          -0.9199    3.9457   26.9155 C.3     1  UNL1        0.0290
     30 C          -1.6150    3.2531   25.0349 C.2     1  UNL1        0.2419
     31 O          -1.3353    3.2590   23.5613 O.2     1  UNL1       -0.2731
     32 N          -2.9586    3.6827   25.5450 N.am    1  UNL1       -0.2826
     33 H          -3.1422    3.6788   26.5122 H       1  UNL1        0.1549
     34 C          -4.0224    4.1183   24.5815 C.ar    1  UNL1        0.0503
     35 C          -4.7346    3.1008   23.7402 C.ar    1  UNL1        0.0147
     36 C          -5.7985    3.5364   22.7767 C.ar    1  UNL1        0.0013
     37 C          -6.1502    4.9894   22.6544 C.ar    1  UNL1        0.0001
     38 C          -5.4381    6.0069   23.4955 C.ar    1  UNL1        0.0013
     39 C          -4.3742    5.5713   24.4591 C.ar    1  UNL1        0.0147
     40 C          -7.2141    5.4250   21.6908 C.2     1  UNL1        0.0012
     41 C          -6.9739    5.3263   20.2135 C.2     1  UNL1        0.0151
     42 C          -8.0379    5.7619   19.2499 C.2     1  UNL1        0.0729
     43 O          -9.0844    6.7455   19.6826 O.co2   1  UNL1       -0.5446
     44 O          -8.0552    5.2139   17.8537 O.co2   1  UNL1       -0.5446
@<TRIPOS>UNITY_ATOM_ATTR
43 1
charge -1
@<TRIPOS>BOND
     1     1     2    1
     2     2     3   ar
     3     3    11    1
     4    11    12   ar
     5    12    13   ar
     6    13    14   ar
     7    14    15   ar
     8    15    16   ar
     9     3     4   ar
    10     4    17    1
    11    17    18    1
    12    18    19    1
    13    19    20    1
    14    20    21    1
    15    21    22    1
    16     4     5   ar
    17     5     6   ar
    18     6     7   ar
    19     7     8   ar
    20     8    23    1
    21    23    24    2
    22    23    25   am
    23    25    27    1
    24    27    28    1
    25    27    29    1
    26    27    30    1
    27    30    31    2
    28    30    32   am
    29    32    34    1
    30    34    35   ar
    31    35    36   ar
    32    36    37   ar
    33    37    40    1
    34    40    41    2
    35    41    42    1
    36    42    43   ar
    37    42    44   ar
    38    37    38   ar
    39    38    39   ar
    40     8     9   ar
    41     9    10   ar
    42    10     2   ar
    43    16    11   ar
    44    22    17    1
    45    10     5   ar
    46    39    34   ar
    47    25    26    1
    48    32    33    1
@<TRIPOS>MOLECULE
*****
 44 48 0 0 0
SMALL
GASTEIGER

@<TRIPOS>ATOM
      1 C           6.6047    0.6069   32.3631 C.3     1  UNL1        0.1305
      2 N           5.4365    1.1288   33.1460 N.ar    1  UNL1       -0.3242
      3 C           5.4058    1.3751   34.6253 C.ar    1  UNL1        0.0738
      4 C           4.0442    1.8946   34.9805 C.ar    1  UNL1       -0.0038
      5 C           3.2334    1.9694   33.7207 C.ar    1  UNL1        0.0133
      6 C           1.8227    2.4073   33.4596 C.ar    1  UNL1        0.0013
      7 C           1.2726    2.3720   32.0646 C.ar    1  UNL1        0.0046
      8 C           2.1331    1.8987   30.9308 C.ar    1  UNL1        0.0548
      9 C           3.5437    1.4607   31.1919 C.ar    1  UNL1        0.0217
     10 C           4.0939    1.4961   32.5869 C.ar    1  UNL1        0.0598
     11 C           6.5379    1.1427   35.5815 C.ar    1  UNL1        0.0967
     12 C           6.5740   -0.1060   36.4118 C.ar    1  UNL1        0.0206
     13 C           7.7061   -0.3385   37.3680 C.ar    1  UNL1        0.0032
     14 C           8.8021    0.6778   37.4939 C.ar    1  UNL1        0.0207
     15 C           8.7660    1.9265   36.6636 C.ar    1  UNL1        0.0989
     16 N           7.6339    2.1589   35.7074 N.ar    1  UNL1       -0.2424
     17 C           3.5756    2.2729   36.3543 C.3     1  UNL1        0.0238
     18 C           3.4726    3.7189   36.7399 C.3     1  UNL1        0.0044
     19 C           3.0040    4.0972   38.1137 C.3     1  UNL1        0.0003
     20 C           2.6385    3.0296   39.1019 C.3     1  UNL1        0.0000
     21 C           2.7415    1.5837   38.7163 C.3     1  UNL1        0.0003
     22 C           3.2101    1.2054   37.3425 C.3     1  UNL1        0.0044
     23 C           1.5829    1.8633   29.5357 C.2     1  UNL1        0.2461
     24 O           2.3646    1.2053   28.4376 O.2     1  UNL1       -0.2701
     25 N           0.2509    2.4860   29.2388 N.am    1  UNL1       -0.2964
     26 H          -0.2622    2.9179   29.9595 H       1  UNL1        0.1501
     27 C          -0.2993    2.4506   27.8438 C.3     1  UNL1        0.1262
     28 C          -0.9146    1.1110   28.1204 C.3     1  UNL1        0.0290
     29 C           0.3160    3.7903   27.5672 C.3     1  UNL1        0.0290
     30 C          -0.8495    2.4153   26.4488 C.2     1  UNL1        0.2419
     31 O          -0.5282    1.2623   25.5449 O.2     1  UNL1       -0.2731
     32 N          -1.7210    3.5331   25.9578 N.am    1  UNL1       -0.2826
     33 H          -1.9318    4.2899   26.5511 H       1  UNL1        0.1549
     34 C          -2.2711    3.4978   24.5628 C.ar    1  UNL1        0.0503
     35 C          -1.3480    3.6376   23.3887 C.ar    1  UNL1        0.0147
     36 C          -1.8982    3.6023   21.9937 C.ar    1  UNL1        0.0013
     37 C          -3.3715    3.4272   21.7727 C.ar    1  UNL1        0.0001
     38 C          -4.2946    3.2874   22.9467 C.ar    1  UNL1        0.0013
     39 C          -3.7444    3.3227   24.3418 C.ar    1  UNL1        0.0147
     40 C          -3.9216    3.3919   20.3777 C.2     1  UNL1        0.0012
     41 C          -5.3845    3.6254   20.1423 C.2     1  UNL1        0.0151
     42 C          -5.9347    3.5901   18.7472 C.2     1  UNL1        0.0729
     43 O          -7.3944    3.8408   18.5101 O.co2   1  UNL1       -0.5446
     44 O          -5.0250    3.3042   17.5893 O.co2   1  UNL1       -0.5446
@<TRIPOS>UNITY_ATOM_ATTR
43 1
charge -1
@<TRIPOS>BOND
     1     1     2    1
     2     2     3   ar
     3     3    11    1
     4    11    12   ar
     5    12    13   ar
     6    13    14   ar
     7    14    15   ar
     8    15    16   ar
     9     3     4   ar
    10     4    17    1
    11    17    18    1
    12    18    19    1
    13    19    20    1
    14    20    21    1
    15    21    22    1
    16     4     5   ar
    17     5     6   ar
    18     6     7   ar
    19     7     8   ar
    20     8    23    1
    21    23    24    2
    22    23    25   am
    23    25    27    1
    24    27    28    1
    25    27    29    1
    26    27    30    1
    27    30    31    2
    28    30    32   am
    29    32    34    1
    30    34    35   ar
    31    35    36   ar
    32    36    37   ar
    33    37    40    1
    34    40    41    2
    35    41    42    1
    36    42    43   ar
    37    42    44   ar
    38    37    38   ar
    39    38    39   ar
    40     8     9   ar
    41     9    10   ar
    42    10     2   ar
    43    16    11   ar
    44    22    17    1
    45    10     5   ar
    46    39    34   ar
    47    25    26    1
    48    32    33    1
@<TRIPOS>MOLECULE
*****
 44 48 0 0 0
SMALL
GASTEIGER

@<TRIPOS>ATOM
      1 C           5.1356   -2.0373   27.8695 C.3     1  UNL1        0.1305
      2 N           4.7396   -1.3487   29.1419 N.ar    1  UNL1       -0.3242
      3 C           5.4610   -1.4378   30.4540 C.ar    1  UNL1        0.0738
      4 C           4.7199   -0.5943   31.4486 C.ar    1  UNL1       -0.0038
      5 C           3.5405    0.0161   30.7512 C.ar    1  UNL1        0.0133
      6 C           2.4570    0.9362   31.2302 C.ar    1  UNL1        0.0013
      7 C           1.3857    1.3902   30.2835 C.ar    1  UNL1        0.0046
      8 C           1.3979    0.9239   28.8578 C.ar    1  UNL1        0.0548
      9 C           2.4814    0.0038   28.3789 C.ar    1  UNL1        0.0217
     10 C           3.5526   -0.4501   29.3256 C.ar    1  UNL1        0.0598
     11 C           6.7051   -2.2312   30.7241 C.ar    1  UNL1        0.0967
     12 C           6.6014   -3.6539   31.1878 C.ar    1  UNL1        0.0206
     13 C           7.8455   -4.4472   31.4578 C.ar    1  UNL1        0.0032
     14 C           9.1932   -3.8178   31.2642 C.ar    1  UNL1        0.0207
     15 C           9.2968   -2.3951   30.8006 C.ar    1  UNL1        0.0989
     16 N           8.0527   -1.6018   30.5305 N.ar    1  UNL1       -0.2424
     17 C           5.0927   -0.3961   32.8880 C.3     1  UNL1        0.0238
     18 C           6.2508    0.4868   33.2480 C.3     1  UNL1        0.0044
     19 C           6.6236    0.6851   34.6873 C.3     1  UNL1        0.0003
     20 C           5.8384    0.0006   35.7666 C.3     1  UNL1        0.0000
     21 C           4.6804   -0.8822   35.4066 C.3     1  UNL1        0.0003
     22 C           4.3076   -1.0805   33.9673 C.3     1  UNL1        0.0044
     23 C           0.3266    1.3779   27.9111 C.2     1  UNL1        0.2461
     24 O          -1.0809    0.8879   28.0806 O.2     1  UNL1       -0.2701
     25 N           0.6628    2.3218   26.7949 N.am    1  UNL1       -0.2964
     26 H           1.5866    2.6434   26.6836 H       1  UNL1        0.1501
     27 C          -0.4086    2.7758   25.8482 C.3     1  UNL1        0.1262
     28 C          -0.6884    3.9559   26.7307 C.3     1  UNL1        0.0290
     29 C          -0.1287    1.5956   24.9657 C.3     1  UNL1        0.0290
     30 C          -1.4798    3.2297   24.9015 C.2     1  UNL1        0.2419
     31 O          -1.2193    3.2419   23.4243 O.2     1  UNL1       -0.2731
     32 N          -2.8116    3.6713   25.4319 N.am    1  UNL1       -0.2826
     33 H          -2.9826    3.6633   26.4014 H       1  UNL1        0.1549
     34 C          -3.8829    4.1252   24.4852 C.ar    1  UNL1        0.0503
     35 C          -4.1088    5.5901   24.2548 C.ar    1  UNL1        0.0147
     36 C          -5.1800    6.0440   23.3081 C.ar    1  UNL1        0.0013
     37 C          -6.0255    5.0331   22.5917 C.ar    1  UNL1        0.0001
     38 C          -5.7997    3.5682   22.8221 C.ar    1  UNL1        0.0013
     39 C          -4.7283    3.1142   23.7689 C.ar    1  UNL1        0.0147
     40 C          -7.0968    5.4870   21.6450 C.2     1  UNL1        0.0012
     41 C          -6.9105    5.3203   20.1660 C.2     1  UNL1        0.0151
     42 C          -7.9818    5.7743   19.2193 C.2     1  UNL1        0.0729
     43 O          -7.9349    5.3590   17.7787 O.co2   1  UNL1       -0.5446
     44 O          -9.1001    6.6435   19.7132 O.co2   1  UNL1       -0.5446
@<TRIPOS>UNITY_ATOM_ATTR
43 1
charge -1
@<TRIPOS>BOND
     1     1     2    1
     2     2     3   ar
     3     3    11    1
     4    11    12   ar
     5    12    13   ar
     6    13    14   ar
     7    14    15   ar
     8    15    16   ar
     9     3     4   ar
    10     4    17    1
    11    17    18    1
    12    18    19    1
    13    19    20    1
    14    20    21    1
    15    21    22    1
    16     4     5   ar
    17     5     6   ar
    18     6     7   ar
    19     7     8   ar
    20     8    23    1
    21    23    24    2
    22    23    25   am
    23    25    27    1
    24    27    28    1
    25    27    29    1
    26    27    30    1
    27    30    31    2
    28    30    32   am
    29    32    34    1
    30    34    35   ar
    31    35    36   ar
    32    36    37   ar
    33    37    40    1
    34    40    41    2
    35    41    42    1
    36    42    43   ar
    37    42    44   ar
    38    37    38   ar
    39    38    39   ar
    40     8     9   ar
    41     9    10   ar
    42    10     2   ar
    43    16    11   ar
    44    22    17    1
    45    10     5   ar
    46    39    34   ar
    47    25    26    1
    48    32    33    1
@<TRIPOS>MOLECULE
*****
 44 48 0 0 0
SMALL
GASTEIGER

@<TRIPOS>ATOM
      1 C           4.8948   -0.2866   25.5808 C.3     1  UNL1        0.1305
      2 N           5.5316   -1.5401   26.1036 N.ar    1  UNL1       -0.3242
      3 C           6.0263   -2.6891   25.2759 C.ar    1  UNL1        0.0738
      4 C           6.5859   -3.7237   26.2067 C.ar    1  UNL1       -0.0038
      5 C           6.4372   -3.2141   27.6096 C.ar    1  UNL1        0.0133
      6 C           6.8109   -3.8046   28.9368 C.ar    1  UNL1        0.0013
      7 C           6.5330   -3.0456   30.2004 C.ar    1  UNL1        0.0046
      8 C           5.8814   -1.6960   30.1367 C.ar    1  UNL1        0.0548
      9 C           5.5077   -1.1055   28.8095 C.ar    1  UNL1        0.0217
     10 C           5.7856   -1.8645   27.5459 C.ar    1  UNL1        0.0598
     11 C           5.9709   -2.7864   23.7801 C.ar    1  UNL1        0.0967
     12 C           4.8552   -3.5393   23.1182 C.ar    1  UNL1        0.0206
     13 C           4.7999   -3.6366   21.6224 C.ar    1  UNL1        0.0032
     14 C           5.8603   -2.9810   20.7885 C.ar    1  UNL1        0.0207
     15 C           6.9761   -2.2280   21.4503 C.ar    1  UNL1        0.0989
     16 N           7.0314   -2.1307   22.9461 N.ar    1  UNL1       -0.2424
     17 C           7.1886   -5.0373   25.8050 C.3     1  UNL1        0.0238
     18 C           8.2276   -5.0866   24.7241 C.3     1  UNL1        0.0044
     19 C           8.8302   -6.4002   24.3225 C.3     1  UNL1        0.0003
     20 C           8.3939   -7.6645   25.0017 C.3     1  UNL1        0.0000
     21 C           7.3550   -7.6151   26.0825 C.3     1  UNL1        0.0003
     22 C           6.7524   -6.3015   26.4842 C.3     1  UNL1        0.0044
     23 C           5.6035   -0.9369   31.4003 C.2     1  UNL1        0.2461
     24 O           4.9859    0.4284   31.3346 O.2     1  UNL1       -0.2701
     25 N           5.9432   -1.5433   32.7295 N.am    1  UNL1       -0.2964
     26 H           6.3486   -2.4394   32.7727 H       1  UNL1        0.1501
     27 C           5.6653   -0.7842   33.9932 C.3     1  UNL1        0.1262
     28 C           4.2926   -1.3859   34.0528 C.3     1  UNL1        0.0290
     29 C           7.0380   -0.1825   33.9336 C.3     1  UNL1        0.0290
     30 C           5.3875   -0.0252   35.2567 C.2     1  UNL1        0.2419
     31 O           5.9013   -0.5393   36.5688 O.2     1  UNL1       -0.2731
     32 N           4.5958    1.2480   35.2082 N.am    1  UNL1       -0.2826
     33 H           4.2586    1.5854   34.3470 H       1  UNL1        0.1549
     34 C           4.3180    2.0070   36.4718 C.ar    1  UNL1        0.0503
     35 C           3.1588    1.6182   37.3408 C.ar    1  UNL1        0.0147
     36 C           2.8810    2.3773   38.6044 C.ar    1  UNL1        0.0013
     37 C           3.7623    3.5251   38.9990 C.ar    1  UNL1        0.0001
     38 C           4.9214    3.9139   38.1300 C.ar    1  UNL1        0.0013
     39 C           5.1993    3.1549   36.8664 C.ar    1  UNL1        0.0147
     40 C           3.4844    4.2841   40.2625 C.2     1  UNL1        0.0012
     41 C           4.6191    4.7110   41.1459 C.2     1  UNL1        0.0151
     42 C           4.3412    5.4701   42.4095 C.2     1  UNL1        0.0729
     43 O           5.4639    6.1411   43.1437 O.co2   1  UNL1       -0.5446
     44 O           2.9405    5.5580   42.9390 O.co2   1  UNL1       -0.5446
@<TRIPOS>UNITY_ATOM_ATTR
43 1
charge -1
@<TRIPOS>BOND
     1     1     2    1
     2     2     3   ar
     3     3    11    1
     4    11    12   ar
     5    12    13   ar
     6    13    14   ar
     7    14    15   ar
     8    15    16   ar
     9     3     4   ar
    10     4    17    1
    11    17    18    1
    12    18    19    1
    13    19    20    1
    14    20    21    1
    15    21    22    1
    16     4     5   ar
    17     5     6   ar
    18     6     7   ar
    19     7     8   ar
    20     8    23    1
    21    23    24    2
    22    23    25   am
    23    25    27    1
    24    27    28    1
    25    27    29    1
    26    27    30    1
    27    30    31    2
    28    30    32   am
    29    32    34    1
    30    34    35   ar
    31    35    36   ar
    32    36    37   ar
    33    37    40    1
    34    40    41    2
    35    41    42    1
    36    42    43   ar
    37    42    44   ar
    38    37    38   ar
    39    38    39   ar
    40     8     9   ar
    41     9    10   ar
    42    10     2   ar
    43    16    11   ar
    44    22    17    1
    45    10     5   ar
    46    39    34   ar
    47    25    26    1
    48    32    33    1
@<TRIPOS>MOLECULE
*****
 44 48 0 0 0
SMALL
GASTEIGER

@<TRIPOS>ATOM
      1 C           6.3550    2.4598   22.2061 C.3     1  UNL1        0.1305
      2 N           5.8185    1.0591   22.1902 N.ar    1  UNL1       -0.3242
      3 C           5.7169    0.1675   20.9882 C.ar    1  UNL1        0.0738
      4 C           5.1251   -1.1385   21.4287 C.ar    1  UNL1       -0.0038
      5 C           4.8611   -1.0541   22.9028 C.ar    1  UNL1        0.0133
      6 C           4.2857   -2.0386   23.8774 C.ar    1  UNL1        0.0013
      7 C           4.1390   -1.6648   25.3226 C.ar    1  UNL1        0.0046
      8 C           4.5675   -0.3066   25.7933 C.ar    1  UNL1        0.0548
      9 C           5.1428    0.6779   24.8187 C.ar    1  UNL1        0.0217
     10 C           5.2896    0.3041   23.3735 C.ar    1  UNL1        0.0598
     11 C           6.1338    0.5201   19.5911 C.ar    1  UNL1        0.0967
     12 C           5.0957    0.7277   18.5285 C.ar    1  UNL1        0.0206
     13 C           5.5126    1.0803   17.1314 C.ar    1  UNL1        0.0032
     14 C           6.9676    1.2253   16.7970 C.ar    1  UNL1        0.0207
     15 C           8.0057    1.0177   17.8596 C.ar    1  UNL1        0.0989
     16 N           7.5888    0.6651   19.2567 N.ar    1  UNL1       -0.2424
     17 C           4.8464   -2.3214   20.5494 C.3     1  UNL1        0.0238
     18 C           5.8959   -3.3754   20.3551 C.3     1  UNL1        0.0044
     19 C           5.6171   -4.5582   19.4757 C.3     1  UNL1        0.0003
     20 C           4.2889   -4.6871   18.7907 C.3     1  UNL1        0.0000
     21 C           3.2395   -3.6331   18.9850 C.3     1  UNL1        0.0003
     22 C           3.5183   -2.4502   19.8643 C.3     1  UNL1        0.0044
     23 C           4.4207    0.0672   27.2386 C.2     1  UNL1        0.2461
     24 O           4.6404    1.4862   27.6723 O.2     1  UNL1       -0.2701
     25 N           4.0543   -0.9780   28.2501 N.am    1  UNL1       -0.2964
     26 H           3.9101   -1.9094   27.9654 H       1  UNL1        0.1501
     27 C           3.9075   -0.6043   29.6954 C.3     1  UNL1        0.1262
     28 C           5.3708   -0.8552   29.9089 C.3     1  UNL1        0.0290
     29 C           2.4441   -0.3534   29.4818 C.3     1  UNL1        0.0290
     30 C           3.7606   -0.2305   31.1406 C.2     1  UNL1        0.2419
     31 O           2.4085    0.1100   31.6935 O.2     1  UNL1       -0.2731
     32 N           4.9659   -0.1973   32.0329 N.am    1  UNL1       -0.2826
     33 H           5.8534   -0.4208   31.6700 H       1  UNL1        0.1549
     34 C           4.8191    0.1765   33.4781 C.ar    1  UNL1        0.0503
     35 C           4.8107   -0.8911   34.5318 C.ar    1  UNL1        0.0147
     36 C           4.6639   -0.5174   35.9770 C.ar    1  UNL1        0.0013
     37 C           4.5254    0.9240   36.3686 C.ar    1  UNL1        0.0001
     38 C           4.5338    1.9916   35.3150 C.ar    1  UNL1        0.0013
     39 C           4.6806    1.6178   33.8697 C.ar    1  UNL1        0.0147
     40 C           4.3786    1.2977   37.8138 C.2     1  UNL1        0.0012
     41 C           4.6832    2.6966   38.2615 C.2     1  UNL1        0.0151
     42 C           4.5363    3.0703   39.7068 C.2     1  UNL1        0.0729
     43 O           3.2560    3.6781   40.1979 O.co2   1  UNL1       -0.5446
     44 O           5.6699    2.8362   40.6609 O.co2   1  UNL1       -0.5446
@<TRIPOS>UNITY_ATOM_ATTR
43 1
charge -1
@<TRIPOS>BOND
     1     1     2    1
     2     2     3   ar
     3     3    11    1
     4    11    12   ar
     5    12    13   ar
     6    13    14   ar
     7    14    15   ar
     8    15    16   ar
     9     3     4   ar
    10     4    17    1
    11    17    18    1
    12    18    19    1
    13    19    20    1
    14    20    21    1
    15    21    22    1
    16     4     5   ar
    17     5     6   ar
    18     6     7   ar
    19     7     8   ar
    20     8    23    1
    21    23    24    2
    22    23    25   am
    23    25    27    1
    24    27    28    1
    25    27    29    1
    26    27    30    1
    27    30    31    2
    28    30    32   am
    29    32    34    1
    30    34    35   ar
    31    35    36   ar
    32    36    37   ar
    33    37    40    1
    34    40    41    2
    35    41    42    1
    36    42    43   ar
    37    42    44   ar
    38    37    38   ar
    39    38    39   ar
    40     8     9   ar
    41     9    10   ar
    42    10     2   ar
    43    16    11   ar
    44    22    17    1
    45    10     5   ar
    46    39    34   ar
    47    25    26    1
    48    32    33    1
@<TRIPOS>MOLECULE
*****
 44 48 0 0 0
SMALL
GASTEIGER

@<TRIPOS>ATOM
      1 C          -3.1054    4.5773   24.0108 C.3     1  UNL1        0.1305
      2 N          -1.9598    3.7247   23.5518 N.ar    1  UNL1       -0.3242
      3 C          -1.6055    3.4166   22.1271 C.ar    1  UNL1        0.0738
      4 C          -0.3941    2.5320   22.1317 C.ar    1  UNL1       -0.0038
      5 C           0.0004    2.2935   23.5591 C.ar    1  UNL1        0.0133
      6 C           1.1157    1.5004   24.1731 C.ar    1  UNL1        0.0013
      7 C           1.2633    1.4444   25.6648 C.ar    1  UNL1        0.0046
      8 C           0.2956    2.1815   26.5424 C.ar    1  UNL1        0.0548
      9 C          -0.8196    2.9747   25.9284 C.ar    1  UNL1        0.0217
     10 C          -0.9673    3.0307   24.4368 C.ar    1  UNL1        0.0598
     11 C          -2.3347    3.9068   20.9114 C.ar    1  UNL1        0.0967
     12 C          -3.6156    3.2502   20.4895 C.ar    1  UNL1        0.0206
     13 C          -4.3448    3.7405   19.2738 C.ar    1  UNL1        0.0032
     14 C          -3.7930    4.8874   18.4800 C.ar    1  UNL1        0.0207
     15 C          -2.5121    5.5440   18.9019 C.ar    1  UNL1        0.0989
     16 N          -1.7829    5.0537   20.1176 N.ar    1  UNL1       -0.2424
     17 C           0.3009    1.9825   20.9214 C.3     1  UNL1        0.0238
     18 C           0.2853    0.5066   20.6530 C.3     1  UNL1        0.0044
     19 C           0.9803   -0.0429   19.4427 C.3     1  UNL1        0.0003
     20 C           1.6909    0.8832   18.5006 C.3     1  UNL1        0.0000
     21 C           1.7064    2.3589   18.7690 C.3     1  UNL1        0.0003
     22 C           1.0114    2.9085   19.9793 C.3     1  UNL1        0.0044
     23 C           0.4433    2.1255   28.0341 C.2     1  UNL1        0.2461
     24 O          -0.4981    1.2901   28.8501 O.2     1  UNL1       -0.2701
     25 N           1.5324    2.9049   28.7098 N.am    1  UNL1       -0.2964
     26 H           2.1502    3.4532   28.1742 H       1  UNL1        0.1501
     27 C           1.6800    2.8488   30.2015 C.3     1  UNL1        0.1262
     28 C           2.5164    1.6104   30.0722 C.3     1  UNL1        0.0290
     29 C           0.8437    4.0873   30.3307 C.3     1  UNL1        0.0290
     30 C           1.8277    2.7929   31.6931 C.2     1  UNL1        0.2419
     31 O           1.3381    1.5945   32.4507 O.2     1  UNL1       -0.2731
     32 N           2.4649    3.9353   32.4271 N.am    1  UNL1       -0.2826
     33 H           2.7863    4.7218   31.9298 H       1  UNL1        0.1549
     34 C           2.6126    3.8793   33.9188 C.ar    1  UNL1        0.0503
     35 C           1.5931    4.5400   34.7987 C.ar    1  UNL1        0.0147
     36 C           1.7407    4.4840   36.2903 C.ar    1  UNL1        0.0013
     37 C           2.9078    3.7673   36.9021 C.ar    1  UNL1        0.0001
     38 C           3.9273    3.1067   36.0223 C.ar    1  UNL1        0.0013
     39 C           3.7797    3.1627   34.5305 C.ar    1  UNL1        0.0147
     40 C           3.0555    3.7114   38.3937 C.2     1  UNL1        0.0012
     41 C           4.4020    3.9157   39.0223 C.2     1  UNL1        0.0151
     42 C           4.5496    3.8597   40.5141 C.2     1  UNL1        0.0729
     43 O           5.6915    3.1044   41.1269 O.co2   1  UNL1       -0.5446
     44 O           3.5553    4.5590   41.3929 O.co2   1  UNL1       -0.5446
@<TRIPOS>UNITY_ATOM_ATTR
43 1
charge -1
@<TRIPOS>BOND
     1     1     2    1
     2     2     3   ar
     3     3    11    1
     4    11    12   ar
     5    12    13   ar
     6    13    14   ar
     7    14    15   ar
     8    15    16   ar
     9     3     4   ar
    10     4    17    1
    11    17    18    1
    12    18    19    1
    13    19    20    1
    14    20    21    1
    15    21    22    1
    16     4     5   ar
    17     5     6   ar
    18     6     7   ar
    19     7     8   ar
    20     8    23    1
    21    23    24    2
    22    23    25   am
    23    25    27    1
    24    27    28    1
    25    27    29    1
    26    27    30    1
    27    30    31    2
    28    30    32   am
    29    32    34    1
    30    34    35   ar
    31    35    36   ar
    32    36    37   ar
    33    37    40    1
    34    40    41    2
    35    41    42    1
    36    42    43   ar
    37    42    44   ar
    38    37    38   ar
    39    38    39   ar
    40     8     9   ar
    41     9    10   ar
    42    10     2   ar
    43    16    11   ar
    44    22    17    1
    45    10     5   ar
    46    39    34   ar
    47    25    26    1
    48    32    33    1
@<TRIPOS>MOLECULE
*****
 44 48 0 0 0
SMALL
GASTEIGER

@<TRIPOS>ATOM
      1 C           5.7558   -2.4250   23.7780 C.3     1  UNL1        0.1305
      2 N           4.7260   -1.4368   23.3164 N.ar    1  UNL1       -0.3242
      3 C           4.4141   -1.0894   21.8909 C.ar    1  UNL1        0.0738
      4 C           3.3226   -0.0605   21.8928 C.ar    1  UNL1       -0.0038
      5 C           2.9600    0.2281   23.3195 C.ar    1  UNL1        0.0133
      6 C           1.9522    1.1555   23.9310 C.ar    1  UNL1        0.0013
      7 C           1.8116    1.2322   25.4224 C.ar    1  UNL1        0.0046
      8 C           2.6790    0.3816   26.3023 C.ar    1  UNL1        0.0548
      9 C           3.6869   -0.5458   25.6907 C.ar    1  UNL1        0.0217
     10 C           3.8274   -0.6226   24.1993 C.ar    1  UNL1        0.0598
     11 C           5.0771   -1.6692   20.6767 C.ar    1  UNL1        0.0967
     12 C           6.4149   -1.1545   20.2350 C.ar    1  UNL1        0.0206
     13 C           7.0780   -1.7342   19.0208 C.ar    1  UNL1        0.0032
     14 C           6.4032   -2.8287   18.2484 C.ar    1  UNL1        0.0207
     15 C           5.0654   -3.3434   18.6901 C.ar    1  UNL1        0.0989
     16 N           4.4023   -2.7637   19.9043 N.ar    1  UNL1       -0.2424
     17 C           2.7026    0.5694   20.6809 C.3     1  UNL1        0.0238
     18 C           3.2790    1.8333   20.1146 C.3     1  UNL1        0.0044
     19 C           2.6589    2.4632   18.9027 C.3     1  UNL1        0.0003
     20 C           1.4626    1.8293   18.2570 C.3     1  UNL1        0.0000
     21 C           0.8863    0.5655   18.8232 C.3     1  UNL1        0.0003
     22 C           1.5063   -0.0644   20.0352 C.3     1  UNL1        0.0044
     23 C           2.5384    0.4583   27.7937 C.2     1  UNL1        0.2461
     24 O           2.6596   -0.7854   28.6235 O.2     1  UNL1       -0.2701
     25 N           2.2767    1.7788   28.4554 N.am    1  UNL1       -0.2964
     26 H           2.1971    2.5951   27.9108 H       1  UNL1        0.1501
     27 C           2.1361    1.8556   29.9469 C.3     1  UNL1        0.1262
     28 C           3.6081    2.1153   30.0723 C.3     1  UNL1        0.0290
     29 C           0.6641    1.5959   29.8215 C.3     1  UNL1        0.0290
     30 C           1.9955    1.9323   31.4383 C.2     1  UNL1        0.2419
     31 O           0.6805    1.6126   32.0850 O.2     1  UNL1       -0.2731
     32 N           3.1700    2.3289   32.2829 N.am    1  UNL1       -0.2826
     33 H           4.0331    2.5388   31.8584 H       1  UNL1        0.1549
     34 C           3.0293    2.4057   33.7743 C.ar    1  UNL1        0.0503
     35 C           3.6582    1.3560   34.6420 C.ar    1  UNL1        0.0147
     36 C           3.5175    1.4327   36.1334 C.ar    1  UNL1        0.0013
     37 C           2.7481    2.5592   36.7572 C.ar    1  UNL1        0.0001
     38 C           2.1194    3.6089   35.8896 C.ar    1  UNL1        0.0013
     39 C           2.2599    3.5321   34.3981 C.ar    1  UNL1        0.0147
     40 C           2.6075    2.6359   38.2486 C.2     1  UNL1        0.0012
     41 C           1.3334    2.1944   38.9055 C.2     1  UNL1        0.0151
     42 C           1.1928    2.2712   40.3970 C.2     1  UNL1        0.0729
     43 O           0.6294    1.1079   41.1581 O.co2   1  UNL1       -0.5446
     44 O           1.6157    3.5113   41.1273 O.co2   1  UNL1       -0.5446
@<TRIPOS>UNITY_ATOM_ATTR
43 1
charge -1
@<TRIPOS>BOND
     1     1     2    1
     2     2     3   ar
     3     3    11    1
     4    11    12   ar
     5    12    13   ar
     6    13    14   ar
     7    14    15   ar
     8    15    16   ar
     9     3     4   ar
    10     4    17    1
    11    17    18    1
    12    18    19    1
    13    19    20    1
    14    20    21    1
    15    21    22    1
    16     4     5   ar
    17     5     6   ar
    18     6     7   ar
    19     7     8   ar
    20     8    23    1
    21    23    24    2
    22    23    25   am
    23    25    27    1
    24    27    28    1
    25    27    29    1
    26    27    30    1
    27    30    31    2
    28    30    32   am
    29    32    34    1
    30    34    35   ar
    31    35    36   ar
    32    36    37   ar
    33    37    40    1
    34    40    41    2
    35    41    42    1
    36    42    43   ar
    37    42    44   ar
    38    37    38   ar
    39    38    39   ar
    40     8     9   ar
    41     9    10   ar
    42    10     2   ar
    43    16    11   ar
    44    22    17    1
    45    10     5   ar
    46    39    34   ar
    47    25    26    1
    48    32    33    1
@<TRIPOS>MOLECULE
*****
 44 48 0 0 0
SMALL
GASTEIGER

@<TRIPOS>ATOM
      1 C           2.7406   -0.6904   28.6600 C.3     1  UNL1        0.1305
      2 N           2.6056    0.4299   29.6482 N.ar    1  UNL1       -0.3242
      3 C           3.2529    0.4963   30.9997 C.ar    1  UNL1        0.0738
      4 C           2.8468    1.7880   31.6452 C.ar    1  UNL1       -0.0038
      5 C           1.9485    2.5199   30.6926 C.ar    1  UNL1        0.0133
      6 C           1.2471    3.8422   30.7896 C.ar    1  UNL1        0.0013
      7 C           0.3966    4.3252   29.6524 C.ar    1  UNL1        0.0046
      8 C           0.2475    3.4859   28.4182 C.ar    1  UNL1        0.0548
      9 C           0.9489    2.1636   28.3212 C.ar    1  UNL1        0.0217
     10 C           1.7994    1.6806   29.4584 C.ar    1  UNL1        0.0598
     11 C           4.1489   -0.5460   31.6003 C.ar    1  UNL1        0.0967
     12 C           5.6164   -0.5428   31.2897 C.ar    1  UNL1        0.0206
     13 C           6.5124   -1.5851   31.8903 C.ar    1  UNL1        0.0032
     14 C           5.9410   -2.6306   32.8015 C.ar    1  UNL1        0.0207
     15 C           4.4736   -2.6338   33.1122 C.ar    1  UNL1        0.0989
     16 N           3.5775   -1.5915   32.5116 N.ar    1  UNL1       -0.2424
     17 C           3.2655    2.2642   33.0046 C.3     1  UNL1        0.0238
     18 C           2.2770    2.2750   34.1329 C.3     1  UNL1        0.0044
     19 C           2.6957    2.7512   35.4923 C.3     1  UNL1        0.0003
     20 C           4.1027    3.2166   35.7234 C.3     1  UNL1        0.0000
     21 C           5.0912    3.2058   34.5952 C.3     1  UNL1        0.0003
     22 C           4.6725    2.7296   33.2358 C.3     1  UNL1        0.0044
     23 C          -0.6031    3.9689   27.2809 C.2     1  UNL1        0.2461
     24 O          -0.3994    5.3470   26.7247 O.2     1  UNL1       -0.2701
     25 N          -1.6573    3.0738   26.7000 N.am    1  UNL1       -0.2964
     26 H          -1.7910    2.1694   27.0651 H       1  UNL1        0.1501
     27 C          -2.5079    3.5569   25.5628 C.3     1  UNL1        0.1262
     28 C          -1.5026    3.0249   24.5849 C.3     1  UNL1        0.0290
     29 C          -3.5132    4.0889   26.5407 C.3     1  UNL1        0.0290
     30 C          -3.3585    4.0399   24.4256 C.2     1  UNL1        0.2419
     31 O          -3.4477    5.5070   24.1262 O.2     1  UNL1       -0.2731
     32 N          -4.1198    3.0558   23.5878 N.am    1  UNL1       -0.2826
     33 H          -4.0613    2.0929   23.7843 H       1  UNL1        0.1549
     34 C          -4.9704    3.5388   22.4506 C.ar    1  UNL1        0.0503
     35 C          -6.1233    4.4612   22.7155 C.ar    1  UNL1        0.0147
     36 C          -6.9739    4.9442   21.5783 C.ar    1  UNL1        0.0013
     37 C          -6.6716    4.5049   20.1763 C.ar    1  UNL1        0.0001
     38 C          -5.5188    3.5826   19.9114 C.ar    1  UNL1        0.0013
     39 C          -4.6681    3.0995   21.0486 C.ar    1  UNL1        0.0147
     40 C          -7.5222    4.9880   19.0391 C.2     1  UNL1        0.0012
     41 C          -8.3268    6.2454   19.1857 C.2     1  UNL1        0.0151
     42 C          -9.1774    6.7284   18.0485 C.2     1  UNL1        0.0729
     43 O          -8.8446    6.3302   16.6412 O.co2   1  UNL1       -0.5446
     44 O         -10.3608    7.6096   18.3187 O.co2   1  UNL1       -0.5446
@<TRIPOS>UNITY_ATOM_ATTR
43 1
charge -1
@<TRIPOS>BOND
     1     1     2    1
     2     2     3   ar
     3     3    11    1
     4    11    12   ar
     5    12    13   ar
     6    13    14   ar
     7    14    15   ar
     8    15    16   ar
     9     3     4   ar
    10     4    17    1
    11    17    18    1
    12    18    19    1
    13    19    20    1
    14    20    21    1
    15    21    22    1
    16     4     5   ar
    17     5     6   ar
    18     6     7   ar
    19     7     8   ar
    20     8    23    1
    21    23    24    2
    22    23    25   am
    23    25    27    1
    24    27    28    1
    25    27    29    1
    26    27    30    1
    27    30    31    2
    28    30    32   am
    29    32    34    1
    30    34    35   ar
    31    35    36   ar
    32    36    37   ar
    33    37    40    1
    34    40    41    2
    35    41    42    1
    36    42    43   ar
    37    42    44   ar
    38    37    38   ar
    39    38    39   ar
    40     8     9   ar
    41     9    10   ar
    42    10     2   ar
    43    16    11   ar
    44    22    17    1
    45    10     5   ar
    46    39    34   ar
    47    25    26    1
    48    32    33    1
