@<TRIPOS>MOLECULE
*****
 22 25 0 0 0
SMALL
GASTEIGER

@<TRIPOS>ATOM
      1 O          -6.8484  -19.3660   22.3206 O.2     1  UNL1       -0.2448
      2 C          -7.7173  -18.1574   22.5046 C.2     1  UNL1        0.3428
      3 C          -9.1310  -18.3153   22.9806 C.2     1  UNL1        0.0959
      4 C          -9.5697  -19.0512   24.2118 C.2     1  UNL1        0.1049
      5 N         -11.0640  -18.9557   24.3010 N.2     1  UNL1       -0.2476
      6 C         -11.5488  -18.1608   23.1250 C.2     1  UNL1        0.0637
      7 C         -12.9237  -17.7463   22.6917 C.3     1  UNL1        0.0726
      8 C         -13.1039  -16.9360   21.4424 C.2     1  UNL1       -0.0084
      9 C         -11.9092  -16.5402   20.6263 C.2     1  UNL1        0.0538
     10 CL        -12.0895  -15.7298   19.3769 Cl      1  UNL1       -0.0826
     11 C         -10.5343  -16.9547   21.0595 C.2     1  UNL1        0.0125
     12 C         -10.3541  -17.7650   22.3089 C.2     1  UNL1        0.0225
     13 O          -7.1725  -16.7906   22.2126 O.3     1  UNL1       -0.4454
     14 C          -7.6434  -15.6096   23.0086 C.3     1  UNL1        0.2087
     15 C          -7.3506  -15.5306   24.4776 C.3     1  UNL1        0.0445
     16 C          -5.9366  -15.3742   24.9532 C.3     1  UNL1        0.0210
     17 C          -5.6439  -15.2952   26.4222 C.3     1  UNL1        0.0722
     18 N          -6.7651  -15.3725   27.4157 N.3     1  UNL1       -0.2727
     19 C          -8.1791  -15.5288   26.9401 C.3     1  UNL1        0.0722
     20 C          -8.4718  -15.6079   25.4710 C.3     1  UNL1        0.0210
     21 C          -6.9747  -15.4203   26.6209 C.3     1  UNL1        0.0722
     22 C          -7.2395  -15.4918   25.2926 C.3     1  UNL1        0.0210
@<TRIPOS>BOND
     1     1     2    2
     2     2    13    1
     3    13    14    1
     4    14    15    1
     5    15    16    1
     6    16    17    1
     7    17    18    1
     8    18    19    1
     9    19    20    1
    10    18    21    1
    11    21    22    1
    12     2     3    1
    13     3     4    2
    14     4     5    1
    15     5     6    2
    16     6     7    1
    17     7     8    1
    18     8     9    2
    19     9    10    1
    20     9    11    1
    21    11    12    2
    22    20    15    1
    23    12     3    1
    24    22    15    1
    25    12     6    1
@<TRIPOS>MOLECULE
*****
 22 25 0 0 0
SMALL
GASTEIGER

@<TRIPOS>ATOM
      1 O          -7.3164  -15.7272   24.7910 O.2     1  UNL1       -0.2448
      2 C          -7.7689  -16.7092   23.7514 C.2     1  UNL1        0.3428
      3 C          -9.1492  -17.2921   23.8206 C.2     1  UNL1        0.0959
      4 C          -9.6898  -18.1496   24.9262 C.2     1  UNL1        0.1049
      5 N         -11.1061  -18.5072   24.5851 N.2     1  UNL1       -0.2476
      6 C         -11.4408  -17.8707   23.2688 C.2     1  UNL1        0.0637
      7 C         -12.6906  -17.8780   22.4394 C.3     1  UNL1        0.0726
      8 C         -12.7309  -17.1342   21.1374 C.2     1  UNL1       -0.0084
      9 C         -11.5215  -16.3832   20.6649 C.2     1  UNL1        0.0538
     10 CL        -11.5619  -15.6394   19.3628 Cl      1  UNL1       -0.0826
     11 C         -10.2718  -16.3759   21.4943 C.2     1  UNL1        0.0125
     12 C         -10.2314  -17.1197   22.7962 C.2     1  UNL1        0.0225
     13 O          -6.8408  -17.1084   22.6425 O.3     1  UNL1       -0.4454
     14 C          -6.7409  -18.5469   22.2294 C.3     1  UNL1        0.2087
     15 C          -5.4314  -19.1007   21.7516 C.3     1  UNL1        0.0445
     16 C          -5.3631  -19.8520   20.4551 C.3     1  UNL1        0.0210
     17 C          -4.0535  -20.4057   19.9773 C.3     1  UNL1        0.0722
     18 N          -2.8122  -20.2083   20.7960 N.3     1  UNL1       -0.2727
     19 C          -2.8805  -19.4571   22.0925 C.3     1  UNL1        0.0722
     20 C          -4.1902  -18.9033   22.5703 C.3     1  UNL1        0.0210
     21 C          -3.5070  -19.8865   21.0988 C.3     1  UNL1        0.0722
     22 C          -4.6911  -19.3857   21.5309 C.3     1  UNL1        0.0210
@<TRIPOS>BOND
     1     1     2    2
     2     2    13    1
     3    13    14    1
     4    14    15    1
     5    15    16    1
     6    16    17    1
     7    17    18    1
     8    18    19    1
     9    19    20    1
    10    18    21    1
    11    21    22    1
    12     2     3    1
    13     3     4    2
    14     4     5    1
    15     5     6    2
    16     6     7    1
    17     7     8    1
    18     8     9    2
    19     9    10    1
    20     9    11    1
    21    11    12    2
    22    20    15    1
    23    12     3    1
    24    22    15    1
    25    12     6    1
@<TRIPOS>MOLECULE
*****
 22 25 0 0 0
SMALL
GASTEIGER

@<TRIPOS>ATOM
      1 O          -7.0436  -18.0102   20.9866 O.2     1  UNL1       -0.2448
      2 C          -7.4380  -19.2629   21.7111 C.2     1  UNL1        0.3428
      3 C          -8.7671  -19.3429   22.4018 C.2     1  UNL1        0.0959
      4 C          -9.0959  -20.2057   23.5840 C.2     1  UNL1        0.1049
      5 N         -10.5328  -19.9702   23.9443 N.2     1  UNL1       -0.2476
      6 C         -11.0921  -18.9619   22.9849 C.2     1  UNL1        0.0637
      7 C         -12.4540  -18.3468   22.8562 C.3     1  UNL1        0.0726
      8 C         -12.7247  -17.3439   21.7742 C.2     1  UNL1       -0.0084
      9 C         -11.6335  -16.9562   20.8208 C.2     1  UNL1        0.0538
     10 CL        -11.9043  -15.9532   19.7387 Cl      1  UNL1       -0.0826
     11 C         -10.2716  -17.5713   20.9495 C.2     1  UNL1        0.0125
     12 C         -10.0009  -18.5742   22.0316 C.2     1  UNL1        0.0225
     13 O          -6.5033  -20.4356   21.7450 O.3     1  UNL1       -0.4454
     14 C          -5.5081  -20.6337   20.6403 C.3     1  UNL1        0.2087
     15 C          -4.2339  -19.8424   20.6281 C.3     1  UNL1        0.0445
     16 C          -3.3998  -19.7447   21.8709 C.3     1  UNL1        0.0210
     17 C          -2.1255  -18.9534   21.8586 C.3     1  UNL1        0.0722
     18 N          -1.6853  -18.2599   20.6035 N.3     1  UNL1       -0.2727
     19 C          -2.5194  -18.3576   19.3606 C.3     1  UNL1        0.0722
     20 C          -3.7938  -19.1490   19.3729 C.3     1  UNL1        0.0210
     21 C          -2.3912  -18.6819   20.5618 C.3     1  UNL1        0.0722
     22 C          -3.5434  -19.3973   20.5728 C.3     1  UNL1        0.0210
@<TRIPOS>BOND
     1     1     2    2
     2     2    13    1
     3    13    14    1
     4    14    15    1
     5    15    16    1
     6    16    17    1
     7    17    18    1
     8    18    19    1
     9    19    20    1
    10    18    21    1
    11    21    22    1
    12     2     3    1
    13     3     4    2
    14     4     5    1
    15     5     6    2
    16     6     7    1
    17     7     8    1
    18     8     9    2
    19     9    10    1
    20     9    11    1
    21    11    12    2
    22    20    15    1
    23    12     3    1
    24    22    15    1
    25    12     6    1
@<TRIPOS>MOLECULE
*****
 22 25 0 0 0
SMALL
GASTEIGER

@<TRIPOS>ATOM
      1 O          -6.5770  -15.9241   23.1311 O.2     1  UNL1       -0.2448
      2 C          -7.4484  -17.1436   23.0736 C.2     1  UNL1        0.3428
      3 C          -7.1703  -18.2173   22.0637 C.2     1  UNL1        0.0959
      4 C          -8.1937  -18.9302   21.2303 C.2     1  UNL1        0.1049
      5 N          -7.4758  -19.9201   20.3615 N.2     1  UNL1       -0.2476
      6 C          -6.0089  -19.8189   20.6579 C.2     1  UNL1        0.0637
      7 C          -4.8207  -20.5491   20.1057 C.3     1  UNL1        0.0726
      8 C          -3.4436  -20.2269   20.6056 C.2     1  UNL1       -0.0084
      9 C          -3.2548  -19.1745   21.6576 C.2     1  UNL1        0.0538
     10 CL         -1.8777  -18.8523   22.1575 Cl      1  UNL1       -0.0826
     11 C          -4.4430  -18.4443   22.2098 C.2     1  UNL1        0.0125
     12 C          -5.8201  -18.7665   21.7099 C.2     1  UNL1        0.0225
     13 O          -8.5981  -17.2894   24.0261 O.3     1  UNL1       -0.4454
     14 C          -9.8033  -16.4072   23.8876 C.3     1  UNL1        0.2087
     15 C         -10.7541  -16.6104   22.7454 C.3     1  UNL1        0.0445
     16 C         -11.9593  -17.4863   22.9195 C.3     1  UNL1        0.0210
     17 C         -12.9101  -17.6894   21.7772 C.3     1  UNL1        0.0722
     18 N         -12.6557  -17.0167   20.4609 N.3     1  UNL1       -0.2727
     19 C         -11.4505  -16.1409   20.2868 C.3     1  UNL1        0.0722
     20 C         -10.4997  -15.9377   21.4291 C.3     1  UNL1        0.0210
     21 C         -12.1064  -16.8754   21.0578 C.3     1  UNL1        0.0722
     22 C         -11.2467  -16.6916   22.0906 C.3     1  UNL1        0.0210
@<TRIPOS>BOND
     1     1     2    2
     2     2    13    1
     3    13    14    1
     4    14    15    1
     5    15    16    1
     6    16    17    1
     7    17    18    1
     8    18    19    1
     9    19    20    1
    10    18    21    1
    11    21    22    1
    12     2     3    1
    13     3     4    2
    14     4     5    1
    15     5     6    2
    16     6     7    1
    17     7     8    1
    18     8     9    2
    19     9    10    1
    20     9    11    1
    21    11    12    2
    22    20    15    1
    23    12     3    1
    24    22    15    1
    25    12     6    1
@<TRIPOS>MOLECULE
*****
 22 25 0 0 0
SMALL
GASTEIGER

@<TRIPOS>ATOM
      1 O          -6.0679  -18.5423   19.7888 O.2     1  UNL1       -0.2448
      2 C          -6.3539  -18.8835   21.2211 C.2     1  UNL1        0.3428
      3 C          -7.5273  -18.2633   21.9200 C.2     1  UNL1        0.0959
      4 C          -8.9729  -18.5421   21.6326 C.2     1  UNL1        0.1049
      5 N          -9.8001  -17.7065   22.5640 N.2     1  UNL1       -0.2476
      6 C          -8.8658  -16.9113   23.4270 C.2     1  UNL1        0.0637
      7 C          -9.1126  -15.9183   24.5238 C.3     1  UNL1        0.0726
      8 C          -7.9547  -15.2695   25.2226 C.2     1  UNL1       -0.0084
      9 C          -6.5500  -15.6136   24.8245 C.2     1  UNL1        0.0538
     10 CL         -5.3921  -14.9647   25.5234 Cl      1  UNL1       -0.0826
     11 C          -6.3032  -16.6066   23.7277 C.2     1  UNL1        0.0125
     12 C          -7.4611  -17.2554   23.0290 C.2     1  UNL1        0.0225
     13 O          -5.4665  -19.8450   21.9546 O.3     1  UNL1       -0.4454
     14 C          -4.2351  -19.3470   22.6515 C.3     1  UNL1        0.2087
     15 C          -3.2334  -18.5182   21.9034 C.3     1  UNL1        0.0445
     16 C          -2.5599  -19.0751   20.6843 C.3     1  UNL1        0.0210
     17 C          -1.5582  -18.2463   19.9363 C.3     1  UNL1        0.0722
     18 N          -1.2300  -16.8604   20.4072 N.3     1  UNL1       -0.2727
     19 C          -1.9036  -16.3034   21.6262 C.3     1  UNL1        0.0722
     20 C          -2.9053  -17.1323   22.3744 C.3     1  UNL1        0.0210
     21 C          -1.7856  -17.2769   20.8499 C.3     1  UNL1        0.0722
     22 C          -2.6913  -18.0263   21.5264 C.3     1  UNL1        0.0210
@<TRIPOS>BOND
     1     1     2    2
     2     2    13    1
     3    13    14    1
     4    14    15    1
     5    15    16    1
     6    16    17    1
     7    17    18    1
     8    18    19    1
     9    19    20    1
    10    18    21    1
    11    21    22    1
    12     2     3    1
    13     3     4    2
    14     4     5    1
    15     5     6    2
    16     6     7    1
    17     7     8    1
    18     8     9    2
    19     9    10    1
    20     9    11    1
    21    11    12    2
    22    20    15    1
    23    12     3    1
    24    22    15    1
    25    12     6    1
@<TRIPOS>MOLECULE
*****
 22 25 0 0 0
SMALL
GASTEIGER

@<TRIPOS>ATOM
      1 O          -9.0289  -18.4488   23.8943 O.2     1  UNL1       -0.2448
      2 C          -8.4377  -17.8351   22.6599 C.2     1  UNL1        0.3428
      3 C          -7.6369  -18.6785   21.7127 C.2     1  UNL1        0.0959
      4 C          -8.1873  -19.5148   20.5958 C.2     1  UNL1        0.1049
      5 N          -7.0355  -20.1869   19.9089 N.2     1  UNL1       -0.2476
      6 C          -5.7733  -19.7659   20.6013 C.2     1  UNL1        0.0637
      7 C          -4.3335  -20.1110   20.3607 C.3     1  UNL1        0.0726
      8 C          -3.2654  -19.5238   21.2350 C.2     1  UNL1       -0.0084
      9 C          -3.6370  -18.5916   22.3498 C.2     1  UNL1        0.0538
     10 CL         -2.5688  -18.0044   23.2240 Cl      1  UNL1       -0.0826
     11 C          -5.0768  -18.2465   22.5904 C.2     1  UNL1        0.0125
     12 C          -6.1449  -18.8337   21.7162 C.2     1  UNL1        0.0225
     13 O          -8.6475  -16.3778   22.3727 O.3     1  UNL1       -0.4454
     14 C          -7.7222  -15.3560   22.9642 C.3     1  UNL1        0.2087
     15 C          -7.3683  -15.4186   24.4204 C.3     1  UNL1        0.0445
     16 C          -8.4527  -15.4139   25.4568 C.3     1  UNL1        0.0210
     17 C          -8.0987  -15.4765   26.9130 C.3     1  UNL1        0.0722
     18 N          -6.6602  -15.5438   27.3331 N.3     1  UNL1       -0.2727
     19 C          -5.5758  -15.5486   26.2967 C.3     1  UNL1        0.0722
     20 C          -5.9298  -15.4860   24.8404 C.3     1  UNL1        0.0210
     21 C          -6.8053  -15.5109   26.5232 C.3     1  UNL1        0.0722
     22 C          -7.1253  -15.4543   25.2064 C.3     1  UNL1        0.0210
@<TRIPOS>BOND
     1     1     2    2
     2     2    13    1
     3    13    14    1
     4    14    15    1
     5    15    16    1
     6    16    17    1
     7    17    18    1
     8    18    19    1
     9    19    20    1
    10    18    21    1
    11    21    22    1
    12     2     3    1
    13     3     4    2
    14     4     5    1
    15     5     6    2
    16     6     7    1
    17     7     8    1
    18     8     9    2
    19     9    10    1
    20     9    11    1
    21    11    12    2
    22    20    15    1
    23    12     3    1
    24    22    15    1
    25    12     6    1
@<TRIPOS>MOLECULE
*****
 22 25 0 0 0
SMALL
GASTEIGER

@<TRIPOS>ATOM
      1 O          -7.6904  -19.2889   19.1084 O.2     1  UNL1       -0.2448
      2 C          -7.1253  -19.4788   20.4847 C.2     1  UNL1        0.3428
      3 C          -7.4431  -18.4920   21.5688 C.2     1  UNL1        0.0959
      4 C          -6.4530  -17.8509   22.4954 C.2     1  UNL1        0.1049
      5 N          -7.2048  -16.9357   23.4158 N.2     1  UNL1       -0.2476
      6 C          -8.6596  -17.0112   23.0580 C.2     1  UNL1        0.0637
      7 C          -9.8692  -16.3283   23.6242 C.3     1  UNL1        0.0726
      8 C         -11.2260  -16.6073   23.0488 C.2     1  UNL1       -0.0084
      9 C         -11.3733  -17.5691   21.9072 C.2     1  UNL1        0.0538
     10 CL        -12.7302  -17.8481   21.3318 Cl      1  UNL1       -0.0826
     11 C         -10.1637  -18.2520   21.3411 C.2     1  UNL1        0.0125
     12 C          -8.8069  -17.9730   21.9164 C.2     1  UNL1        0.0225
     13 O          -6.2423  -20.6557   20.7771 O.3     1  UNL1       -0.4454
     14 C          -4.8834  -20.7482   20.1489 C.3     1  UNL1        0.2087
     15 C          -3.8594  -19.6855   20.4170 C.3     1  UNL1        0.0445
     16 C          -3.5209  -18.6844   19.3524 C.3     1  UNL1        0.0210
     17 C          -2.4969  -17.6217   19.6206 C.3     1  UNL1        0.0722
     18 N          -1.8113  -17.5599   20.9534 N.3     1  UNL1       -0.2727
     19 C          -2.1497  -18.5610   22.0179 C.3     1  UNL1        0.0722
     20 C          -3.1738  -19.6238   21.7497 C.3     1  UNL1        0.0210
     21 C          -2.3656  -18.1605   20.8529 C.3     1  UNL1        0.0722
     22 C          -3.2915  -19.1214   20.6105 C.3     1  UNL1        0.0210
@<TRIPOS>BOND
     1     1     2    2
     2     2    13    1
     3    13    14    1
     4    14    15    1
     5    15    16    1
     6    16    17    1
     7    17    18    1
     8    18    19    1
     9    19    20    1
    10    18    21    1
    11    21    22    1
    12     2     3    1
    13     3     4    2
    14     4     5    1
    15     5     6    2
    16     6     7    1
    17     7     8    1
    18     8     9    2
    19     9    10    1
    20     9    11    1
    21    11    12    2
    22    20    15    1
    23    12     3    1
    24    22    15    1
    25    12     6    1
@<TRIPOS>MOLECULE
*****
 22 25 0 0 0
SMALL
GASTEIGER

@<TRIPOS>ATOM
      1 O          -5.9540  -14.7804   25.2630 O.2     1  UNL1       -0.2448
      2 C          -6.2098  -15.6615   24.0764 C.2     1  UNL1        0.3428
      3 C          -7.5853  -16.2065   23.8294 C.2     1  UNL1        0.0959
      4 C          -8.8487  -15.7451   24.4932 C.2     1  UNL1        0.1049
      5 N          -9.9831  -16.5621   23.9493 N.2     1  UNL1       -0.2476
      6 C          -9.4207  -17.5284   22.9494 C.2     1  UNL1        0.0637
      7 C         -10.0665  -18.5800   22.0968 C.3     1  UNL1        0.0726
      8 C          -9.2304  -19.4119   21.1701 C.2     1  UNL1       -0.0084
      9 C          -7.7484  -19.1921   21.0960 C.2     1  UNL1        0.0538
     10 CL         -6.9123  -20.0241   20.1692 Cl      1  UNL1       -0.0826
     11 C          -7.1026  -18.1405   21.9486 C.2     1  UNL1        0.0125
     12 C          -7.9387  -17.3087   22.8753 C.2     1  UNL1        0.0225
     13 O          -5.0899  -15.9976   23.1365 O.3     1  UNL1       -0.4454
     14 C          -4.0173  -16.9567   23.5604 C.3     1  UNL1        0.2087
     15 C          -3.1798  -17.6497   22.5269 C.3     1  UNL1        0.0445
     16 C          -3.3866  -19.1092   22.2494 C.3     1  UNL1        0.0210
     17 C          -2.5491  -19.8022   21.2158 C.3     1  UNL1        0.0722
     18 N          -1.5046  -19.0356   20.4597 N.3     1  UNL1       -0.2727
     19 C          -1.2978  -17.5761   20.7372 C.3     1  UNL1        0.0722
     20 C          -2.1354  -16.8831   21.7708 C.3     1  UNL1        0.0210
     21 C          -1.9393  -18.6128   21.0167 C.3     1  UNL1        0.0722
     22 C          -2.6966  -17.9861   21.9513 C.3     1  UNL1        0.0210
@<TRIPOS>BOND
     1     1     2    2
     2     2    13    1
     3    13    14    1
     4    14    15    1
     5    15    16    1
     6    16    17    1
     7    17    18    1
     8    18    19    1
     9    19    20    1
    10    18    21    1
    11    21    22    1
    12     2     3    1
    13     3     4    2
    14     4     5    1
    15     5     6    2
    16     6     7    1
    17     7     8    1
    18     8     9    2
    19     9    10    1
    20     9    11    1
    21    11    12    2
    22    20    15    1
    23    12     3    1
    24    22    15    1
    25    12     6    1
@<TRIPOS>MOLECULE
*****
 22 25 0 0 0
SMALL
GASTEIGER

@<TRIPOS>ATOM
      1 O          -6.8282  -20.9595   19.8662 O.2     1  UNL1       -0.2448
      2 C          -7.4464  -19.6091   20.0764 C.2     1  UNL1        0.3428
      3 C          -6.9554  -18.7235   21.1830 C.2     1  UNL1        0.0959
      4 C          -7.7960  -17.7937   22.0070 C.2     1  UNL1        0.1049
      5 N          -6.8977  -17.1077   22.9931 N.2     1  UNL1       -0.2476
      6 C          -5.5019  -17.6135   22.7786 C.2     1  UNL1        0.0637
      7 C          -4.2031  -17.2938   23.4575 C.3     1  UNL1        0.0726
      8 C          -2.9400  -17.9727   23.0176 C.2     1  UNL1       -0.0084
      9 C          -2.9756  -18.9713   21.8988 C.2     1  UNL1        0.0538
     10 CL         -1.7124  -19.6502   21.4589 Cl      1  UNL1       -0.0826
     11 C          -4.2744  -19.2910   21.2200 C.2     1  UNL1        0.0125
     12 C          -5.5376  -18.6121   21.6599 C.2     1  UNL1        0.0225
     13 O          -8.5557  -19.1443   19.1799 O.3     1  UNL1       -0.4454
     14 C          -9.9612  -19.6080   19.4237 C.3     1  UNL1        0.2087
     15 C         -10.8343  -18.8750   20.3985 C.3     1  UNL1        0.0445
     16 C         -11.4480  -17.5611   20.0150 C.3     1  UNL1        0.0210
     17 C         -12.3210  -16.8281   20.9900 C.3     1  UNL1        0.0722
     18 N         -12.5804  -17.4090   22.3484 N.3     1  UNL1       -0.2727
     19 C         -11.9668  -18.7229   22.7319 C.3     1  UNL1        0.0722
     20 C         -11.0936  -19.4559   21.7570 C.3     1  UNL1        0.0210
     21 C         -12.0952  -17.8474   21.8480 C.3     1  UNL1        0.0722
     22 C         -11.3057  -18.5102   20.9666 C.3     1  UNL1        0.0210
@<TRIPOS>BOND
     1     1     2    2
     2     2    13    1
     3    13    14    1
     4    14    15    1
     5    15    16    1
     6    16    17    1
     7    17    18    1
     8    18    19    1
     9    19    20    1
    10    18    21    1
    11    21    22    1
    12     2     3    1
    13     3     4    2
    14     4     5    1
    15     5     6    2
    16     6     7    1
    17     7     8    1
    18     8     9    2
    19     9    10    1
    20     9    11    1
    21    11    12    2
    22    20    15    1
    23    12     3    1
    24    22    15    1
    25    12     6    1
