@<TRIPOS>MOLECULE
*****
 31 32 0 0 0
SMALL
GASTEIGER

@<TRIPOS>ATOM
      1 N          -3.4328  -18.7655   21.4953 N.3     1  UNL1       -0.2689
      2 C          -3.7346  -18.6295   20.0324 C.3     1  UNL1        0.0897
      3 C          -4.9808  -19.2406   19.4636 C.3     1  UNL1        0.0900
      4 N          -5.9252  -19.9878   20.3578 N.3     1  UNL1       -0.2626
      5 C          -5.6235  -20.1238   21.8208 C.3     1  UNL1        0.0900
      6 C          -4.3773  -19.5127   22.3896 C.3     1  UNL1        0.0897
      7 C          -2.1866  -18.1544   22.0641 C.3     1  UNL1        0.0937
      8 C          -2.1834  -16.7161   22.4896 C.3     1  UNL1        0.1082
      9 N          -5.7553  -15.3817   23.5900 N.am    1  UNL1       -0.2921
     10 C          -4.4756  -16.1640   23.5811 C.2     1  UNL1        0.3007
     11 O          -4.2082  -17.1767   24.6549 O.2     1  UNL1       -0.2528
     12 N          -3.4632  -15.9337   22.4985 N.am    1  UNL1       -0.2875
     13 H          -5.9308  -14.7170   22.8853 H       1  UNL1        0.1508
     14 H          -3.6387  -15.2690   21.7937 H       1  UNL1        0.1510
     15 C          -5.8618  -14.9415   25.6624 C.3     1  UNL1        0.0197
     16 C          -6.7677  -15.6119   24.6726 C.3     1  UNL1        0.0583
     17 C          -7.6736  -16.2824   23.6828 C.3     1  UNL1        0.0197
     18 C          -7.7801  -15.8423   25.7552 C.3     1  UNL1        0.0197
     19 C          -7.1714  -20.5989   19.7891 C.3     1  UNL1        0.1588
     20 C          -8.4843  -19.8856   19.9213 C.2     1  UNL1        0.2425
     21 O          -9.5448  -20.0665   18.8760 O.2     1  UNL1       -0.2733
     22 N          -8.7368  -18.9914   21.0989 N.am    1  UNL1       -0.2827
     23 H          -8.0408  -18.8727   21.7850 H       1  UNL1        0.1549
     24 C         -10.0498  -18.2782   21.2312 C.ar    1  UNL1        0.0520
     25 C         -10.4657  -17.2748   20.1967 C.ar    1  UNL1        0.0261
     26 C         -11.7787  -16.5615   20.3289 C.ar    1  UNL1        0.0597
     27 CL        -12.1947  -15.5581   19.2945 Cl      1  UNL1       -0.0822
     28 C         -12.6756  -16.8517   21.4957 C.ar    1  UNL1        0.0229
     29 C         -12.2596  -17.8551   22.5302 C.ar    1  UNL1        0.0597
     30 CL        -13.1565  -18.1452   23.6969 Cl      1  UNL1       -0.0822
     31 C         -10.9467  -18.5683   22.3979 C.ar    1  UNL1        0.0261
@<TRIPOS>BOND
     1    15    16    1
     2    16    17    1
     3    16    18    1
     4    16     9    1
     5     9    10   am
     6    10    11    2
     7    10    12   am
     8    12     8    1
     9     8     7    1
    10     7     1    1
    11     1     2    1
    12     2     3    1
    13     3     4    1
    14     4    19    1
    15    19    20    1
    16    20    21    2
    17    20    22   am
    18    22    24    1
    19    24    25   ar
    20    25    26   ar
    21    26    27    1
    22    26    28   ar
    23    28    29   ar
    24    29    30    1
    25    29    31   ar
    26     4     5    1
    27     5     6    1
    28     6     1    1
    29    31    24   ar
    30     9    13    1
    31    12    14    1
    32    22    23    1
@<TRIPOS>MOLECULE
*****
 31 32 0 0 0
SMALL
GASTEIGER

@<TRIPOS>ATOM
      1 N           8.6499   -7.4633   26.7500 N.3     1  UNL1       -0.2689
      2 C           8.2295   -7.1838   25.3375 C.3     1  UNL1        0.0897
      3 C           7.6465   -5.8492   24.9786 C.3     1  UNL1        0.0900
      4 N           7.4839   -4.7940   26.0322 N.3     1  UNL1       -0.2626
      5 C           7.9043   -5.0735   27.4447 C.3     1  UNL1        0.0900
      6 C           8.4873   -6.4081   27.8036 C.3     1  UNL1        0.0897
      7 C           9.2328   -8.7980   27.1089 C.3     1  UNL1        0.0937
      8 C           8.4129   -9.7928   27.8757 C.3     1  UNL1        0.1082
      9 N           4.8079  -11.4248   27.5749 N.am    1  UNL1       -0.2921
     10 C           6.2653  -11.2549   27.8865 C.2     1  UNL1        0.3007
     11 O           7.0325  -12.3771   28.5206 O.2     1  UNL1       -0.2528
     12 N           6.9555   -9.9627   27.5640 N.am    1  UNL1       -0.2875
     13 H           4.3044  -10.6883   27.1587 H       1  UNL1        0.1508
     14 H           6.4520   -9.2262   27.1479 H       1  UNL1        0.1510
     15 C           4.4232  -13.2241   26.5192 C.3     1  UNL1        0.0197
     16 C           4.1176  -12.7169   27.8974 C.3     1  UNL1        0.0583
     17 C           3.8121  -12.2098   29.2755 C.3     1  UNL1        0.0197
     18 C           3.4274  -14.0091   28.2199 C.3     1  UNL1        0.0197
     19 C           6.9010   -3.4593   25.6733 C.3     1  UNL1        0.1588
     20 C           6.4122   -3.2050   24.2782 C.2     1  UNL1        0.2425
     21 O           7.3889   -2.8659   23.1914 O.2     1  UNL1       -0.2733
     22 N           4.9467   -3.2899   23.9698 N.am    1  UNL1       -0.2827
     23 H           4.3056   -3.5124   24.6831 H       1  UNL1        0.1549
     24 C           4.4578   -3.0356   22.5747 C.ar    1  UNL1        0.0520
     25 C           3.8178   -1.7231   22.2317 C.ar    1  UNL1        0.0261
     26 C           3.3290   -1.4688   20.8365 C.ar    1  UNL1        0.0597
     27 CL          2.6890   -0.1563   20.4936 Cl      1  UNL1       -0.0822
     28 C           3.4803   -2.5271   19.7843 C.ar    1  UNL1        0.0229
     29 C           4.1203   -3.8397   20.1273 C.ar    1  UNL1        0.0597
     30 CL          4.2715   -4.8980   19.0751 Cl      1  UNL1       -0.0822
     31 C           4.6091   -4.0939   21.5224 C.ar    1  UNL1        0.0261
@<TRIPOS>BOND
     1    15    16    1
     2    16    17    1
     3    16    18    1
     4    16     9    1
     5     9    10   am
     6    10    11    2
     7    10    12   am
     8    12     8    1
     9     8     7    1
    10     7     1    1
    11     1     2    1
    12     2     3    1
    13     3     4    1
    14     4    19    1
    15    19    20    1
    16    20    21    2
    17    20    22   am
    18    22    24    1
    19    24    25   ar
    20    25    26   ar
    21    26    27    1
    22    26    28   ar
    23    28    29   ar
    24    29    30    1
    25    29    31   ar
    26     4     5    1
    27     5     6    1
    28     6     1    1
    29    31    24   ar
    30     9    13    1
    31    12    14    1
    32    22    23    1
@<TRIPOS>MOLECULE
*****
 31 32 0 0 0
SMALL
GASTEIGER

@<TRIPOS>ATOM
      1 N           8.7362   -7.5486   26.6700 N.3     1  UNL1       -0.2689
      2 C           8.8093   -6.4171   27.6519 C.3     1  UNL1        0.0897
      3 C           8.2324   -5.0785   27.2980 C.3     1  UNL1        0.0900
      4 N           7.5824   -4.8714   25.9621 N.3     1  UNL1       -0.2626
      5 C           7.5093   -6.0030   24.9802 C.3     1  UNL1        0.0900
      6 C           8.0862   -7.3416   25.3342 C.3     1  UNL1        0.0897
      7 C           9.3131   -8.8873   27.0240 C.3     1  UNL1        0.0937
      8 C           8.5019   -9.8671   27.8188 C.3     1  UNL1        0.1082
      9 N           4.8469  -11.4033   27.6418 N.am    1  UNL1       -0.2921
     10 C           6.3218  -11.2788   27.8850 C.2     1  UNL1        0.3007
     11 O           7.0915  -12.4416   28.4378 O.2     1  UNL1       -0.2528
     12 N           7.0270   -9.9916   27.5755 N.am    1  UNL1       -0.2875
     13 H           4.3418  -10.6401   27.2789 H       1  UNL1        0.1508
     14 H           6.5219   -9.2284   27.2127 H       1  UNL1        0.1510
     15 C           3.8375  -12.1916   29.3327 C.3     1  UNL1        0.0197
     16 C           4.1417  -12.6905   27.9513 C.3     1  UNL1        0.0583
     17 C           4.4460  -13.1893   26.5698 C.3     1  UNL1        0.0197
     18 C           3.4365  -13.9777   28.2607 C.3     1  UNL1        0.0197
     19 C           7.0054   -3.5328   25.6082 C.3     1  UNL1        0.1588
     20 C           6.4854   -3.2826   24.2237 C.2     1  UNL1        0.2425
     21 O           7.4432   -3.0333   23.0964 O.2     1  UNL1       -0.2733
     22 N           5.0077   -3.2817   23.9663 N.am    1  UNL1       -0.2827
     23 H           4.3791   -3.4454   24.7061 H       1  UNL1        0.1549
     24 C           4.4877   -3.0315   22.5817 C.ar    1  UNL1        0.0520
     25 C           4.6269   -4.0879   21.5260 C.ar    1  UNL1        0.0261
     26 C           4.1069   -3.8376   20.1414 C.ar    1  UNL1        0.0597
     27 CL          4.2461   -4.8940   19.0856 Cl      1  UNL1       -0.0822
     28 C           3.4477   -2.5310   19.8126 C.ar    1  UNL1        0.0229
     29 C           3.3084   -1.4746   20.8684 C.ar    1  UNL1        0.0597
     30 CL          2.6492   -0.1679   20.5396 Cl      1  UNL1       -0.0822
     31 C           3.8284   -1.7248   22.2529 C.ar    1  UNL1        0.0261
@<TRIPOS>BOND
     1    15    16    1
     2    16    17    1
     3    16    18    1
     4    16     9    1
     5     9    10   am
     6    10    11    2
     7    10    12   am
     8    12     8    1
     9     8     7    1
    10     7     1    1
    11     1     2    1
    12     2     3    1
    13     3     4    1
    14     4    19    1
    15    19    20    1
    16    20    21    2
    17    20    22   am
    18    22    24    1
    19    24    25   ar
    20    25    26   ar
    21    26    27    1
    22    26    28   ar
    23    28    29   ar
    24    29    30    1
    25    29    31   ar
    26     4     5    1
    27     5     6    1
    28     6     1    1
    29    31    24   ar
    30     9    13    1
    31    12    14    1
    32    22    23    1
@<TRIPOS>MOLECULE
*****
 31 32 0 0 0
SMALL
GASTEIGER

@<TRIPOS>ATOM
      1 N         -11.4174  -18.3998   21.2375 N.3     1  UNL1       -0.2689
      2 C         -10.5198  -19.2719   22.0643 C.3     1  UNL1        0.0897
      3 C          -9.3275  -19.9303   21.4360 C.3     1  UNL1        0.0900
      4 N          -9.0328  -19.7167   19.9809 N.3     1  UNL1       -0.2626
      5 C          -9.9304  -18.8446   19.1541 C.3     1  UNL1        0.0900
      6 C         -11.1227  -18.1861   19.7824 C.3     1  UNL1        0.0897
      7 C         -12.6097  -17.7413   21.8659 C.3     1  UNL1        0.0937
      8 C         -12.4313  -16.8442   23.0546 C.3     1  UNL1        0.1082
      9 N          -8.8933  -15.2738   23.9300 N.am    1  UNL1       -0.2921
     10 C         -10.0449  -16.2336   23.8808 C.2     1  UNL1        0.3007
     11 O          -9.9620  -17.5426   24.6085 O.2     1  UNL1       -0.2528
     12 N         -11.2797  -15.8844   23.1038 N.am    1  UNL1       -0.2875
     13 H          -8.9478  -14.4147   23.4523 H       1  UNL1        0.1508
     14 H         -11.3341  -15.0252   22.6262 H       1  UNL1        0.1510
     15 C          -8.3635  -15.2739   25.9840 C.3     1  UNL1        0.0197
     16 C          -7.6586  -15.6230   24.7069 C.3     1  UNL1        0.0583
     17 C          -6.9537  -15.9721   23.4297 C.3     1  UNL1        0.0197
     18 C          -6.4238  -15.9723   25.4838 C.3     1  UNL1        0.0197
     19 C          -7.8405  -20.3752   19.3525 C.3     1  UNL1        0.1588
     20 C          -6.4730  -20.1579   19.9294 C.2     1  UNL1        0.2425
     21 O          -5.7307  -21.3035   20.5515 O.2     1  UNL1       -0.2733
     22 N          -5.8477  -18.7952   19.8841 N.am    1  UNL1       -0.2827
     23 H          -6.3348  -18.0434   19.4759 H       1  UNL1        0.1549
     24 C          -4.4801  -18.5781   20.4610 C.ar    1  UNL1        0.0520
     25 C          -4.3069  -18.4250   21.9431 C.ar    1  UNL1        0.0261
     26 C          -2.9394  -18.2079   22.5200 C.ar    1  UNL1        0.0597
     27 CL         -2.7662  -18.0548   24.0020 Cl      1  UNL1       -0.0822
     28 C          -1.7451  -18.1437   21.6147 C.ar    1  UNL1        0.0229
     29 C          -1.9183  -18.2968   20.1326 C.ar    1  UNL1        0.0597
     30 CL         -0.7240  -18.2327   19.2273 Cl      1  UNL1       -0.0822
     31 C          -3.2858  -18.5140   19.5558 C.ar    1  UNL1        0.0261
@<TRIPOS>BOND
     1    15    16    1
     2    16    17    1
     3    16    18    1
     4    16     9    1
     5     9    10   am
     6    10    11    2
     7    10    12   am
     8    12     8    1
     9     8     7    1
    10     7     1    1
    11     1     2    1
    12     2     3    1
    13     3     4    1
    14     4    19    1
    15    19    20    1
    16    20    21    2
    17    20    22   am
    18    22    24    1
    19    24    25   ar
    20    25    26   ar
    21    26    27    1
    22    26    28   ar
    23    28    29   ar
    24    29    30    1
    25    29    31   ar
    26     4     5    1
    27     5     6    1
    28     6     1    1
    29    31    24   ar
    30     9    13    1
    31    12    14    1
    32    22    23    1
@<TRIPOS>MOLECULE
*****
 31 32 0 0 0
SMALL
GASTEIGER

@<TRIPOS>ATOM
      1 N          -3.3096  -19.2955   21.2526 N.3     1  UNL1       -0.2689
      2 C          -3.8092  -18.8805   19.9005 C.3     1  UNL1        0.0897
      3 C          -5.2337  -19.1464   19.5132 C.3     1  UNL1        0.0900
      4 N          -6.1587  -19.8272   20.4780 N.3     1  UNL1       -0.2626
      5 C          -5.6591  -20.2422   21.8301 C.3     1  UNL1        0.0900
      6 C          -4.2346  -19.9763   22.2174 C.3     1  UNL1        0.0897
      7 C          -1.8851  -19.0296   21.6399 C.3     1  UNL1        0.0937
      8 C          -1.5496  -17.8462   22.4983 C.3     1  UNL1        0.1082
      9 N          -4.6004  -15.5512   23.5825 N.am    1  UNL1       -0.2921
     10 C          -3.6589  -16.7167   23.5108 C.2     1  UNL1        0.3007
     11 O          -3.8852  -17.9182   24.3798 O.2     1  UNL1       -0.2528
     12 N          -2.4911  -16.6807   22.5700 N.am    1  UNL1       -0.2875
     13 H          -4.4519  -14.7626   23.0121 H       1  UNL1        0.1508
     14 H          -2.3426  -15.8921   21.9996 H       1  UNL1        0.1510
     15 C          -4.8829  -15.1192   25.6400 C.3     1  UNL1        0.0197
     16 C          -5.7682  -15.5871   24.5232 C.3     1  UNL1        0.0583
     17 C          -6.6534  -16.0550   23.4064 C.3     1  UNL1        0.0197
     18 C          -6.9360  -15.6231   25.4639 C.3     1  UNL1        0.0197
     19 C          -7.5832  -20.0931   20.0907 C.3     1  UNL1        0.1588
     20 C          -8.6660  -19.1476   20.5193 C.2     1  UNL1        0.2425
     21 O          -8.3200  -17.7457   20.9257 O.2     1  UNL1       -0.2733
     22 N         -10.0947  -19.6040   20.5416 N.am    1  UNL1       -0.2827
     23 H         -10.3218  -20.5240   20.2749 H       1  UNL1        0.1549
     24 C         -11.1774  -18.6584   20.9702 C.ar    1  UNL1        0.0520
     25 C         -11.8775  -18.8644   22.2807 C.ar    1  UNL1        0.0261
     26 C         -12.9602  -17.9188   22.7094 C.ar    1  UNL1        0.0597
     27 CL        -13.6603  -18.1248   24.0199 Cl      1  UNL1       -0.0822
     28 C         -13.3429  -16.7673   21.8275 C.ar    1  UNL1        0.0229
     29 C         -12.6427  -16.5614   20.5169 C.ar    1  UNL1        0.0597
     30 CL        -13.0253  -15.4100   19.6350 Cl      1  UNL1       -0.0822
     31 C         -11.5600  -17.5069   20.0883 C.ar    1  UNL1        0.0261
@<TRIPOS>BOND
     1    15    16    1
     2    16    17    1
     3    16    18    1
     4    16     9    1
     5     9    10   am
     6    10    11    2
     7    10    12   am
     8    12     8    1
     9     8     7    1
    10     7     1    1
    11     1     2    1
    12     2     3    1
    13     3     4    1
    14     4    19    1
    15    19    20    1
    16    20    21    2
    17    20    22   am
    18    22    24    1
    19    24    25   ar
    20    25    26   ar
    21    26    27    1
    22    26    28   ar
    23    28    29   ar
    24    29    30    1
    25    29    31   ar
    26     4     5    1
    27     5     6    1
    28     6     1    1
    29    31    24   ar
    30     9    13    1
    31    12    14    1
    32    22    23    1
@<TRIPOS>MOLECULE
*****
 31 32 0 0 0
SMALL
GASTEIGER

@<TRIPOS>ATOM
      1 N           7.4295   -6.0096   25.5112 N.3     1  UNL1       -0.2689
      2 C           6.8250   -4.6973   25.1083 C.3     1  UNL1        0.0897
      3 C           6.9966   -4.1911   23.7068 C.3     1  UNL1        0.0900
      4 N           7.7729   -4.9973   22.7080 N.3     1  UNL1       -0.2626
      5 C           8.3774   -6.3096   23.1109 C.3     1  UNL1        0.0900
      6 C           8.2058   -6.8157   24.5124 C.3     1  UNL1        0.0897
      7 C           7.2579   -6.5157   26.9127 C.3     1  UNL1        0.0937
      8 C           6.3295   -5.8104   27.8564 C.3     1  UNL1        0.1082
      9 N           7.1212   -4.4084   31.4837 N.am    1  UNL1       -0.2921
     10 C           6.8105   -4.4498   30.0169 C.2     1  UNL1        0.3007
     11 O           6.6700   -3.1723   29.2436 O.2     1  UNL1       -0.2528
     12 N           6.6402   -5.7690   29.3233 N.am    1  UNL1       -0.2875
     13 H           7.2134   -5.2470   31.9913 H       1  UNL1        0.1508
     14 H           6.7324   -6.6075   29.8308 H       1  UNL1        0.1510
     15 C           8.7701   -3.1519   31.9333 C.3     1  UNL1        0.0197
     16 C           7.2915   -3.0894   32.1773 C.3     1  UNL1        0.0583
     17 C           5.8128   -3.0268   32.4214 C.3     1  UNL1        0.0197
     18 C           7.4617   -1.7703   32.8710 C.3     1  UNL1        0.0197
     19 C           7.9445   -4.4912   21.3065 C.3     1  UNL1        0.1588
     20 C           7.0333   -3.4235   20.7777 C.2     1  UNL1        0.2425
     21 O           7.5561   -2.0359   20.5509 O.2     1  UNL1       -0.2733
     22 N           5.5992   -3.7433   20.4759 N.am    1  UNL1       -0.2827
     23 H           5.2561   -4.6540   20.6248 H       1  UNL1        0.1549
     24 C           4.6879   -2.6756   19.9471 C.ar    1  UNL1        0.0520
     25 C           3.7249   -1.9875   20.8686 C.ar    1  UNL1        0.0261
     26 C           2.8136   -0.9197   20.3398 C.ar    1  UNL1        0.0597
     27 CL          1.8507   -0.2316   21.2613 Cl      1  UNL1       -0.0822
     28 C           2.8654   -0.5401   18.8895 C.ar    1  UNL1        0.0229
     29 C           3.8284   -1.2283   17.9681 C.ar    1  UNL1        0.0597
     30 CL          3.8802   -0.8487   16.5178 Cl      1  UNL1       -0.0822
     31 C           4.7397   -2.2960   18.4968 C.ar    1  UNL1        0.0261
@<TRIPOS>BOND
     1    15    16    1
     2    16    17    1
     3    16    18    1
     4    16     9    1
     5     9    10   am
     6    10    11    2
     7    10    12   am
     8    12     8    1
     9     8     7    1
    10     7     1    1
    11     1     2    1
    12     2     3    1
    13     3     4    1
    14     4    19    1
    15    19    20    1
    16    20    21    2
    17    20    22   am
    18    22    24    1
    19    24    25   ar
    20    25    26   ar
    21    26    27    1
    22    26    28   ar
    23    28    29   ar
    24    29    30    1
    25    29    31   ar
    26     4     5    1
    27     5     6    1
    28     6     1    1
    29    31    24   ar
    30     9    13    1
    31    12    14    1
    32    22    23    1
@<TRIPOS>MOLECULE
*****
 31 32 0 0 0
SMALL
GASTEIGER

@<TRIPOS>ATOM
      1 N           6.3671   -2.8753   31.3669 N.3     1  UNL1       -0.2689
      2 C           5.4743   -2.6997   32.5594 C.3     1  UNL1        0.0897
      3 C           4.3754   -1.6792   32.5298 C.3     1  UNL1        0.0900
      4 N           4.1691   -0.8343   31.3077 N.3     1  UNL1       -0.2626
      5 C           5.0618   -1.0099   30.1152 C.3     1  UNL1        0.0900
      6 C           6.1608   -2.0304   30.1448 C.3     1  UNL1        0.0897
      7 C           7.4660   -3.8958   31.3965 C.3     1  UNL1        0.0937
      8 C           7.1588   -5.3372   31.1174 C.3     1  UNL1        0.1082
      9 N           6.4784   -6.3215   27.3334 N.am    1  UNL1       -0.2921
     10 C           7.2022   -5.9386   28.5902 C.2     1  UNL1        0.3007
     11 O           8.6931   -5.7744   28.5767 O.2     1  UNL1       -0.2528
     12 N           6.4350   -5.7200   29.8606 N.am    1  UNL1       -0.2875
     13 H           5.4999   -6.4293   27.3423 H       1  UNL1        0.1508
     14 H           5.4565   -5.8278   29.8694 H       1  UNL1        0.1510
     15 C           7.4457   -7.9802   26.4318 C.3     1  UNL1        0.0197
     16 C           7.2455   -6.5401   26.0631 C.3     1  UNL1        0.0583
     17 C           7.0454   -5.1000   25.6944 C.3     1  UNL1        0.0197
     18 C           8.0127   -6.7587   24.7927 C.3     1  UNL1        0.0197
     19 C           3.0701    0.1862   31.2782 C.3     1  UNL1        0.1588
     20 C           2.2061    0.3227   30.0597 C.2     1  UNL1        0.2425
     21 O           1.0317   -0.5904   29.8669 O.2     1  UNL1       -0.2733
     22 N           2.5163    1.3724   29.0341 N.am    1  UNL1       -0.2827
     23 H           3.2870    1.9717   29.1606 H       1  UNL1        0.1549
     24 C           1.6521    1.5089   27.8156 C.ar    1  UNL1        0.0520
     25 C           0.3198    2.1909   27.9136 C.ar    1  UNL1        0.0261
     26 C          -0.5444    2.3275   26.6951 C.ar    1  UNL1        0.0597
     27 CL         -1.8767    3.0095   26.7931 Cl      1  UNL1       -0.0822
     28 C          -0.0761    1.7820   25.3786 C.ar    1  UNL1        0.0229
     29 C           1.2563    1.0999   25.2806 C.ar    1  UNL1        0.0597
     30 CL          1.7246    0.5544   23.9641 Cl      1  UNL1       -0.0822
     31 C           2.1204    0.9634   26.4991 C.ar    1  UNL1        0.0261
@<TRIPOS>BOND
     1    15    16    1
     2    16    17    1
     3    16    18    1
     4    16     9    1
     5     9    10   am
     6    10    11    2
     7    10    12   am
     8    12     8    1
     9     8     7    1
    10     7     1    1
    11     1     2    1
    12     2     3    1
    13     3     4    1
    14     4    19    1
    15    19    20    1
    16    20    21    2
    17    20    22   am
    18    22    24    1
    19    24    25   ar
    20    25    26   ar
    21    26    27    1
    22    26    28   ar
    23    28    29   ar
    24    29    30    1
    25    29    31   ar
    26     4     5    1
    27     5     6    1
    28     6     1    1
    29    31    24   ar
    30     9    13    1
    31    12    14    1
    32    22    23    1
@<TRIPOS>MOLECULE
*****
 31 32 0 0 0
SMALL
GASTEIGER

@<TRIPOS>ATOM
      1 N           8.3421   -6.4607   25.2279 N.3     1  UNL1       -0.2689
      2 C           7.8600   -5.0641   24.9689 C.3     1  UNL1        0.0897
      3 C           7.8308   -4.5284   23.5681 C.3     1  UNL1        0.0900
      4 N           8.2837   -5.3893   22.4263 N.3     1  UNL1       -0.2626
      5 C           8.7658   -6.7859   22.6853 C.3     1  UNL1        0.0900
      6 C           8.7950   -7.3215   24.0861 C.3     1  UNL1        0.0897
      7 C           8.3713   -6.9963   26.6287 C.3     1  UNL1        0.0937
      8 C           7.2756   -6.6425   27.5900 C.3     1  UNL1        0.1082
      9 N           7.9489   -5.0709   31.1714 N.am    1  UNL1       -0.2921
     10 C           7.6533   -5.1817   29.7050 C.2     1  UNL1        0.3007
     11 O           7.4400   -3.9425   28.8872 O.2     1  UNL1       -0.2528
     12 N           7.5711   -6.5317   29.0564 N.am    1  UNL1       -0.2875
     13 H           8.0889   -5.8843   31.7082 H       1  UNL1        0.1508
     14 H           7.7112   -7.3451   29.5931 H       1  UNL1        0.1510
     15 C           9.5037   -3.6754   31.5387 C.3     1  UNL1        0.0197
     16 C           8.0310   -3.7209   31.8201 C.3     1  UNL1        0.0583
     17 C           6.5584   -3.7665   32.1015 C.3     1  UNL1        0.0197
     18 C           8.1132   -2.3709   32.4688 C.3     1  UNL1        0.0197
     19 C           8.2545   -4.8536   21.0255 C.3     1  UNL1        0.1588
     20 C           7.3014   -3.7536   20.6630 C.2     1  UNL1        0.2425
     21 O           7.7116   -2.3204   20.8298 O.2     1  UNL1       -0.2733
     22 N           5.9380   -4.0867   20.1335 N.am    1  UNL1       -0.2827
     23 H           5.6687   -5.0273   20.0240 H       1  UNL1        0.1549
     24 C           4.9849   -2.9866   19.7709 C.ar    1  UNL1        0.0520
     25 C           4.9203   -2.4854   18.3587 C.ar    1  UNL1        0.0261
     26 C           3.9672   -1.3853   17.9961 C.ar    1  UNL1        0.0597
     27 CL          3.9026   -0.8841   16.5838 Cl      1  UNL1       -0.0822
     28 C           3.0787   -0.7865   19.0458 C.ar    1  UNL1        0.0229
     29 C           3.1433   -1.2877   20.4582 C.ar    1  UNL1        0.0597
     30 CL          2.2548   -0.6889   21.5079 Cl      1  UNL1       -0.0822
     31 C           4.0964   -2.3878   20.8207 C.ar    1  UNL1        0.0261
@<TRIPOS>BOND
     1    15    16    1
     2    16    17    1
     3    16    18    1
     4    16     9    1
     5     9    10   am
     6    10    11    2
     7    10    12   am
     8    12     8    1
     9     8     7    1
    10     7     1    1
    11     1     2    1
    12     2     3    1
    13     3     4    1
    14     4    19    1
    15    19    20    1
    16    20    21    2
    17    20    22   am
    18    22    24    1
    19    24    25   ar
    20    25    26   ar
    21    26    27    1
    22    26    28   ar
    23    28    29   ar
    24    29    30    1
    25    29    31   ar
    26     4     5    1
    27     5     6    1
    28     6     1    1
    29    31    24   ar
    30     9    13    1
    31    12    14    1
    32    22    23    1
@<TRIPOS>MOLECULE
*****
 31 32 0 0 0
SMALL
GASTEIGER

@<TRIPOS>ATOM
      1 N           7.0505   -4.9374   27.1684 N.3     1  UNL1       -0.2689
      2 C           6.6073   -3.6236   27.7406 C.3     1  UNL1        0.0897
      3 C           6.5158   -3.4456   29.2272 C.3     1  UNL1        0.0900
      4 N           6.8675   -4.5814   30.1416 N.3     1  UNL1       -0.2626
      5 C           7.3107   -5.8952   29.5694 C.3     1  UNL1        0.0900
      6 C           7.4023   -6.0732   28.0828 C.3     1  UNL1        0.0897
      7 C           7.1421   -5.1153   25.6818 C.3     1  UNL1        0.0937
      8 C           6.4943   -4.1196   24.7660 C.3     1  UNL1        0.1082
      9 N           5.7587   -3.8288   20.8769 N.am    1  UNL1       -0.2921
     10 C           5.6042   -3.6925   22.3627 C.2     1  UNL1        0.3007
     11 O           4.4053   -2.9928   22.9311 O.2     1  UNL1       -0.2528
     12 N           6.6487   -4.2559   23.2802 N.am    1  UNL1       -0.2875
     13 H           6.5456   -4.2880   20.5039 H       1  UNL1        0.1508
     14 H           7.4356   -4.7151   22.9071 H       1  UNL1        0.1510
     15 C           5.4324   -1.9485   19.9506 C.3     1  UNL1        0.0197
     16 C           4.7143   -3.2654   19.9595 C.3     1  UNL1        0.0583
     17 C           3.9961   -4.5822   19.9684 C.3     1  UNL1        0.0197
     18 C           3.6698   -2.7020   19.0420 C.3     1  UNL1        0.0197
     19 C           6.7760   -4.4034   31.6282 C.3     1  UNL1        0.1588
     20 C           6.3588   -3.0814   32.2010 C.2     1  UNL1        0.2425
     21 O           7.3473   -1.9566   32.2889 O.2     1  UNL1       -0.2733
     22 N           4.9531   -2.8841   32.6859 N.am    1  UNL1       -0.2827
     23 H           4.3043   -3.6223   32.6281 H       1  UNL1        0.1549
     24 C           4.5360   -1.5620   33.2587 C.ar    1  UNL1        0.0520
     25 C           4.9398   -1.1882   34.6541 C.ar    1  UNL1        0.0261
     26 C           4.5226    0.1339   35.2269 C.ar    1  UNL1        0.0597
     27 CL          4.9264    0.5076   36.6223 Cl      1  UNL1       -0.0822
     28 C           3.7017    1.0822   34.4043 C.ar    1  UNL1        0.0229
     29 C           3.2979    0.7084   33.0088 C.ar    1  UNL1        0.0597
     30 CL          2.4769    1.6567   32.1861 Cl      1  UNL1       -0.0822
     31 C           3.7150   -0.6136   32.4360 C.ar    1  UNL1        0.0261
@<TRIPOS>BOND
     1    15    16    1
     2    16    17    1
     3    16    18    1
     4    16     9    1
     5     9    10   am
     6    10    11    2
     7    10    12   am
     8    12     8    1
     9     8     7    1
    10     7     1    1
    11     1     2    1
    12     2     3    1
    13     3     4    1
    14     4    19    1
    15    19    20    1
    16    20    21    2
    17    20    22   am
    18    22    24    1
    19    24    25   ar
    20    25    26   ar
    21    26    27    1
    22    26    28   ar
    23    28    29   ar
    24    29    30    1
    25    29    31   ar
    26     4     5    1
    27     5     6    1
    28     6     1    1
    29    31    24   ar
    30     9    13    1
    31    12    14    1
    32    22    23    1
