@<TRIPOS>MOLECULE
*****
 34 36 0 0 0
SMALL
GASTEIGER

@<TRIPOS>ATOM
      1 C          -5.2260  -16.5067   23.9543 C.ar    1  UNL1        0.2264
      2 C          -3.8177  -17.0211   23.9112 C.ar    1  UNL1        0.0594
      3 C          -3.4752  -18.1982   23.0468 C.ar    1  UNL1        0.0271
      4 C          -4.5411  -18.8609   22.2255 C.ar    1  UNL1        0.1184
      5 N          -4.5032  -20.0301   21.2866 N.ar    1  UNL1       -0.2123
      6 C          -5.8882  -20.2383   20.7494 C.ar    1  UNL1        0.1959
      7 N          -6.3059  -21.3006   19.7762 N.pl3   1  UNL1       -0.3287
      8 N          -6.7821  -19.1978   21.3563 N.ar    1  UNL1       -0.2824
      9 C          -5.9495  -18.3465   22.2686 C.ar    1  UNL1        0.1668
     10 N          -6.2919  -17.1694   23.1330 N.ar    1  UNL1       -0.1926
     11 H          -5.6424  -21.9415   19.4323 H       1  UNL1        0.1451
     12 H          -7.2435  -21.3568   19.4813 H       1  UNL1        0.1451
     13 O          -5.5685  -15.3296   24.8187 O.3     1  UNL1       -0.4550
     14 C          -6.5262  -15.4410   27.2312 C.3     1  UNL1        0.0566
     15 C          -6.7441  -15.3981   25.7477 C.3     1  UNL1        0.2616
     16 C          -8.1377  -15.4238   25.1933 C.3     1  UNL1        0.4341
     17 F          -9.5312  -15.4495   24.6389 F       1  UNL1       -0.1664
     18 F          -7.7594  -14.3714   24.1936 F       1  UNL1       -0.1664
     19 F          -8.5160  -16.4761   26.1930 F       1  UNL1       -0.1664
     20 C          -8.2506  -19.0369   21.0966 C.3     1  UNL1        0.1438
     21 C          -8.9739  -17.8255   21.6057 C.3     1  UNL1        0.1561
     22 O          -8.3975  -16.4588   21.3826 O.3     1  UNL1       -0.3780
     23 H          -7.5610  -16.5359   20.8974 H       1  UNL1        0.2109
     24 C         -10.2737  -17.9808   22.3380 C.ar    1  UNL1        0.0167
     25 C         -10.2937  -18.5864   23.7102 C.ar    1  UNL1       -0.0011
     26 C         -11.5936  -18.7417   24.4427 C.ar    1  UNL1        0.0037
     27 C         -12.8734  -18.2916   23.8029 C.ar    1  UNL1        0.0722
     28 C         -12.8533  -17.6860   22.4306 C.ar    1  UNL1        0.0150
     29 C         -11.5536  -17.5306   21.6983 C.ar    1  UNL1        0.0559
     30 CL        -11.5336  -16.9250   20.3261 Cl      1  UNL1       -0.0825
     31 C         -14.1732  -18.4469   24.5352 C.3     1  UNL1        0.4186
     32 F         -15.4730  -18.6022   25.2676 F       1  UNL1       -0.1659
     33 F         -13.4330  -18.4932   25.8390 F       1  UNL1       -0.1659
     34 F         -14.9134  -18.4006   23.2314 F       1  UNL1       -0.1659
@<TRIPOS>BOND
     1    14    15    1
     2    15    13    1
     3    13     1    1
     4     1     2   ar
     5     2     3   ar
     6     3     4   ar
     7     4     5   ar
     8     5     6   ar
     9     6     7    1
    10     6     8   ar
    11     8    20    1
    12    20    21    1
    13    21    22    1
    14    21    24    1
    15    24    25   ar
    16    25    26   ar
    17    26    27   ar
    18    27    31    1
    19    31    32    1
    20    31    33    1
    21    31    34    1
    22    27    28   ar
    23    28    29   ar
    24    29    30    1
    25     8     9   ar
    26     9    10   ar
    27    15    16    1
    28    16    17    1
    29    16    18    1
    30    16    19    1
    31    10     1   ar
    32     9     4   ar
    33    29    24   ar
    34     7    11    1
    35     7    12    1
    36    22    23    1
@<TRIPOS>MOLECULE
*****
 34 36 0 0 0
SMALL
GASTEIGER

@<TRIPOS>ATOM
      1 C          -8.4530  -16.0393   23.5874 C.ar    1  UNL1        0.2264
      2 C          -9.9314  -16.1591   23.8111 C.ar    1  UNL1        0.0594
      3 C         -10.7415  -17.1076   22.9779 C.ar    1  UNL1        0.0271
      4 C         -10.0733  -17.9362   21.9212 C.ar    1  UNL1        0.1184
      5 N         -10.6081  -18.9490   20.9525 N.ar    1  UNL1       -0.2123
      6 C          -9.4602  -19.4552   20.1302 C.ar    1  UNL1        0.1959
      7 N          -9.5421  -20.4812   19.0391 N.pl3   1  UNL1       -0.3287
      8 N          -8.2160  -18.7552   20.5906 N.ar    1  UNL1       -0.2824
      9 C          -8.5950  -17.8164   21.6975 C.ar    1  UNL1        0.1668
     10 N          -7.7848  -16.8679   22.5307 N.ar    1  UNL1       -0.1926
     11 H         -10.4094  -20.8860   18.8081 H       1  UNL1        0.1451
     12 H          -8.7287  -20.7498   18.5538 H       1  UNL1        0.1451
     13 O          -7.6429  -15.0908   24.4206 O.3     1  UNL1       -0.4550
     14 C          -8.2668  -15.4102   26.9223 C.3     1  UNL1        0.0566
     15 C          -7.2521  -15.4669   25.8190 C.3     1  UNL1        0.2616
     16 C          -5.8465  -15.8998   26.1143 C.3     1  UNL1        0.4341
     17 F          -4.4411  -16.3326   26.4097 F       1  UNL1       -0.1664
     18 F          -5.4234  -15.4609   24.7438 F       1  UNL1       -0.1664
     19 F          -6.2697  -16.3386   27.4848 F       1  UNL1       -0.1664
     20 C          -6.8353  -18.9583   20.0408 C.3     1  UNL1        0.1438
     21 C          -5.7365  -19.4504   20.9355 C.3     1  UNL1        0.1561
     22 O          -6.0396  -20.4412   22.0201 O.3     1  UNL1       -0.3780
     23 H          -6.9852  -20.6572   22.0057 H       1  UNL1        0.2109
     24 C          -4.3347  -18.9516   20.7456 C.ar    1  UNL1        0.0167
     25 C          -3.6745  -19.0630   19.4033 C.ar    1  UNL1       -0.0011
     26 C          -2.2726  -18.5642   19.2134 C.ar    1  UNL1        0.0037
     27 C          -1.5310  -17.9540   20.3656 C.ar    1  UNL1        0.0722
     28 C          -2.1913  -17.8427   21.7079 C.ar    1  UNL1        0.0150
     29 C          -3.5931  -18.3415   21.8979 C.ar    1  UNL1        0.0559
     30 CL         -4.2534  -18.2301   23.2402 Cl      1  UNL1       -0.0825
     31 C          -0.1292  -17.4553   20.1757 C.3     1  UNL1        0.4186
     32 F           1.2726  -16.9564   19.9859 F       1  UNL1       -0.1659
     33 F          -0.5514  -16.0926   20.6392 F       1  UNL1       -0.1659
     34 F           0.2930  -18.8180   19.7123 F       1  UNL1       -0.1659
@<TRIPOS>BOND
     1    14    15    1
     2    15    13    1
     3    13     1    1
     4     1     2   ar
     5     2     3   ar
     6     3     4   ar
     7     4     5   ar
     8     5     6   ar
     9     6     7    1
    10     6     8   ar
    11     8    20    1
    12    20    21    1
    13    21    22    1
    14    21    24    1
    15    24    25   ar
    16    25    26   ar
    17    26    27   ar
    18    27    31    1
    19    31    32    1
    20    31    33    1
    21    31    34    1
    22    27    28   ar
    23    28    29   ar
    24    29    30    1
    25     8     9   ar
    26     9    10   ar
    27    15    16    1
    28    16    17    1
    29    16    18    1
    30    16    19    1
    31    10     1   ar
    32     9     4   ar
    33    29    24   ar
    34     7    11    1
    35     7    12    1
    36    22    23    1
@<TRIPOS>MOLECULE
*****
 34 36 0 0 0
SMALL
GASTEIGER

@<TRIPOS>ATOM
      1 C          -6.4070  -20.0419   21.9029 C.ar    1  UNL1        0.2264
      2 C          -5.9604  -20.7556   20.6615 C.ar    1  UNL1        0.0594
      3 C          -4.6933  -20.3420   19.9734 C.ar    1  UNL1        0.0271
      4 C          -3.8729  -19.2148   20.5267 C.ar    1  UNL1        0.1184
      5 N          -2.5886  -18.5893   20.0691 N.ar    1  UNL1       -0.2123
      6 C          -2.2415  -17.4890   21.0277 C.ar    1  UNL1        0.1959
      7 N          -1.0362  -16.5994   20.9498 N.pl3   1  UNL1       -0.3287
      8 N          -3.3112  -17.4345   22.0777 N.ar    1  UNL1       -0.2824
      9 C          -4.3195  -18.5011   21.7681 C.ar    1  UNL1        0.1668
     10 N          -5.5866  -18.9146   22.4562 N.ar    1  UNL1       -0.1926
     11 H          -0.3868  -16.7132   20.2186 H       1  UNL1        0.1451
     12 H          -0.8945  -15.9018   21.6299 H       1  UNL1        0.1451
     13 O          -7.6741  -20.4554   22.5910 O.3     1  UNL1       -0.4550
     14 C          -9.2902  -18.7979   21.4117 C.3     1  UNL1        0.0566
     15 C          -8.8375  -19.5105   22.6516 C.3     1  UNL1        0.2616
     16 C          -9.5482  -19.2782   23.9520 C.3     1  UNL1        0.4341
     17 F         -10.2588  -19.0458   25.2523 F       1  UNL1       -0.1664
     18 F          -9.1301  -20.6393   24.4237 F       1  UNL1       -0.1664
     19 F          -9.9662  -17.9170   23.4803 F       1  UNL1       -0.1664
     20 C          -3.3636  -16.4808   23.2343 C.3     1  UNL1        0.1438
     21 C          -4.4718  -15.4742   23.3268 C.3     1  UNL1        0.1561
     22 O          -4.5470  -14.3485   22.3383 O.3     1  UNL1       -0.3780
     23 H          -3.8094  -14.4183   21.7121 H       1  UNL1        0.2109
     24 C          -5.5048  -15.5932   24.4079 C.ar    1  UNL1        0.0167
     25 C          -5.1059  -15.4429   25.8461 C.ar    1  UNL1       -0.0011
     26 C          -6.1389  -15.5620   26.9273 C.ar    1  UNL1        0.0037
     27 C          -7.5707  -15.8314   26.5702 C.ar    1  UNL1        0.0722
     28 C          -7.9694  -15.9817   25.1320 C.ar    1  UNL1        0.0150
     29 C          -6.9365  -15.8626   24.0509 C.ar    1  UNL1        0.0559
     30 CL         -7.3353  -16.0130   22.6127 Cl      1  UNL1       -0.0825
     31 C          -8.6036  -15.9505   27.6513 C.3     1  UNL1        0.4186
     32 F          -9.6366  -16.0696   28.7324 F       1  UNL1       -0.1659
     33 F          -8.7893  -17.4002   27.3141 F       1  UNL1       -0.1659
     34 F          -8.4180  -14.5007   27.9885 F       1  UNL1       -0.1659
@<TRIPOS>BOND
     1    14    15    1
     2    15    13    1
     3    13     1    1
     4     1     2   ar
     5     2     3   ar
     6     3     4   ar
     7     4     5   ar
     8     5     6   ar
     9     6     7    1
    10     6     8   ar
    11     8    20    1
    12    20    21    1
    13    21    22    1
    14    21    24    1
    15    24    25   ar
    16    25    26   ar
    17    26    27   ar
    18    27    31    1
    19    31    32    1
    20    31    33    1
    21    31    34    1
    22    27    28   ar
    23    28    29   ar
    24    29    30    1
    25     8     9   ar
    26     9    10   ar
    27    15    16    1
    28    16    17    1
    29    16    18    1
    30    16    19    1
    31    10     1   ar
    32     9     4   ar
    33    29    24   ar
    34     7    11    1
    35     7    12    1
    36    22    23    1
@<TRIPOS>MOLECULE
*****
 34 36 0 0 0
SMALL
GASTEIGER

@<TRIPOS>ATOM
      1 C          -6.4876  -16.0797   23.9387 C.ar    1  UNL1        0.2264
      2 C          -5.0677  -15.6196   24.0876 C.ar    1  UNL1        0.0594
      3 C          -3.9607  -16.3715   23.4100 C.ar    1  UNL1        0.0271
      4 C          -4.2735  -17.5834   22.5835 C.ar    1  UNL1        0.1184
      5 N          -3.3987  -18.5196   21.8036 N.ar    1  UNL1       -0.2123
      6 C          -4.2779  -19.5583   21.1726 C.ar    1  UNL1        0.1959
      7 N          -3.8193  -20.6922   20.3041 N.pl3   1  UNL1       -0.3287
      8 N          -5.6961  -19.2641   21.5625 N.ar    1  UNL1       -0.2824
      9 C          -5.6934  -18.0435   22.4345 C.ar    1  UNL1        0.1668
     10 N          -6.8004  -17.2916   23.1121 N.ar    1  UNL1       -0.1926
     11 H          -2.8618  -20.8027   20.1038 H       1  UNL1        0.1451
     12 H          -4.4759  -21.3258   19.9344 H       1  UNL1        0.1451
     13 O          -7.5946  -15.3278   24.6163 O.3     1  UNL1       -0.4550
     14 C          -7.8228  -15.0615   27.1905 C.3     1  UNL1        0.0566
     15 C          -8.1353  -15.8110   25.9293 C.3     1  UNL1        0.2616
     16 C          -8.9885  -17.0437   25.9812 C.3     1  UNL1        0.4341
     17 F          -9.8417  -18.2763   26.0331 F       1  UNL1       -0.1664
     18 F          -9.5444  -16.7159   24.6271 F       1  UNL1       -0.1664
     19 F          -8.4326  -17.3714   27.3352 F       1  UNL1       -0.1664
     20 C          -6.9048  -20.0520   21.1525 C.3     1  UNL1        0.1438
     21 C          -8.0374  -19.3724   20.4416 C.3     1  UNL1        0.1561
     22 O          -7.9036  -19.0100   18.9922 O.3     1  UNL1       -0.3780
     23 H          -7.0303  -19.2828   18.6700 H       1  UNL1        0.2109
     24 C          -9.3038  -19.0552   21.1802 C.ar    1  UNL1        0.0167
     25 C         -10.3521  -18.1965   20.5369 C.ar    1  UNL1       -0.0011
     26 C         -11.6186  -17.8792   21.2755 C.ar    1  UNL1        0.0037
     27 C         -11.8368  -18.4206   22.6573 C.ar    1  UNL1        0.0722
     28 C         -10.7884  -19.2793   23.3005 C.ar    1  UNL1        0.0150
     29 C          -9.5220  -19.5966   22.5619 C.ar    1  UNL1        0.0559
     30 CL         -8.4737  -20.4553   23.2052 Cl      1  UNL1       -0.0825
     31 C         -13.1032  -18.1033   23.3959 C.3     1  UNL1        0.4186
     32 F         -14.3695  -17.7861   24.1346 F       1  UNL1       -0.1659
     33 F         -12.4337  -18.4502   24.6926 F       1  UNL1       -0.1659
     34 F         -13.7727  -17.7565   22.0992 F       1  UNL1       -0.1659
@<TRIPOS>BOND
     1    14    15    1
     2    15    13    1
     3    13     1    1
     4     1     2   ar
     5     2     3   ar
     6     3     4   ar
     7     4     5   ar
     8     5     6   ar
     9     6     7    1
    10     6     8   ar
    11     8    20    1
    12    20    21    1
    13    21    22    1
    14    21    24    1
    15    24    25   ar
    16    25    26   ar
    17    26    27   ar
    18    27    31    1
    19    31    32    1
    20    31    33    1
    21    31    34    1
    22    27    28   ar
    23    28    29   ar
    24    29    30    1
    25     8     9   ar
    26     9    10   ar
    27    15    16    1
    28    16    17    1
    29    16    18    1
    30    16    19    1
    31    10     1   ar
    32     9     4   ar
    33    29    24   ar
    34     7    11    1
    35     7    12    1
    36    22    23    1
@<TRIPOS>MOLECULE
*****
 34 36 0 0 0
SMALL
GASTEIGER

@<TRIPOS>ATOM
      1 C          -5.0809  -19.2893   21.9517 C.ar    1  UNL1        0.2264
      2 C          -4.6969  -19.1741   20.5063 C.ar    1  UNL1        0.0594
      3 C          -5.7582  -19.1719   19.4462 C.ar    1  UNL1        0.0271
      4 C          -7.2034  -19.2849   19.8316 C.ar    1  UNL1        0.1184
      5 N          -8.4610  -19.3102   19.0145 N.ar    1  UNL1       -0.2123
      6 C          -9.6223  -19.4410   19.9549 C.ar    1  UNL1        0.1959
      7 N         -11.0695  -19.5050   19.5653 N.pl3   1  UNL1       -0.3287
      8 N          -9.0824  -19.4966   21.3532 N.ar    1  UNL1       -0.2824
      9 C          -7.5874  -19.4001   21.2770 C.ar    1  UNL1        0.1668
     10 N          -6.5261  -19.4023   22.3371 N.ar    1  UNL1       -0.1926
     11 H         -11.3261  -19.4605   18.6158 H       1  UNL1        0.1451
     12 H         -11.7627  -19.5915   20.2590 H       1  UNL1        0.1451
     13 O          -4.0197  -19.2914   23.0118 O.3     1  UNL1       -0.4550
     14 C          -3.7571  -17.5117   24.8863 C.3     1  UNL1        0.0566
     15 C          -3.4455  -17.9949   23.5009 C.3     1  UNL1        0.2616
     16 C          -2.5595  -17.1814   22.6044 C.3     1  UNL1        0.4341
     17 F          -1.6737  -16.3680   21.7081 F       1  UNL1       -0.1664
     18 F          -1.7059  -18.3888   22.3524 F       1  UNL1       -0.1664
     19 F          -3.4132  -15.9741   22.8565 F       1  UNL1       -0.1664
     20 C          -9.8948  -19.6259   22.6075 C.3     1  UNL1        0.1438
     21 C         -10.4976  -18.4065   23.2397 C.3     1  UNL1        0.1561
     22 O         -11.8960  -17.9930   22.8881 O.3     1  UNL1       -0.3780
     23 H         -12.2652  -18.6168   22.2436 H       1  UNL1        0.2109
     24 C          -9.7021  -17.6007   24.2234 C.ar    1  UNL1        0.0167
     25 C          -9.6857  -17.9895   25.6721 C.ar    1  UNL1       -0.0011
     26 C          -8.8902  -17.1837   26.6560 C.ar    1  UNL1        0.0037
     27 C          -8.1110  -15.9892   26.1911 C.ar    1  UNL1        0.0722
     28 C          -8.1274  -15.6005   24.7424 C.ar    1  UNL1        0.0150
     29 C          -8.9229  -16.4063   23.7586 C.ar    1  UNL1        0.0559
     30 CL         -8.9393  -16.0175   22.3099 Cl      1  UNL1       -0.0825
     31 C          -7.3155  -15.1834   27.1748 C.3     1  UNL1        0.4186
     32 F          -6.5200  -14.3775   28.1586 F       1  UNL1       -0.1659
     33 F          -8.5871  -14.6896   27.7986 F       1  UNL1       -0.1659
     34 F          -6.0438  -15.6772   26.5511 F       1  UNL1       -0.1659
@<TRIPOS>BOND
     1    14    15    1
     2    15    13    1
     3    13     1    1
     4     1     2   ar
     5     2     3   ar
     6     3     4   ar
     7     4     5   ar
     8     5     6   ar
     9     6     7    1
    10     6     8   ar
    11     8    20    1
    12    20    21    1
    13    21    22    1
    14    21    24    1
    15    24    25   ar
    16    25    26   ar
    17    26    27   ar
    18    27    31    1
    19    31    32    1
    20    31    33    1
    21    31    34    1
    22    27    28   ar
    23    28    29   ar
    24    29    30    1
    25     8     9   ar
    26     9    10   ar
    27    15    16    1
    28    16    17    1
    29    16    18    1
    30    16    19    1
    31    10     1   ar
    32     9     4   ar
    33    29    24   ar
    34     7    11    1
    35     7    12    1
    36    22    23    1
@<TRIPOS>MOLECULE
*****
 34 36 0 0 0
SMALL
GASTEIGER

@<TRIPOS>ATOM
      1 C          -3.8206  -19.2759   21.3203 C.ar    1  UNL1        0.2264
      2 C          -3.9427  -20.5595   20.5540 C.ar    1  UNL1        0.0594
      3 C          -5.2783  -20.9950   20.0282 C.ar    1  UNL1        0.0271
      4 C          -6.4918  -20.1469   20.2688 C.ar    1  UNL1        0.1184
      5 N          -7.9293  -20.3169   19.8753 N.ar    1  UNL1       -0.2123
      6 C          -8.6957  -19.1384   20.3985 C.ar    1  UNL1        0.1959
      7 N         -10.1675  -18.9001   20.2338 N.pl3   1  UNL1       -0.3287
      8 N          -7.7318  -18.2399   21.1153 N.ar    1  UNL1       -0.2824
      9 C          -6.3698  -18.8632   21.0351 C.ar    1  UNL1        0.1668
     10 N          -5.0342  -18.4277   21.5609 N.ar    1  UNL1       -0.1926
     11 H         -10.7198  -19.5516   19.7442 H       1  UNL1        0.1451
     12 H         -10.5811  -18.0923   20.6154 H       1  UNL1        0.1451
     13 O          -2.4850  -18.8403   21.8461 O.3     1  UNL1       -0.4550
     14 C          -2.2343  -16.2549   21.8955 C.3     1  UNL1        0.0566
     15 C          -1.8464  -17.5870   21.3254 C.3     1  UNL1        0.2616
     16 C          -0.8198  -17.6657   20.2345 C.3     1  UNL1        0.4341
     17 F           0.2068  -17.7444   19.1437 F       1  UNL1       -0.1664
     18 F          -0.6072  -16.1838   20.3275 F       1  UNL1       -0.1664
     19 F          -1.0323  -19.1476   20.1415 F       1  UNL1       -0.1664
     20 C          -8.0705  -16.9454   21.7932 C.3     1  UNL1        0.1438
     21 C          -8.5973  -16.9497   23.1977 C.3     1  UNL1        0.1561
     22 O          -7.6956  -16.5804   24.3381 O.3     1  UNL1       -0.3780
     23 H          -6.8129  -16.3678   23.9966 H       1  UNL1        0.2109
     24 C         -10.0258  -17.3233   23.4617 C.ar    1  UNL1        0.0167
     25 C         -10.3521  -18.3464   24.5090 C.ar    1  UNL1       -0.0011
     26 C         -11.7807  -18.7201   24.7731 C.ar    1  UNL1        0.0037
     27 C         -12.8829  -18.0707   23.9898 C.ar    1  UNL1        0.0722
     28 C         -12.5565  -17.0476   22.9425 C.ar    1  UNL1        0.0150
     29 C         -11.1280  -16.6739   22.6784 C.ar    1  UNL1        0.0559
     30 CL        -10.8016  -15.6509   21.6311 Cl      1  UNL1       -0.0825
     31 C         -14.3114  -18.4443   24.2538 C.3     1  UNL1        0.4186
     32 F         -15.7400  -18.8179   24.5177 F       1  UNL1       -0.1659
     33 F         -14.5779  -18.4677   22.7779 F       1  UNL1       -0.1659
     34 F         -14.0449  -18.4208   25.7297 F       1  UNL1       -0.1659
@<TRIPOS>BOND
     1    14    15    1
     2    15    13    1
     3    13     1    1
     4     1     2   ar
     5     2     3   ar
     6     3     4   ar
     7     4     5   ar
     8     5     6   ar
     9     6     7    1
    10     6     8   ar
    11     8    20    1
    12    20    21    1
    13    21    22    1
    14    21    24    1
    15    24    25   ar
    16    25    26   ar
    17    26    27   ar
    18    27    31    1
    19    31    32    1
    20    31    33    1
    21    31    34    1
    22    27    28   ar
    23    28    29   ar
    24    29    30    1
    25     8     9   ar
    26     9    10   ar
    27    15    16    1
    28    16    17    1
    29    16    18    1
    30    16    19    1
    31    10     1   ar
    32     9     4   ar
    33    29    24   ar
    34     7    11    1
    35     7    12    1
    36    22    23    1
@<TRIPOS>MOLECULE
*****
 34 36 0 0 0
SMALL
GASTEIGER

@<TRIPOS>ATOM
      1 C          -8.5554  -18.2843   21.8054 C.ar    1  UNL1        0.2264
      2 C          -8.8706  -19.1224   20.6020 C.ar    1  UNL1        0.0594
      3 C          -7.7772  -19.8787   19.9074 C.ar    1  UNL1        0.0271
      4 C          -6.3686  -19.7969   20.4163 C.ar    1  UNL1        0.1184
      5 N          -5.0921  -20.4262   19.9424 N.ar    1  UNL1       -0.2123
      6 C          -3.9879  -19.9771   20.8530 C.ar    1  UNL1        0.1959
      7 N          -2.5433  -20.3666   20.7457 N.pl3   1  UNL1       -0.3287
      8 N          -4.5819  -19.0702   21.8896 N.ar    1  UNL1       -0.2824
      9 C          -6.0533  -18.9588   21.6196 C.ar    1  UNL1        0.1668
     10 N          -7.1467  -18.2025   22.3142 N.ar    1  UNL1       -0.1926
     11 H          -2.2484  -20.9708   20.0265 H       1  UNL1        0.1451
     12 H          -1.8900  -20.0180   21.3945 H       1  UNL1        0.1451
     13 O          -9.6488  -17.5280   22.5000 O.3     1  UNL1       -0.4550
     14 C         -11.1097  -16.8163   20.4729 C.3     1  UNL1        0.0566
     15 C         -10.9953  -17.3929   21.8529 C.3     1  UNL1        0.2616
     16 C         -12.2273  -17.8343   22.5859 C.3     1  UNL1        0.4341
     17 F         -13.4593  -18.2758   23.3188 F       1  UNL1       -0.1664
     18 F         -12.6837  -16.4084   22.6777 F       1  UNL1       -0.1664
     19 F         -11.7710  -19.2602   22.4940 F       1  UNL1       -0.1664
     20 C          -3.8357  -18.3934   23.0010 C.3     1  UNL1        0.1438
     21 C          -3.9883  -16.9169   23.2165 C.3     1  UNL1        0.1561
     22 O          -3.1511  -15.9534   22.4286 O.3     1  UNL1       -0.3780
     23 H          -2.5685  -16.4461   21.8296 H       1  UNL1        0.2109
     24 C          -4.9781  -16.4038   24.2201 C.ar    1  UNL1        0.0167
     25 C          -6.1543  -15.5915   23.7655 C.ar    1  UNL1       -0.0011
     26 C          -7.1442  -15.0784   24.7691 C.ar    1  UNL1        0.0037
     27 C          -6.9578  -15.3776   26.2270 C.ar    1  UNL1        0.0722
     28 C          -5.7815  -16.1900   26.6815 C.ar    1  UNL1        0.0150
     29 C          -4.7916  -16.7030   25.6780 C.ar    1  UNL1        0.0559
     30 CL         -3.6154  -17.5153   26.1325 Cl      1  UNL1       -0.0825
     31 C          -7.9476  -14.8646   27.2306 C.3     1  UNL1        0.4186
     32 F          -8.9373  -14.3515   28.2341 F       1  UNL1       -0.1659
     33 F          -6.8206  -14.4363   28.1230 F       1  UNL1       -0.1659
     34 F          -9.0746  -15.2930   26.3381 F       1  UNL1       -0.1659
@<TRIPOS>BOND
     1    14    15    1
     2    15    13    1
     3    13     1    1
     4     1     2   ar
     5     2     3   ar
     6     3     4   ar
     7     4     5   ar
     8     5     6   ar
     9     6     7    1
    10     6     8   ar
    11     8    20    1
    12    20    21    1
    13    21    22    1
    14    21    24    1
    15    24    25   ar
    16    25    26   ar
    17    26    27   ar
    18    27    31    1
    19    31    32    1
    20    31    33    1
    21    31    34    1
    22    27    28   ar
    23    28    29   ar
    24    29    30    1
    25     8     9   ar
    26     9    10   ar
    27    15    16    1
    28    16    17    1
    29    16    18    1
    30    16    19    1
    31    10     1   ar
    32     9     4   ar
    33    29    24   ar
    34     7    11    1
    35     7    12    1
    36    22    23    1
@<TRIPOS>MOLECULE
*****
 34 36 0 0 0
SMALL
GASTEIGER

@<TRIPOS>ATOM
      1 C          -4.1303  -19.1963   21.3808 C.ar    1  UNL1        0.2264
      2 C          -4.0823  -20.5058   20.6509 C.ar    1  UNL1        0.0594
      3 C          -5.3203  -21.0472   19.9995 C.ar    1  UNL1        0.0271
      4 C          -6.6063  -20.2789   20.0780 C.ar    1  UNL1        0.1184
      5 N          -7.9773  -20.5590   19.5379 N.ar    1  UNL1       -0.2123
      6 C          -8.8726  -19.4225   19.9339 C.ar    1  UNL1        0.1959
      7 N         -10.3299  -19.2915   19.6031 N.pl3   1  UNL1       -0.3287
      8 N          -8.0549  -18.4400   20.7188 N.ar    1  UNL1       -0.2824
      9 C          -6.6542  -18.9694   20.8078 C.ar    1  UNL1        0.1668
     10 N          -5.4162  -18.4281   21.4592 N.ar    1  UNL1       -0.1926
     11 H         -10.7808  -19.9929   19.0797 H       1  UNL1        0.1451
     12 H         -10.8353  -18.5041   19.9094 H       1  UNL1        0.1451
     13 O          -2.8922  -18.6550   22.0322 O.3     1  UNL1       -0.4550
     14 C          -1.9085  -16.2619   21.7965 C.3     1  UNL1        0.0566
     15 C          -2.8418  -17.2220   22.4726 C.3     1  UNL1        0.2616
     16 C          -3.7248  -16.7490   23.5892 C.3     1  UNL1        0.4341
     17 F          -4.6078  -16.2761   24.7058 F       1  UNL1       -0.1664
     18 F          -3.9108  -15.4370   22.8864 F       1  UNL1       -0.1664
     19 F          -3.5388  -18.0610   24.2920 F       1  UNL1       -0.1664
     20 C          -8.5508  -17.1541   21.3108 C.3     1  UNL1        0.1438
     21 C          -8.9257  -17.0917   22.7618 C.3     1  UNL1        0.1561
     22 O          -7.9050  -16.6863   23.7835 O.3     1  UNL1       -0.3780
     23 H          -7.0617  -16.5001   23.3418 H       1  UNL1        0.2109
     24 C         -10.3214  -17.4348   23.1911 C.ar    1  UNL1        0.0167
     25 C         -10.5439  -18.4145   24.3050 C.ar    1  UNL1       -0.0011
     26 C         -11.9396  -18.7576   24.7345 C.ar    1  UNL1        0.0037
     27 C         -13.1127  -18.1211   24.0499 C.ar    1  UNL1        0.0722
     28 C         -12.8901  -17.1414   22.9360 C.ar    1  UNL1        0.0150
     29 C         -11.4945  -16.7983   22.5066 C.ar    1  UNL1        0.0559
     30 CL        -11.2720  -15.8186   21.3927 Cl      1  UNL1       -0.0825
     31 C         -14.5084  -18.4642   24.4793 C.3     1  UNL1        0.4186
     32 F         -15.9041  -18.8072   24.9085 F       1  UNL1       -0.1659
     33 F         -14.9296  -18.5486   23.0421 F       1  UNL1       -0.1659
     34 F         -14.0872  -18.3797   25.9164 F       1  UNL1       -0.1659
@<TRIPOS>BOND
     1    14    15    1
     2    15    13    1
     3    13     1    1
     4     1     2   ar
     5     2     3   ar
     6     3     4   ar
     7     4     5   ar
     8     5     6   ar
     9     6     7    1
    10     6     8   ar
    11     8    20    1
    12    20    21    1
    13    21    22    1
    14    21    24    1
    15    24    25   ar
    16    25    26   ar
    17    26    27   ar
    18    27    31    1
    19    31    32    1
    20    31    33    1
    21    31    34    1
    22    27    28   ar
    23    28    29   ar
    24    29    30    1
    25     8     9   ar
    26     9    10   ar
    27    15    16    1
    28    16    17    1
    29    16    18    1
    30    16    19    1
    31    10     1   ar
    32     9     4   ar
    33    29    24   ar
    34     7    11    1
    35     7    12    1
    36    22    23    1
@<TRIPOS>MOLECULE
*****
 34 36 0 0 0
SMALL
GASTEIGER

@<TRIPOS>ATOM
      1 C          -7.8230  -19.6251   21.8085 C.ar    1  UNL1        0.2264
      2 C          -7.7424  -20.3937   20.5229 C.ar    1  UNL1        0.0594
      3 C          -6.4341  -20.5081   19.7982 C.ar    1  UNL1        0.0271
      4 C          -5.2064  -19.8538   20.3590 C.ar    1  UNL1        0.1184
      5 N          -3.7890  -19.7948   19.8717 N.ar    1  UNL1       -0.2123
      6 C          -2.9935  -18.9897   20.8562 C.ar    1  UNL1        0.1959
      7 N          -1.5293  -18.6779   20.7615 N.pl3   1  UNL1       -0.3287
      8 N          -3.9193  -18.5511   21.9518 N.ar    1  UNL1       -0.2824
      9 C          -5.2870  -19.0852   21.6445 C.ar    1  UNL1        0.1668
     10 N          -6.5953  -18.9708   22.3693 N.ar    1  UNL1       -0.1926
     11 H          -1.0030  -19.0125   19.9997 H       1  UNL1        0.1451
     12 H          -1.0945  -18.1387   21.4611 H       1  UNL1        0.1451
     13 O          -9.1313  -19.5108   22.5332 O.3     1  UNL1       -0.4550
     14 C         -10.2577  -17.3120   23.3373 C.3     1  UNL1        0.0566
     15 C         -10.0347  -18.3426   22.2704 C.3     1  UNL1        0.2616
     16 C         -10.7151  -18.2049   20.9407 C.3     1  UNL1        0.4341
     17 F         -11.3955  -18.0671   19.6110 F       1  UNL1       -0.1664
     18 F         -11.1222  -19.6473   20.9995 F       1  UNL1       -0.1664
     19 F         -10.3080  -16.7624   20.8818 F       1  UNL1       -0.1664
     20 C          -3.5435  -17.7237   23.1452 C.3     1  UNL1        0.1438
     21 C          -4.0545  -16.3195   23.2753 C.3     1  UNL1        0.1561
     22 O          -3.5234  -15.2419   22.3771 O.3     1  UNL1       -0.3780
     23 H          -2.8622  -15.6189   21.7758 H       1  UNL1        0.2109
     24 C          -5.0966  -15.9929   24.3035 C.ar    1  UNL1        0.0167
     25 C          -4.7401  -15.9983   25.7605 C.ar    1  UNL1       -0.0011
     26 C          -5.7822  -15.6717   26.7889 C.ar    1  UNL1        0.0037
     27 C          -7.1808  -15.3397   26.3602 C.ar    1  UNL1        0.0722
     28 C          -7.5372  -15.3343   24.9031 C.ar    1  UNL1        0.0150
     29 C          -6.4952  -15.6609   23.8748 C.ar    1  UNL1        0.0559
     30 CL         -6.8517  -15.6555   22.4178 Cl      1  UNL1       -0.0825
     31 C          -8.2229  -15.0131   27.3884 C.3     1  UNL1        0.4186
     32 F          -9.2650  -14.6864   28.4167 F       1  UNL1       -0.1659
     33 F          -7.2132  -14.2140   28.1578 F       1  UNL1       -0.1659
     34 F          -9.2326  -15.8121   26.6190 F       1  UNL1       -0.1659
@<TRIPOS>BOND
     1    14    15    1
     2    15    13    1
     3    13     1    1
     4     1     2   ar
     5     2     3   ar
     6     3     4   ar
     7     4     5   ar
     8     5     6   ar
     9     6     7    1
    10     6     8   ar
    11     8    20    1
    12    20    21    1
    13    21    22    1
    14    21    24    1
    15    24    25   ar
    16    25    26   ar
    17    26    27   ar
    18    27    31    1
    19    31    32    1
    20    31    33    1
    21    31    34    1
    22    27    28   ar
    23    28    29   ar
    24    29    30    1
    25     8     9   ar
    26     9    10   ar
    27    15    16    1
    28    16    17    1
    29    16    18    1
    30    16    19    1
    31    10     1   ar
    32     9     4   ar
    33    29    24   ar
    34     7    11    1
    35     7    12    1
    36    22    23    1
