@<TRIPOS>MOLECULE
*****
 28 31 0 0 0
SMALL
GASTEIGER

@<TRIPOS>ATOM
      1 N          -6.7126  -19.0203   22.2864 N.pl3   1  UNL1       -0.2781
      2 C          -7.5193  -17.9085   22.8891 C.3     1  UNL1        0.0950
      3 C          -8.7223  -18.5139   23.5495 C.3     1  UNL1        0.0373
      4 C          -8.6592  -19.9999   23.3550 C.3     1  UNL1        0.0373
      5 C          -7.4172  -20.3128   22.5744 C.3     1  UNL1        0.0950
      6 C          -9.8040  -19.3900   24.1084 C.3     1  UNL1        0.0577
      7 C          -2.8563  -18.5590   20.0136 C.ar    1  UNL1        0.0937
      8 C          -2.8422  -18.6065   21.5128 C.ar    1  UNL1        0.1079
      9 N          -4.1277  -18.7602   22.2704 N.ar    1  UNL1       -0.2119
     10 C          -5.4272  -18.8665   21.5288 C.ar    1  UNL1        0.2202
     11 N          -5.4412  -18.8191   20.0297 N.ar    1  UNL1       -0.2119
     12 C          -4.1558  -18.6653   19.2721 C.ar    1  UNL1        0.1079
     13 O          -0.2756  -18.8288   19.8828 O.2     1  UNL1       -0.2680
     14 C          -1.5708  -18.4053   19.2560 C.2     1  UNL1        0.2708
     15 N          -1.5806  -17.8280   17.8716 N.am    1  UNL1       -0.1934
     16 O          -0.2951  -17.6743   17.1140 O.3     1  UNL1       -0.2949
     17 H          -2.4307  -17.5500   17.4602 H       1  UNL1        0.1825
     18 H           0.4413  -17.9934   17.6587 H       1  UNL1        0.2414
     19 N         -11.0894  -19.5438   24.8660 N.3     1  UNL1       -0.2947
     20 H         -10.9211  -19.1879   25.8069 H       1  UNL1        0.1235
     21 C         -12.3378  -18.8777   24.3680 C.3     1  UNL1        0.0956
     22 C         -12.3015  -18.0609   23.1104 C.ar    1  UNL1       -0.0063
     23 C         -12.5791  -16.5878   23.1647 C.ar    1  UNL1       -0.0021
     24 C         -12.5429  -15.7710   21.9071 C.ar    1  UNL1        0.0111
     25 C         -12.2290  -16.4273   20.5953 C.ar    1  UNL1        0.0577
     26 CL        -12.1927  -15.6105   19.3377 Cl      1  UNL1       -0.0822
     27 C         -11.9514  -17.9004   20.5411 C.ar    1  UNL1        0.0111
     28 C         -11.9877  -18.7172   21.7987 C.ar    1  UNL1       -0.0021
@<TRIPOS>BOND
     1    13    14    2
     2    14    15   am
     3    15    16    1
     4    14     7    1
     5     7     8   ar
     6     8     9   ar
     7     9    10   ar
     8    10     1    1
     9     1     2    1
    10     3     2    1
    11     3     4    1
    12     4     5    1
    13     4     6    1
    14     6    19    1
    15    19    21    1
    16    21    22    1
    17    22    23   ar
    18    23    24   ar
    19    24    25   ar
    20    25    26    1
    21    25    27   ar
    22    27    28   ar
    23    10    11   ar
    24    11    12   ar
    25    12     7   ar
    26     5     1    1
    27    28    22   ar
    28     6     3    1
    29    15    17    1
    30    16    18    1
    31    19    20    1
@<TRIPOS>MOLECULE
*****
 28 31 0 0 0
SMALL
GASTEIGER

@<TRIPOS>ATOM
      1 N          -5.8902  -19.0719   20.8761 N.pl3   1  UNL1       -0.2781
      2 C          -6.9696  -19.1664   19.8388 C.3     1  UNL1        0.0950
      3 C          -8.2721  -19.4001   20.5451 C.3     1  UNL1        0.0373
      4 C          -7.9978  -19.4501   22.0189 C.3     1  UNL1        0.0373
      5 C          -6.5257  -19.2473   22.2235 C.3     1  UNL1        0.0950
      6 C          -9.3982  -19.6239   21.5104 C.3     1  UNL1        0.0577
      7 C          -1.5142  -18.3834   20.0848 C.ar    1  UNL1        0.0937
      8 C          -2.5408  -17.8708   19.1187 C.ar    1  UNL1        0.1079
      9 N          -3.9995  -18.1003   19.3825 N.ar    1  UNL1       -0.2119
     10 C          -4.4316  -18.8424   20.6123 C.ar    1  UNL1        0.2202
     11 N          -3.4050  -19.3550   21.5784 N.ar    1  UNL1       -0.2119
     12 C          -1.9463  -19.1255   21.3146 C.ar    1  UNL1        0.1079
     13 O           0.8592  -19.3216   19.5986 O.2     1  UNL1       -0.2680
     14 C          -0.0555  -18.1538   19.8210 C.2     1  UNL1        0.2708
     15 N           0.4884  -16.7566   19.7797 N.am    1  UNL1       -0.1934
     16 O           1.9471  -16.5271   19.5159 O.3     1  UNL1       -0.2949
     17 H          -0.1120  -15.9901   19.9257 H       1  UNL1        0.1825
     18 H           2.3920  -17.3805   19.3953 H       1  UNL1        0.2414
     19 N         -10.8568  -19.8534   21.7742 N.3     1  UNL1       -0.2947
     20 H         -10.9731  -20.8539   21.9352 H       1  UNL1        0.1235
     21 C         -11.5327  -19.1501   22.9137 C.3     1  UNL1        0.0956
     22 C         -10.7361  -18.2686   23.8294 C.ar    1  UNL1       -0.0063
     23 C         -10.4297  -16.8553   23.4309 C.ar    1  UNL1       -0.0021
     24 C          -9.6331  -15.9739   24.3466 C.ar    1  UNL1        0.0111
     25 C          -9.1430  -16.5057   25.6608 C.ar    1  UNL1        0.0577
     26 CL         -8.3464  -15.6243   26.5765 Cl      1  UNL1       -0.0822
     27 C          -9.4494  -17.9190   26.0592 C.ar    1  UNL1        0.0111
     28 C         -10.2460  -18.8004   25.1435 C.ar    1  UNL1       -0.0021
@<TRIPOS>BOND
     1    13    14    2
     2    14    15   am
     3    15    16    1
     4    14     7    1
     5     7     8   ar
     6     8     9   ar
     7     9    10   ar
     8    10     1    1
     9     1     2    1
    10     3     2    1
    11     3     4    1
    12     4     5    1
    13     4     6    1
    14     6    19    1
    15    19    21    1
    16    21    22    1
    17    22    23   ar
    18    23    24   ar
    19    24    25   ar
    20    25    26    1
    21    25    27   ar
    22    27    28   ar
    23    10    11   ar
    24    11    12   ar
    25    12     7   ar
    26     5     1    1
    27    28    22   ar
    28     6     3    1
    29    15    17    1
    30    16    18    1
    31    19    20    1
@<TRIPOS>MOLECULE
*****
 28 31 0 0 0
SMALL
GASTEIGER

@<TRIPOS>ATOM
      1 N           6.8779   -4.3344   23.9713 N.pl3   1  UNL1       -0.2781
      2 C           7.9122   -4.4611   22.8923 C.3     1  UNL1        0.0950
      3 C           7.3281   -3.9137   21.6237 C.3     1  UNL1        0.0373
      4 C           5.9328   -3.4487   21.9187 C.3     1  UNL1        0.0373
      5 C           5.6546   -3.7087   23.3696 C.3     1  UNL1        0.0950
      6 C           6.4912   -3.3136   20.5331 C.3     1  UNL1        0.0577
      7 C           7.3603   -5.6078   28.2603 C.ar    1  UNL1        0.0937
      8 C           6.9985   -4.1889   27.9354 C.ar    1  UNL1        0.1079
      9 N           6.8377   -3.7644   26.5057 N.ar    1  UNL1       -0.2119
     10 C           7.0387   -4.7589   25.4009 C.ar    1  UNL1        0.2202
     11 N           7.4005   -6.1778   25.7259 N.ar    1  UNL1       -0.2119
     12 C           7.5613   -6.6023   27.1555 C.ar    1  UNL1        0.1079
     13 O           8.7152   -6.8410   30.1025 O.2     1  UNL1       -0.2680
     14 C           7.5211   -6.0323   29.6900 C.2     1  UNL1        0.2708
     15 N           6.4879   -5.6481   30.7071 N.am    1  UNL1       -0.1934
     16 O           6.6487   -6.0725   32.1368 O.3     1  UNL1       -0.2949
     17 H           5.7041   -5.1173   30.4364 H       1  UNL1        0.1825
     18 H           7.4674   -6.5840   32.2321 H       1  UNL1        0.2414
     19 N           6.3304   -2.8891   19.1034 N.3     1  UNL1       -0.2947
     20 H           6.9894   -3.4428   18.5560 H       1  UNL1        0.1235
     21 C           4.9960   -3.0134   18.4297 C.3     1  UNL1        0.0956
     22 C           3.9378   -1.9766   18.6645 C.ar    1  UNL1       -0.0063
     23 C           3.0323   -2.0854   19.8554 C.ar    1  UNL1       -0.0021
     24 C           1.9741   -1.0485   20.0902 C.ar    1  UNL1        0.0111
     25 C           1.8214    0.0971   19.1340 C.ar    1  UNL1        0.0577
     26 CL          0.7632    1.1340   19.3687 Cl      1  UNL1       -0.0822
     27 C           2.7269    0.2059   17.9431 C.ar    1  UNL1        0.0111
     28 C           3.7851   -0.8310   17.7083 C.ar    1  UNL1       -0.0021
@<TRIPOS>BOND
     1    13    14    2
     2    14    15   am
     3    15    16    1
     4    14     7    1
     5     7     8   ar
     6     8     9   ar
     7     9    10   ar
     8    10     1    1
     9     1     2    1
    10     3     2    1
    11     3     4    1
    12     4     5    1
    13     4     6    1
    14     6    19    1
    15    19    21    1
    16    21    22    1
    17    22    23   ar
    18    23    24   ar
    19    24    25   ar
    20    25    26    1
    21    25    27   ar
    22    27    28   ar
    23    10    11   ar
    24    11    12   ar
    25    12     7   ar
    26     5     1    1
    27    28    22   ar
    28     6     3    1
    29    15    17    1
    30    16    18    1
    31    19    20    1
@<TRIPOS>MOLECULE
*****
 28 31 0 0 0
SMALL
GASTEIGER

@<TRIPOS>ATOM
      1 N           6.8525   -4.3415   24.1311 N.pl3   1  UNL1       -0.2781
      2 C           5.6899   -3.5919   23.5512 C.3     1  UNL1        0.0950
      3 C           5.9379   -3.4159   22.0824 C.3     1  UNL1        0.0373
      4 C           7.2539   -4.0566   21.7544 C.3     1  UNL1        0.0373
      5 C           7.8191   -4.6287   23.0206 C.3     1  UNL1        0.0950
      6 C           6.4515   -3.3956   20.6732 C.3     1  UNL1        0.0577
      7 C           7.3528   -5.5215   28.4447 C.ar    1  UNL1        0.0937
      8 C           7.4848   -6.5539   27.3646 C.ar    1  UNL1        0.1079
      9 N           7.3181   -6.1605   25.9267 N.ar    1  UNL1       -0.2119
     10 C           7.0193   -4.7348   25.5690 C.ar    1  UNL1        0.2202
     11 N           6.8873   -3.7025   26.6491 N.ar    1  UNL1       -0.2119
     12 C           7.0540   -4.0958   28.0870 C.ar    1  UNL1        0.1079
     13 O           8.7319   -6.6858   30.3135 O.2     1  UNL1       -0.2680
     14 C           7.5196   -5.9148   29.8826 C.2     1  UNL1        0.2708
     15 N           6.4740   -5.5371   30.8896 N.am    1  UNL1       -0.1934
     16 O           6.6408   -5.9304   32.3275 O.3     1  UNL1       -0.2949
     17 H           5.6783   -5.0310   30.6068 H       1  UNL1        0.1825
     18 H           7.4715   -6.4196   32.4346 H       1  UNL1        0.2414
     19 N           6.2847   -3.0023   19.2353 N.3     1  UNL1       -0.2947
     20 H           6.9347   -3.5745   18.6963 H       1  UNL1        0.1235
     21 C           4.9446   -3.1293   18.5736 C.3     1  UNL1        0.0956
     22 C           3.9185   -2.0485   18.7440 C.ar    1  UNL1       -0.0063
     23 C           3.8096   -0.9508   17.7275 C.ar    1  UNL1       -0.0021
     24 C           2.7835    0.1300   17.8980 C.ar    1  UNL1        0.0111
     25 C           1.8664    0.1131   19.0849 C.ar    1  UNL1        0.0577
     26 CL          0.8403    1.1939   19.2553 Cl      1  UNL1       -0.0822
     27 C           1.9754   -0.9846   20.1013 C.ar    1  UNL1        0.0111
     28 C           3.0015   -2.0654   19.9309 C.ar    1  UNL1       -0.0021
@<TRIPOS>BOND
     1    13    14    2
     2    14    15   am
     3    15    16    1
     4    14     7    1
     5     7     8   ar
     6     8     9   ar
     7     9    10   ar
     8    10     1    1
     9     1     2    1
    10     3     2    1
    11     3     4    1
    12     4     5    1
    13     4     6    1
    14     6    19    1
    15    19    21    1
    16    21    22    1
    17    22    23   ar
    18    23    24   ar
    19    24    25   ar
    20    25    26    1
    21    25    27   ar
    22    27    28   ar
    23    10    11   ar
    24    11    12   ar
    25    12     7   ar
    26     5     1    1
    27    28    22   ar
    28     6     3    1
    29    15    17    1
    30    16    18    1
    31    19    20    1
@<TRIPOS>MOLECULE
*****
 28 31 0 0 0
SMALL
GASTEIGER

@<TRIPOS>ATOM
      1 N          -1.3898    3.0296   19.8754 N.pl3   1  UNL1       -0.2781
      2 C          -0.7053    3.5749   18.6571 C.3     1  UNL1        0.0950
      3 C           0.6399    2.9200   18.5491 C.3     1  UNL1        0.0373
      4 C           0.7867    1.9700   19.7005 C.3     1  UNL1        0.0373
      5 C          -0.4677    2.0377   20.5202 C.3     1  UNL1        0.0950
      6 C           1.8968    2.1160   18.7024 C.3     1  UNL1        0.0577
      7 C          -5.4898    4.1693   21.3387 C.ar    1  UNL1        0.0937
      8 C          -4.5537    3.4194   22.2393 C.ar    1  UNL1        0.1079
      9 N          -3.1870    3.0395   21.7516 N.ar    1  UNL1       -0.2119
     10 C          -2.7565    3.4095   20.3631 C.ar    1  UNL1        0.2202
     11 N          -3.6927    4.1594   19.4625 N.ar    1  UNL1       -0.2119
     12 C          -5.0593    4.5393   19.9502 C.ar    1  UNL1        0.1079
     13 O          -7.6374    5.6142   21.1153 O.2     1  UNL1       -0.2680
     14 C          -6.8565    4.5492   21.8264 C.2     1  UNL1        0.2708
     15 N          -7.4422    3.8640   23.0253 N.am    1  UNL1       -0.1934
     16 O          -8.8089    4.2439   23.5131 O.3     1  UNL1       -0.2949
     17 H          -6.9297    3.1650   23.4921 H       1  UNL1        0.1825
     18 H          -9.1722    4.9419   22.9458 H       1  UNL1        0.2414
     19 N           3.2635    1.7361   18.2146 N.3     1  UNL1       -0.2947
     20 H           3.7351    2.6027   17.9556 H       1  UNL1        0.1235
     21 C           4.1997    0.9862   19.1153 C.3     1  UNL1        0.0956
     22 C           4.2960   -0.5077   19.0204 C.ar    1  UNL1       -0.0063
     23 C           3.2812   -1.3700   19.7108 C.ar    1  UNL1       -0.0021
     24 C           3.3775   -2.8639   19.6159 C.ar    1  UNL1        0.0111
     25 C           4.4886   -3.4955   18.8306 C.ar    1  UNL1        0.0577
     26 CL          4.5850   -4.9894   18.7357 Cl      1  UNL1       -0.0822
     27 C           5.5034   -2.6331   18.1403 C.ar    1  UNL1        0.0111
     28 C           5.4070   -1.1392   18.2352 C.ar    1  UNL1       -0.0021
@<TRIPOS>BOND
     1    13    14    2
     2    14    15   am
     3    15    16    1
     4    14     7    1
     5     7     8   ar
     6     8     9   ar
     7     9    10   ar
     8    10     1    1
     9     1     2    1
    10     3     2    1
    11     3     4    1
    12     4     5    1
    13     4     6    1
    14     6    19    1
    15    19    21    1
    16    21    22    1
    17    22    23   ar
    18    23    24   ar
    19    24    25   ar
    20    25    26    1
    21    25    27   ar
    22    27    28   ar
    23    10    11   ar
    24    11    12   ar
    25    12     7   ar
    26     5     1    1
    27    28    22   ar
    28     6     3    1
    29    15    17    1
    30    16    18    1
    31    19    20    1
@<TRIPOS>MOLECULE
*****
 28 31 0 0 0
SMALL
GASTEIGER

@<TRIPOS>ATOM
      1 N           6.9530   -4.4884   23.4241 N.pl3   1  UNL1       -0.2781
      2 C           6.4122   -4.0265   24.7447 C.3     1  UNL1        0.0950
      3 C           7.0191   -4.8803   25.8184 C.3     1  UNL1        0.0373
      4 C           7.9351   -5.8698   25.1612 C.3     1  UNL1        0.0373
      5 C           7.8942   -5.6276   23.6815 C.3     1  UNL1        0.0950
      6 C           7.7721   -5.8741   26.6523 C.3     1  UNL1        0.0577
      7 C           5.9312   -2.7597   19.3969 C.ar    1  UNL1        0.0937
      8 C           7.2704   -2.4839   20.0136 C.ar    1  UNL1        0.1079
      9 N           7.6110   -3.0601   21.3560 N.ar    1  UNL1       -0.2119
     10 C           6.6124   -3.9121   22.0817 C.ar    1  UNL1        0.2202
     11 N           5.2732   -4.1879   21.4650 N.ar    1  UNL1       -0.2119
     12 C           4.9326   -3.6117   20.1227 C.ar    1  UNL1        0.1079
     13 O           6.6849   -1.7456   17.1268 O.2     1  UNL1       -0.2680
     14 C           5.5906   -2.1835   18.0546 C.2     1  UNL1        0.2708
     15 N           4.1557   -2.0451   17.6399 N.am    1  UNL1       -0.1934
     16 O           3.8151   -1.4689   16.2976 O.3     1  UNL1       -0.2949
     17 H           3.4375   -2.3325   18.2489 H       1  UNL1        0.1825
     18 H           4.6320   -1.2393   15.8276 H       1  UNL1        0.2414
     19 N           8.1127   -6.4503   27.9947 N.3     1  UNL1       -0.2947
     20 H           8.7738   -7.2094   27.8301 H       1  UNL1        0.1235
     21 C           8.7125   -5.5761   29.0558 C.3     1  UNL1        0.0956
     22 C           7.8260   -4.7254   29.9163 C.ar    1  UNL1       -0.0063
     23 C           7.4406   -5.1927   31.2886 C.ar    1  UNL1       -0.0021
     24 C           6.5541   -4.3421   32.1491 C.ar    1  UNL1        0.0111
     25 C           6.0530   -3.0241   31.6373 C.ar    1  UNL1        0.0577
     26 CL          5.1665   -2.1734   32.4978 Cl      1  UNL1       -0.0822
     27 C           6.4384   -2.5569   30.2650 C.ar    1  UNL1        0.0111
     28 C           7.3249   -3.4075   29.4045 C.ar    1  UNL1       -0.0021
@<TRIPOS>BOND
     1    13    14    2
     2    14    15   am
     3    15    16    1
     4    14     7    1
     5     7     8   ar
     6     8     9   ar
     7     9    10   ar
     8    10     1    1
     9     1     2    1
    10     3     2    1
    11     3     4    1
    12     4     5    1
    13     4     6    1
    14     6    19    1
    15    19    21    1
    16    21    22    1
    17    22    23   ar
    18    23    24   ar
    19    24    25   ar
    20    25    26    1
    21    25    27   ar
    22    27    28   ar
    23    10    11   ar
    24    11    12   ar
    25    12     7   ar
    26     5     1    1
    27    28    22   ar
    28     6     3    1
    29    15    17    1
    30    16    18    1
    31    19    20    1
@<TRIPOS>MOLECULE
*****
 28 31 0 0 0
SMALL
GASTEIGER

@<TRIPOS>ATOM
      1 N         -13.5119   -1.5682   18.9237 N.pl3   1  UNL1       -0.2781
      2 C         -13.1202   -0.2364   18.3554 C.3     1  UNL1        0.0950
      3 C         -14.2529    0.7187   18.5894 C.3     1  UNL1        0.0373
      4 C         -15.3447   -0.0228   19.3022 C.3     1  UNL1        0.0373
      5 C         -14.8867   -1.4362   19.5088 C.3     1  UNL1        0.0950
      6 C         -15.5230    1.4262   18.9582 C.3     1  UNL1        0.0577
      7 C         -11.0030   -5.3037   18.8806 C.ar    1  UNL1        0.0937
      8 C         -10.3729   -3.9736   18.5911 C.ar    1  UNL1        0.1079
      9 N         -11.2092   -2.7285   18.6054 N.ar    1  UNL1       -0.2119
     10 C         -12.6756   -2.8134   18.9093 C.ar    1  UNL1        0.2202
     11 N         -13.3057   -4.1434   19.1988 N.ar    1  UNL1       -0.2119
     12 C         -12.4695   -5.3886   19.1845 C.ar    1  UNL1        0.1079
     13 O          -8.9218   -6.6258   19.6993 O.2     1  UNL1       -0.2680
     14 C         -10.1668   -6.5488   18.8662 C.2     1  UNL1        0.2708
     15 N         -10.5754   -7.7171   18.0188 N.am    1  UNL1       -0.1934
     16 O          -9.7392   -8.9622   18.0044 O.3     1  UNL1       -0.2949
     17 H         -11.3926   -7.6666   17.4720 H       1  UNL1        0.1825
     18 H          -8.9768   -8.8465   18.5929 H       1  UNL1        0.2414
     19 N         -16.3593    2.6714   18.9726 N.3     1  UNL1       -0.2947
     20 H         -17.0067    2.6004   18.1875 H       1  UNL1        0.1235
     21 C         -17.1803    3.0096   20.1815 C.3     1  UNL1        0.0956
     22 C         -16.5150    3.5484   21.4132 C.ar    1  UNL1       -0.0063
     23 C         -17.1186    3.2961   22.7630 C.ar    1  UNL1       -0.0021
     24 C         -16.4533    3.8350   23.9947 C.ar    1  UNL1        0.0111
     25 C         -15.1844    4.6262   23.8765 C.ar    1  UNL1        0.0577
     26 CL        -14.5191    5.1651   25.1081 Cl      1  UNL1       -0.0822
     27 C         -14.5808    4.8785   22.5266 C.ar    1  UNL1        0.0111
     28 C         -15.2462    4.3396   21.2950 C.ar    1  UNL1       -0.0021
@<TRIPOS>BOND
     1    13    14    2
     2    14    15   am
     3    15    16    1
     4    14     7    1
     5     7     8   ar
     6     8     9   ar
     7     9    10   ar
     8    10     1    1
     9     1     2    1
    10     3     2    1
    11     3     4    1
    12     4     5    1
    13     4     6    1
    14     6    19    1
    15    19    21    1
    16    21    22    1
    17    22    23   ar
    18    23    24   ar
    19    24    25   ar
    20    25    26    1
    21    25    27   ar
    22    27    28   ar
    23    10    11   ar
    24    11    12   ar
    25    12     7   ar
    26     5     1    1
    27    28    22   ar
    28     6     3    1
    29    15    17    1
    30    16    18    1
    31    19    20    1
@<TRIPOS>MOLECULE
*****
 28 31 0 0 0
SMALL
GASTEIGER

@<TRIPOS>ATOM
      1 N          -1.4425    2.8754   19.9621 N.pl3   1  UNL1       -0.2781
      2 C          -0.7232    3.5009   18.8040 C.3     1  UNL1        0.0950
      3 C           0.5955    2.8035   18.6460 C.3     1  UNL1        0.0373
      4 C           0.6911    1.7471   19.7066 C.3     1  UNL1        0.0373
      5 C          -0.5685    1.7915   20.5200 C.3     1  UNL1        0.0950
      6 C           1.8171    1.9376   18.7341 C.3     1  UNL1        0.0577
      7 C          -5.5088    4.0454   21.4941 C.ar    1  UNL1        0.0937
      8 C          -5.2561    3.9724   20.0174 C.ar    1  UNL1        0.1079
      9 N          -3.9007    3.5824   19.5067 N.ar    1  UNL1       -0.2119
     10 C          -2.7979    3.2654   20.4728 C.ar    1  UNL1        0.2202
     11 N          -3.0506    3.3384   21.9495 N.ar    1  UNL1       -0.2119
     12 C          -4.4060    3.7284   22.4602 C.ar    1  UNL1        0.1079
     13 O          -7.6014    5.5806   21.3764 O.2     1  UNL1       -0.2680
     14 C          -6.8642    4.4354   22.0047 C.2     1  UNL1        0.2708
     15 N          -7.4824    3.6800   23.1437 N.am    1  UNL1       -0.1934
     16 O          -8.8378    4.0700   23.6543 O.3     1  UNL1       -0.2949
     17 H          -6.9986    2.9283   23.5561 H       1  UNL1        0.1825
     18 H          -9.1719    4.8231   23.1423 H       1  UNL1        0.2414
     19 N           3.1725    1.5476   18.2234 N.3     1  UNL1       -0.2947
     20 H           3.8442    1.8007   18.9481 H       1  UNL1        0.1235
     21 C           3.4524    0.1214   17.8526 C.3     1  UNL1        0.0956
     22 C           3.7250   -0.8925   18.9239 C.ar    1  UNL1       -0.0063
     23 C           3.5814   -0.5144   20.3684 C.ar    1  UNL1       -0.0021
     24 C           3.8539   -1.5283   21.4397 C.ar    1  UNL1        0.0111
     25 C           4.2701   -2.9203   21.0666 C.ar    1  UNL1        0.0577
     26 CL          4.5426   -3.9342   22.1379 Cl      1  UNL1       -0.0822
     27 C           4.4137   -3.2983   19.6221 C.ar    1  UNL1        0.0111
     28 C           4.1411   -2.2844   18.5508 C.ar    1  UNL1       -0.0021
@<TRIPOS>BOND
     1    13    14    2
     2    14    15   am
     3    15    16    1
     4    14     7    1
     5     7     8   ar
     6     8     9   ar
     7     9    10   ar
     8    10     1    1
     9     1     2    1
    10     3     2    1
    11     3     4    1
    12     4     5    1
    13     4     6    1
    14     6    19    1
    15    19    21    1
    16    21    22    1
    17    22    23   ar
    18    23    24   ar
    19    24    25   ar
    20    25    26    1
    21    25    27   ar
    22    27    28   ar
    23    10    11   ar
    24    11    12   ar
    25    12     7   ar
    26     5     1    1
    27    28    22   ar
    28     6     3    1
    29    15    17    1
    30    16    18    1
    31    19    20    1
@<TRIPOS>MOLECULE
*****
 28 31 0 0 0
SMALL
GASTEIGER

@<TRIPOS>ATOM
      1 N           3.4019   -0.6826   25.6063 N.pl3   1  UNL1       -0.2781
      2 C           2.7985   -0.3132   24.2836 C.3     1  UNL1        0.0950
      3 C           3.5297   -1.0682   23.2134 C.3     1  UNL1        0.0373
      4 C           4.5850   -1.9043   23.8746 C.3     1  UNL1        0.0373
      5 C           4.5060   -1.6660   25.3534 C.3     1  UNL1        0.0950
      6 C           4.4262   -1.9384   22.3834 C.3     1  UNL1        0.0577
      7 C           2.1242    0.8839   29.6266 C.ar    1  UNL1        0.0937
      8 C           2.2506    1.8209   28.4622 C.ar    1  UNL1        0.1079
      9 N           2.6765    1.2988   27.1221 N.ar    1  UNL1       -0.2119
     10 C           2.9760   -0.1605   26.9464 C.ar    1  UNL1        0.2202
     11 N           2.8495   -1.0975   28.1108 N.ar    1  UNL1       -0.2119
     12 C           2.4236   -0.5753   29.4509 C.ar    1  UNL1        0.1079
     13 O           2.2991    0.8383   32.2184 O.2     1  UNL1       -0.2680
     14 C           1.6982    1.4061   30.9667 C.2     1  UNL1        0.2708
     15 N           0.6715    2.4960   31.0552 N.am    1  UNL1       -0.1934
     16 O           0.2456    3.0181   32.3953 O.3     1  UNL1       -0.2949
     17 H           0.2771    2.8686   30.2337 H       1  UNL1        0.1825
     18 H           0.7267    2.5472   33.0936 H       1  UNL1        0.2414
     19 N           4.8521   -2.4606   21.0433 N.3     1  UNL1       -0.2947
     20 H           5.2305   -3.3951   21.1981 H       1  UNL1        0.1235
     21 C           3.8521   -2.5771   19.9314 C.3     1  UNL1        0.0956
     22 C           3.0383   -1.3838   19.5266 C.ar    1  UNL1       -0.0063
     23 C           3.5720   -0.4234   18.5054 C.ar    1  UNL1       -0.0021
     24 C           2.7582    0.7698   18.1006 C.ar    1  UNL1        0.0111
     25 C           1.4106    1.0026   18.7169 C.ar    1  UNL1        0.0577
     26 CL          0.5968    2.1959   18.3121 Cl      1  UNL1       -0.0822
     27 C           0.8769    0.0422   19.7381 C.ar    1  UNL1        0.0111
     28 C           1.6907   -1.1510   20.1429 C.ar    1  UNL1       -0.0021
@<TRIPOS>BOND
     1    13    14    2
     2    14    15   am
     3    15    16    1
     4    14     7    1
     5     7     8   ar
     6     8     9   ar
     7     9    10   ar
     8    10     1    1
     9     1     2    1
    10     3     2    1
    11     3     4    1
    12     4     5    1
    13     4     6    1
    14     6    19    1
    15    19    21    1
    16    21    22    1
    17    22    23   ar
    18    23    24   ar
    19    24    25   ar
    20    25    26    1
    21    25    27   ar
    22    27    28   ar
    23    10    11   ar
    24    11    12   ar
    25    12     7   ar
    26     5     1    1
    27    28    22   ar
    28     6     3    1
    29    15    17    1
    30    16    18    1
    31    19    20    1
