@<TRIPOS>MOLECULE
*****
 33 36 0 0 0
SMALL
GASTEIGER

@<TRIPOS>ATOM
      1 C          -6.7322  -20.2443   20.2170 C.3     1  UNL1        0.0071
      2 C          -7.2958  -19.7583   21.5194 C.3     1  UNL1        0.0177
      3 C          -8.7153  -19.2789   21.5899 C.3     1  UNL1        0.0721
      4 N          -9.5713  -19.2854   20.3582 N.3     1  UNL1       -0.2724
      5 C          -9.0077  -19.7714   19.0558 C.3     1  UNL1        0.0721
      6 C          -7.5882  -20.2508   18.9852 C.3     1  UNL1        0.0177
      7 C          -5.3126  -20.7237   20.1464 C.3     1  UNL1        0.0265
      8 C          -2.8841  -17.9484   21.6126 C.ar    1  UNL1        0.1445
      9 C          -4.0134  -18.9297   21.5041 C.ar    1  UNL1        0.0331
     10 C          -4.1833  -19.7425   20.2549 C.ar    1  UNL1       -0.0191
     11 C          -3.2239  -19.5741   19.1142 C.ar    1  UNL1       -0.0036
     12 C          -2.0945  -18.5928   19.2227 C.ar    1  UNL1        0.0094
     13 C          -1.9246  -17.7800   20.4719 C.ar    1  UNL1        0.0684
     14 BR         -0.7953  -16.7988   20.5804 Br      1  UNL1       -0.0458
     15 O          -2.7142  -17.1356   22.8618 O.3     1  UNL1       -0.4723
     16 C          -3.8826  -16.9113   23.7753 C.3     1  UNL1        0.2373
     17 C          -4.8491  -15.7983   23.4974 C.3     1  UNL1        0.1894
     18 C          -4.9598  -15.1470   26.0101 C.3     1  UNL1        0.1743
     19 O          -5.1647  -14.7947   24.5665 O.3     1  UNL1       -0.3471
     20 C         -10.9909  -18.8059   20.4288 C.3     1  UNL1        0.0768
     21 C         -11.3699  -17.7243   21.3964 C.3     1  UNL1        0.0437
     22 C         -10.8164  -17.7373   22.7905 C.ar    1  UNL1       -0.0208
     23 C         -11.1289  -18.8798   23.7109 C.ar    1  UNL1       -0.0011
     24 C         -10.5754  -18.8928   25.1049 C.ar    1  UNL1        0.0363
     25 C          -9.7093  -17.7633   25.5786 C.ar    1  UNL1        0.1367
     26 C          -9.3968  -16.6209   24.6582 C.ar    1  UNL1        0.0380
     27 C          -9.9503  -16.6079   23.2642 C.ar    1  UNL1       -0.0032
     28 C          -8.5308  -15.4915   25.1319 C.3     1  UNL1        0.1393
     29 O          -8.2183  -14.3490   24.2115 O.3     1  UNL1       -0.3798
     30 C          -7.9772  -15.5045   26.5259 C.3     1  UNL1        0.0812
     31 C          -8.2897  -16.6469   27.4464 C.3     1  UNL1        0.2083
     32 O          -9.1558  -17.7764   26.9727 O.3     1  UNL1       -0.4756
     33 H          -7.6512  -13.7098   24.6706 H       1  UNL1        0.2108
@<TRIPOS>BOND
     1    18    19    1
     2    19    17    1
     3    17    16    1
     4    16    15    1
     5    15     8    1
     6     8     9   ar
     7     9    10   ar
     8    10     7    1
     9     7     1    1
    10     1     2    1
    11     2     3    1
    12     3     4    1
    13     4    20    1
    14    20    21    1
    15    21    22    1
    16    22    23   ar
    17    23    24   ar
    18    24    25   ar
    19    25    26   ar
    20    26    27   ar
    21    26    28    1
    22    28    29    1
    23    28    30    1
    24    30    31    1
    25    31    32    1
    26     4     5    1
    27     5     6    1
    28    10    11   ar
    29    11    12   ar
    30    12    13   ar
    31    13    14    1
    32    13     8   ar
    33     6     1    1
    34    27    22   ar
    35    32    25    1
    36    29    33    1
@<TRIPOS>MOLECULE
*****
 33 36 0 0 0
SMALL
GASTEIGER

@<TRIPOS>ATOM
      1 C          -6.9079  -20.3790   20.7728 C.3     1  UNL1        0.0071
      2 C          -7.2649  -20.2413   22.2231 C.3     1  UNL1        0.0177
      3 C          -8.5716  -19.6195   22.6180 C.3     1  UNL1        0.0721
      4 N          -9.5212  -19.1354   21.5626 N.3     1  UNL1       -0.2724
      5 C          -9.1641  -19.2732   20.1122 C.3     1  UNL1        0.0721
      6 C          -7.8575  -19.8950   19.7173 C.3     1  UNL1        0.0177
      7 C          -5.6012  -21.0009   20.3778 C.3     1  UNL1        0.0265
      8 C          -2.4308  -18.9220   21.5511 C.ar    1  UNL1        0.1445
      9 C          -3.6748  -19.7586   21.6008 C.ar    1  UNL1        0.0331
     10 C          -4.3571  -20.1643   20.3281 C.ar    1  UNL1       -0.0191
     11 C          -3.7955  -19.7335   19.0057 C.ar    1  UNL1       -0.0036
     12 C          -2.5514  -18.8969   18.9559 C.ar    1  UNL1        0.0094
     13 C          -1.8690  -18.4912   20.2286 C.ar    1  UNL1        0.0684
     14 BR         -0.6250  -17.6546   20.1788 Br      1  UNL1       -0.0458
     15 O          -1.7484  -18.5162   22.8238 O.3     1  UNL1       -0.4723
     16 C          -2.5384  -17.8784   23.9279 C.3     1  UNL1        0.2373
     17 C          -3.8651  -17.2444   23.6314 C.3     1  UNL1        0.1894
     18 C          -2.7099  -15.5113   22.0784 C.3     1  UNL1        0.1743
     19 O          -3.9313  -15.9970   22.8010 O.3     1  UNL1       -0.3471
     20 C         -10.8279  -18.5136   21.9575 C.3     1  UNL1        0.0768
     21 C         -10.8567  -17.1256   22.5255 C.3     1  UNL1        0.0437
     22 C          -9.6117  -16.5296   23.1128 C.ar    1  UNL1       -0.0208
     23 C          -8.6267  -15.8264   22.2267 C.ar    1  UNL1       -0.0011
     24 C          -7.3818  -15.2304   22.8140 C.ar    1  UNL1        0.0363
     25 C          -7.1219  -15.3375   24.2874 C.ar    1  UNL1        0.1367
     26 C          -8.1070  -16.0407   25.1735 C.ar    1  UNL1        0.0380
     27 C          -9.3519  -16.6367   24.5862 C.ar    1  UNL1       -0.0032
     28 C          -7.8472  -16.1478   26.6470 C.3     1  UNL1        0.1393
     29 O          -8.8322  -16.8509   27.5331 O.3     1  UNL1       -0.3798
     30 C          -6.6023  -15.5518   27.2343 C.3     1  UNL1        0.0812
     31 C          -5.6171  -14.8486   26.3482 C.3     1  UNL1        0.2083
     32 O          -5.8770  -14.7415   24.8747 O.3     1  UNL1       -0.4756
     33 H          -8.5149  -16.8303   28.4495 H       1  UNL1        0.2108
@<TRIPOS>BOND
     1    18    19    1
     2    19    17    1
     3    17    16    1
     4    16    15    1
     5    15     8    1
     6     8     9   ar
     7     9    10   ar
     8    10     7    1
     9     7     1    1
    10     1     2    1
    11     2     3    1
    12     3     4    1
    13     4    20    1
    14    20    21    1
    15    21    22    1
    16    22    23   ar
    17    23    24   ar
    18    24    25   ar
    19    25    26   ar
    20    26    27   ar
    21    26    28    1
    22    28    29    1
    23    28    30    1
    24    30    31    1
    25    31    32    1
    26     4     5    1
    27     5     6    1
    28    10    11   ar
    29    11    12   ar
    30    12    13   ar
    31    13    14    1
    32    13     8   ar
    33     6     1    1
    34    27    22   ar
    35    32    25    1
    36    29    33    1
@<TRIPOS>MOLECULE
*****
 33 36 0 0 0
SMALL
GASTEIGER

@<TRIPOS>ATOM
      1 C          -3.9106  -16.9181   24.3598 C.3     1  UNL1        0.0071
      2 C          -4.2042  -17.0185   25.8273 C.3     1  UNL1        0.0177
      3 C          -5.4504  -16.3991   26.3868 C.3     1  UNL1        0.0721
      4 N          -6.4031  -15.6793   25.4788 N.3     1  UNL1       -0.2724
      5 C          -6.1095  -15.5790   24.0113 C.3     1  UNL1        0.0721
      6 C          -4.8632  -16.1984   23.4518 C.3     1  UNL1        0.0177
      7 C          -2.6642  -17.5376   23.8002 C.3     1  UNL1        0.0265
      8 C          -2.9377  -18.7898   20.0443 C.ar    1  UNL1        0.1445
      9 C          -3.1335  -18.7091   21.5292 C.ar    1  UNL1        0.0331
     10 C          -2.4684  -17.6183   22.3153 C.ar    1  UNL1       -0.0191
     11 C          -1.6074  -16.6083   21.6163 C.ar    1  UNL1       -0.0036
     12 C          -1.4116  -16.6890   20.1313 C.ar    1  UNL1        0.0094
     13 C          -2.0767  -17.7797   19.3453 C.ar    1  UNL1        0.0684
     14 BR         -1.8809  -17.8604   17.8604 Br      1  UNL1       -0.0458
     15 O          -3.6029  -19.8805   19.2583 O.3     1  UNL1       -0.4723
     16 C          -4.3646  -20.9596   19.9691 C.3     1  UNL1        0.2373
     17 C          -5.8212  -20.7727   20.2746 C.3     1  UNL1        0.1894
     18 C          -6.8012  -19.1124   22.0161 C.3     1  UNL1        0.1743
     19 O          -6.2606  -20.4697   21.6764 O.3     1  UNL1       -0.3471
     20 C          -7.6494  -15.0599   26.0384 C.3     1  UNL1        0.0768
     21 C          -8.8541  -15.9117   26.3086 C.3     1  UNL1        0.0437
     22 C          -9.3437  -16.8712   25.2646 C.ar    1  UNL1       -0.0208
     23 C          -9.6054  -18.3033   25.6258 C.ar    1  UNL1       -0.0011
     24 C         -10.0949  -19.2626   24.5819 C.ar    1  UNL1        0.0363
     25 C         -10.3228  -18.7899   23.1767 C.ar    1  UNL1        0.1367
     26 C         -10.0611  -17.3578   22.8154 C.ar    1  UNL1        0.0380
     27 C          -9.5716  -16.3984   23.8594 C.ar    1  UNL1       -0.0032
     28 C         -10.2890  -16.8851   21.4102 C.3     1  UNL1        0.1393
     29 O         -10.0273  -15.4530   21.0490 O.3     1  UNL1       -0.3798
     30 C         -10.7785  -17.8445   20.3663 C.3     1  UNL1        0.0812
     31 C         -11.0402  -19.2767   20.7275 C.3     1  UNL1        0.2083
     32 O         -10.8123  -19.7494   22.1327 O.3     1  UNL1       -0.4756
     33 H         -10.2234  -15.3156   20.1090 H       1  UNL1        0.2108
@<TRIPOS>BOND
     1    18    19    1
     2    19    17    1
     3    17    16    1
     4    16    15    1
     5    15     8    1
     6     8     9   ar
     7     9    10   ar
     8    10     7    1
     9     7     1    1
    10     1     2    1
    11     2     3    1
    12     3     4    1
    13     4    20    1
    14    20    21    1
    15    21    22    1
    16    22    23   ar
    17    23    24   ar
    18    24    25   ar
    19    25    26   ar
    20    26    27   ar
    21    26    28    1
    22    28    29    1
    23    28    30    1
    24    30    31    1
    25    31    32    1
    26     4     5    1
    27     5     6    1
    28    10    11   ar
    29    11    12   ar
    30    12    13   ar
    31    13    14    1
    32    13     8   ar
    33     6     1    1
    34    27    22   ar
    35    32    25    1
    36    29    33    1
@<TRIPOS>MOLECULE
*****
 33 36 0 0 0
SMALL
GASTEIGER

@<TRIPOS>ATOM
      1 C          -6.6298  -20.4900   19.9172 C.3     1  UNL1        0.0071
      2 C          -7.1693  -19.3585   20.7410 C.3     1  UNL1        0.0177
      3 C          -8.5936  -18.9197   20.5711 C.3     1  UNL1        0.0721
      4 N          -9.4783  -19.6124   19.5775 N.3     1  UNL1       -0.2724
      5 C          -8.9389  -20.7439   18.7537 C.3     1  UNL1        0.0721
      6 C          -7.5146  -21.1827   18.9236 C.3     1  UNL1        0.0177
      7 C          -5.2055  -20.9288   20.0870 C.3     1  UNL1        0.0265
      8 C          -2.7836  -18.3013   21.8134 C.ar    1  UNL1        0.1445
      9 C          -3.8662  -19.3229   21.6290 C.ar    1  UNL1        0.0331
     10 C          -4.1228  -19.9071   20.2715 C.ar    1  UNL1       -0.0191
     11 C          -3.2968  -19.4697   19.0983 C.ar    1  UNL1       -0.0036
     12 C          -2.2141  -18.4479   19.2827 C.ar    1  UNL1        0.0094
     13 C          -1.9575  -17.8637   20.6402 C.ar    1  UNL1        0.0684
     14 BR         -0.8748  -16.8421   20.8247 Br      1  UNL1       -0.0458
     15 O          -2.5270  -17.7171   23.1709 O.3     1  UNL1       -0.4723
     16 C          -3.6747  -17.4301   24.0931 C.3     1  UNL1        0.2373
     17 C          -4.7667  -16.4959   23.6632 C.3     1  UNL1        0.1894
     18 C          -5.3773  -15.2287   25.8475 C.3     1  UNL1        0.1743
     19 O          -4.9849  -15.2077   24.3999 O.3     1  UNL1       -0.3471
     20 C         -10.9027  -19.1736   19.4077 C.3     1  UNL1        0.0768
     21 C         -11.7028  -18.7446   20.6017 C.3     1  UNL1        0.0437
     22 C         -11.0505  -17.9536   21.6967 C.ar    1  UNL1       -0.0208
     23 C         -10.7068  -16.5102   21.4768 C.ar    1  UNL1       -0.0011
     24 C         -10.0546  -15.7193   22.5718 C.ar    1  UNL1        0.0363
     25 C          -9.7462  -16.3718   23.8868 C.ar    1  UNL1        0.1367
     26 C         -10.0899  -17.8152   24.1067 C.ar    1  UNL1        0.0380
     27 C         -10.7421  -18.6061   23.0117 C.ar    1  UNL1       -0.0032
     28 C          -9.7815  -18.4677   25.4217 C.3     1  UNL1        0.1393
     29 O         -10.1252  -19.9111   25.6416 O.3     1  UNL1       -0.3798
     30 C          -9.1293  -17.6768   26.5167 C.3     1  UNL1        0.0812
     31 C          -8.7855  -16.2333   26.2968 C.3     1  UNL1        0.2083
     32 O          -9.0939  -15.5808   24.9818 O.3     1  UNL1       -0.4756
     33 H          -9.8612  -20.1735   26.5374 H       1  UNL1        0.2108
@<TRIPOS>BOND
     1    18    19    1
     2    19    17    1
     3    17    16    1
     4    16    15    1
     5    15     8    1
     6     8     9   ar
     7     9    10   ar
     8    10     7    1
     9     7     1    1
    10     1     2    1
    11     2     3    1
    12     3     4    1
    13     4    20    1
    14    20    21    1
    15    21    22    1
    16    22    23   ar
    17    23    24   ar
    18    24    25   ar
    19    25    26   ar
    20    26    27   ar
    21    26    28    1
    22    28    29    1
    23    28    30    1
    24    30    31    1
    25    31    32    1
    26     4     5    1
    27     5     6    1
    28    10    11   ar
    29    11    12   ar
    30    12    13   ar
    31    13    14    1
    32    13     8   ar
    33     6     1    1
    34    27    22   ar
    35    32    25    1
    36    29    33    1
@<TRIPOS>MOLECULE
*****
 33 36 0 0 0
SMALL
GASTEIGER

@<TRIPOS>ATOM
      1 C           6.8430   -3.9301   23.4047 C.3     1  UNL1        0.0071
      2 C           7.7293   -4.0573   22.2014 C.3     1  UNL1        0.0177
      3 C           7.1306   -4.0614   20.8261 C.3     1  UNL1        0.0721
      4 N           5.6456   -3.9381   20.6541 N.3     1  UNL1       -0.2724
      5 C           4.7593   -3.8109   21.8575 C.3     1  UNL1        0.0721
      6 C           5.3580   -3.8069   23.2328 C.3     1  UNL1        0.0177
      7 C           7.4416   -3.9261   24.7802 C.3     1  UNL1        0.0265
      8 C           7.8866   -6.5635   27.7120 C.ar    1  UNL1        0.1445
      9 C           7.6449   -5.2681   26.9955 C.ar    1  UNL1        0.0331
     10 C           7.6834   -5.2215   25.4967 C.ar    1  UNL1       -0.0191
     11 C           7.9636   -6.4703   24.7144 C.ar    1  UNL1       -0.0036
     12 C           8.2053   -7.7658   25.4309 C.ar    1  UNL1        0.0094
     13 C           8.1668   -7.8124   26.9297 C.ar    1  UNL1        0.0684
     14 BR          8.4086   -9.1078   27.6463 Br      1  UNL1       -0.0458
     15 O           7.8481   -6.6101   29.2108 O.3     1  UNL1       -0.4723
     16 C           6.9323   -5.6934   29.9664 C.3     1  UNL1        0.2373
     17 C           7.0754   -5.5482   31.4524 C.3     1  UNL1        0.1894
     18 C           7.5304   -3.1060   32.2131 C.3     1  UNL1        0.1743
     19 O           6.6156   -4.2919   32.1310 O.3     1  UNL1       -0.3471
     20 C           5.0470   -3.9422   19.2787 C.3     1  UNL1        0.0768
     21 C           3.6469   -3.4465   19.0687 C.3     1  UNL1        0.0437
     22 C           3.3921   -1.9822   18.8665 C.ar    1  UNL1       -0.0208
     23 C           4.3638   -1.1534   18.0800 C.ar    1  UNL1       -0.0011
     24 C           4.1089    0.3109   17.8779 C.ar    1  UNL1        0.0363
     25 C           2.8823    0.9464   18.4623 C.ar    1  UNL1        0.1367
     26 C           1.9105    0.1175   19.2489 C.ar    1  UNL1        0.0380
     27 C           2.1654   -1.3467   19.4510 C.ar    1  UNL1       -0.0032
     28 C           0.6839    0.7530   19.8333 C.3     1  UNL1        0.1393
     29 O          -0.2878   -0.0758   20.6199 O.3     1  UNL1       -0.3798
     30 C           0.4290    2.2172   19.6312 C.3     1  UNL1        0.0812
     31 C           1.4008    3.0462   18.8446 C.3     1  UNL1        0.2083
     32 O           2.6274    2.4107   18.2602 O.3     1  UNL1       -0.4756
     33 H          -1.0188    0.4846   20.9240 H       1  UNL1        0.2108
@<TRIPOS>BOND
     1    18    19    1
     2    19    17    1
     3    17    16    1
     4    16    15    1
     5    15     8    1
     6     8     9   ar
     7     9    10   ar
     8    10     7    1
     9     7     1    1
    10     1     2    1
    11     2     3    1
    12     3     4    1
    13     4    20    1
    14    20    21    1
    15    21    22    1
    16    22    23   ar
    17    23    24   ar
    18    24    25   ar
    19    25    26   ar
    20    26    27   ar
    21    26    28    1
    22    28    29    1
    23    28    30    1
    24    30    31    1
    25    31    32    1
    26     4     5    1
    27     5     6    1
    28    10    11   ar
    29    11    12   ar
    30    12    13   ar
    31    13    14    1
    32    13     8   ar
    33     6     1    1
    34    27    22   ar
    35    32    25    1
    36    29    33    1
@<TRIPOS>MOLECULE
*****
 33 36 0 0 0
SMALL
GASTEIGER

@<TRIPOS>ATOM
      1 C         -12.7885   -1.5808   18.1298 C.3     1  UNL1        0.0071
      2 C         -13.6109   -2.4805   19.0039 C.3     1  UNL1        0.0177
      3 C         -14.8441   -1.9520   19.6746 C.3     1  UNL1        0.0721
      4 N         -15.2549   -0.5238   19.4712 N.3     1  UNL1       -0.2724
      5 C         -14.4325    0.3760   18.5971 C.3     1  UNL1        0.0721
      6 C         -13.1993   -0.1526   17.9264 C.3     1  UNL1        0.0177
      7 C         -11.5552   -2.1093   17.4591 C.3     1  UNL1        0.0265
      8 C         -11.1428   -6.0515   17.2627 C.ar    1  UNL1        0.1445
      9 C         -11.6187   -4.6598   16.9684 C.ar    1  UNL1        0.0331
     10 C         -11.0793   -3.5010   17.7534 C.ar    1  UNL1       -0.0191
     11 C         -10.0640   -3.7339   18.8327 C.ar    1  UNL1       -0.0036
     12 C          -9.5881   -5.1256   19.1270 C.ar    1  UNL1        0.0094
     13 C         -10.1274   -6.2844   18.3420 C.ar    1  UNL1        0.0684
     14 BR         -9.6515   -7.6761   18.6363 Br      1  UNL1       -0.0458
     15 O         -11.6821   -7.2103   16.4777 O.3     1  UNL1       -0.4723
     16 C         -13.0252   -7.7858   16.8168 C.3     1  UNL1        0.2373
     17 C         -13.4649   -7.8707   18.2484 C.3     1  UNL1        0.1894
     18 C         -15.6892   -6.9103   19.1865 C.3     1  UNL1        0.1743
     19 O         -14.2340   -6.7401   18.8651 O.3     1  UNL1       -0.3471
     20 C         -16.4881    0.0047   20.1419 C.3     1  UNL1        0.0768
     21 C         -16.8522    1.4537   20.0081 C.3     1  UNL1        0.0437
     22 C         -16.6126    2.3958   21.1505 C.ar    1  UNL1       -0.0208
     23 C         -17.3318    2.1954   22.4515 C.ar    1  UNL1       -0.0011
     24 C         -17.0921    3.1375   23.5938 C.ar    1  UNL1        0.0363
     25 C         -16.1333    4.2801   23.4352 C.ar    1  UNL1        0.1367
     26 C         -15.4142    4.4806   22.1342 C.ar    1  UNL1        0.0380
     27 C         -15.6538    3.5384   20.9919 C.ar    1  UNL1       -0.0032
     28 C         -14.4554    5.6232   21.9756 C.3     1  UNL1        0.1393
     29 O         -13.7362    5.8236   20.6746 O.3     1  UNL1       -0.3798
     30 C         -14.2157    6.5653   23.1179 C.3     1  UNL1        0.0812
     31 C         -14.9349    6.3648   24.4190 C.3     1  UNL1        0.2083
     32 O         -15.8937    5.2222   24.5776 O.3     1  UNL1       -0.4756
     33 H         -13.1593    6.6007   20.7405 H       1  UNL1        0.2108
@<TRIPOS>BOND
     1    18    19    1
     2    19    17    1
     3    17    16    1
     4    16    15    1
     5    15     8    1
     6     8     9   ar
     7     9    10   ar
     8    10     7    1
     9     7     1    1
    10     1     2    1
    11     2     3    1
    12     3     4    1
    13     4    20    1
    14    20    21    1
    15    21    22    1
    16    22    23   ar
    17    23    24   ar
    18    24    25   ar
    19    25    26   ar
    20    26    27   ar
    21    26    28    1
    22    28    29    1
    23    28    30    1
    24    30    31    1
    25    31    32    1
    26     4     5    1
    27     5     6    1
    28    10    11   ar
    29    11    12   ar
    30    12    13   ar
    31    13    14    1
    32    13     8   ar
    33     6     1    1
    34    27    22   ar
    35    32    25    1
    36    29    33    1
@<TRIPOS>MOLECULE
*****
 33 36 0 0 0
SMALL
GASTEIGER

@<TRIPOS>ATOM
      1 C         -12.5127   -2.0856   18.9182 C.3     1  UNL1        0.0071
      2 C         -13.2770   -2.8332   19.9702 C.3     1  UNL1        0.0177
      3 C         -14.6620   -2.3953   20.3444 C.3     1  UNL1        0.0721
      4 N         -15.2827   -1.2099   19.6666 N.3     1  UNL1       -0.2724
      5 C         -14.5183   -0.4622   18.6146 C.3     1  UNL1        0.0721
      6 C         -13.1333   -0.9001   18.2404 C.3     1  UNL1        0.0177
      7 C         -11.1276   -2.5234   18.5440 C.3     1  UNL1        0.0265
      8 C         -11.2534   -6.2694   17.2396 C.ar    1  UNL1        0.1445
      9 C         -11.5638   -4.8095   17.3893 C.ar    1  UNL1        0.0331
     10 C         -10.8173   -3.9832   18.3943 C.ar    1  UNL1       -0.0191
     11 C          -9.7605   -4.6169   19.2496 C.ar    1  UNL1       -0.0036
     12 C          -9.4501   -6.0768   19.1000 C.ar    1  UNL1        0.0094
     13 C         -10.1966   -6.9030   18.0949 C.ar    1  UNL1        0.0684
     14 BR         -9.8862   -8.3629   17.9452 Br      1  UNL1       -0.0458
     15 O         -11.9999   -7.0956   16.2345 O.3     1  UNL1       -0.4723
     16 C         -13.4656   -7.3561   16.4179 C.3     1  UNL1        0.2373
     17 C         -13.9437   -8.1580   17.5920 C.3     1  UNL1        0.1894
     18 C         -15.8617   -8.0643   19.3420 C.3     1  UNL1        0.1743
     19 O         -14.6203   -7.4732   18.7423 O.3     1  UNL1       -0.3471
     20 C         -16.6677   -0.7720   20.0408 C.3     1  UNL1        0.0768
     21 C         -17.1668    0.5785   19.6201 C.3     1  UNL1        0.0437
     22 C         -16.7880    1.7971   20.4086 C.ar    1  UNL1       -0.0208
     23 C         -15.8283    2.7952   19.8318 C.ar    1  UNL1       -0.0011
     24 C         -15.4496    4.0137   20.6202 C.ar    1  UNL1        0.0363
     25 C         -16.0305    4.2341   21.9855 C.ar    1  UNL1        0.1367
     26 C         -16.9902    3.2360   22.5623 C.ar    1  UNL1        0.0380
     27 C         -17.3689    2.0175   21.7738 C.ar    1  UNL1       -0.0032
     28 C         -17.5711    3.4564   23.9276 C.3     1  UNL1        0.1393
     29 O         -18.5308    2.4583   24.5044 O.3     1  UNL1       -0.3798
     30 C         -17.1924    4.6749   24.7160 C.3     1  UNL1        0.0812
     31 C         -16.2326    5.6731   24.1392 C.3     1  UNL1        0.2083
     32 O         -15.6517    5.4527   22.7739 O.3     1  UNL1       -0.4756
     33 H         -18.8088    2.7497   25.3868 H       1  UNL1        0.2108
@<TRIPOS>BOND
     1    18    19    1
     2    19    17    1
     3    17    16    1
     4    16    15    1
     5    15     8    1
     6     8     9   ar
     7     9    10   ar
     8    10     7    1
     9     7     1    1
    10     1     2    1
    11     2     3    1
    12     3     4    1
    13     4    20    1
    14    20    21    1
    15    21    22    1
    16    22    23   ar
    17    23    24   ar
    18    24    25   ar
    19    25    26   ar
    20    26    27   ar
    21    26    28    1
    22    28    29    1
    23    28    30    1
    24    30    31    1
    25    31    32    1
    26     4     5    1
    27     5     6    1
    28    10    11   ar
    29    11    12   ar
    30    12    13   ar
    31    13    14    1
    32    13     8   ar
    33     6     1    1
    34    27    22   ar
    35    32    25    1
    36    29    33    1
@<TRIPOS>MOLECULE
*****
 33 36 0 0 0
SMALL
GASTEIGER

@<TRIPOS>ATOM
      1 C           2.7693    1.3155   23.5616 C.3     1  UNL1        0.0071
      2 C           1.3154    1.0948   23.2661 C.3     1  UNL1        0.0177
      3 C           0.2955    1.2612   24.3533 C.3     1  UNL1        0.0721
      4 N           0.7295    1.6483   25.7360 N.3     1  UNL1       -0.2724
      5 C           2.1834    1.8690   26.0315 C.3     1  UNL1        0.0721
      6 C           3.2033    1.7026   24.9443 C.3     1  UNL1        0.0177
      7 C           3.7893    1.1491   22.4744 C.3     1  UNL1        0.0265
      8 C           3.7123   -1.3251   19.3725 C.ar    1  UNL1        0.1445
      9 C           3.6741   -0.0603   20.1779 C.ar    1  UNL1        0.0331
     10 C           3.8275   -0.1157   21.6690 C.ar    1  UNL1       -0.0191
     11 C           4.0190   -1.4359   22.3547 C.ar    1  UNL1       -0.0036
     12 C           4.0572   -2.7008   21.5493 C.ar    1  UNL1        0.0094
     13 C           3.9038   -2.6454   20.0582 C.ar    1  UNL1        0.0684
     14 BR          3.9420   -3.9103   19.2528 Br      1  UNL1       -0.0458
     15 O           3.5589   -1.2697   17.8814 O.3     1  UNL1       -0.4723
     16 C           4.4978   -0.4355   17.0614 C.3     1  UNL1        0.2373
     17 C           5.9587   -0.3987   17.3995 C.3     1  UNL1        0.1894
     18 C           7.3434   -2.2403   18.5999 C.3     1  UNL1        0.1743
     19 O           6.7740   -1.6563   17.3410 O.3     1  UNL1       -0.3471
     20 C          -0.2906    1.8147   26.8232 C.3     1  UNL1        0.0768
     21 C          -0.4559    0.7492   27.8659 C.3     1  UNL1        0.0437
     22 C           0.5127    0.6605   29.0079 C.ar    1  UNL1       -0.0208
     23 C           1.6079   -0.3642   28.9845 C.ar    1  UNL1       -0.0011
     24 C           2.5764   -0.4528   30.1265 C.ar    1  UNL1        0.0363
     25 C           2.4497    0.4832   31.2917 C.ar    1  UNL1        0.1367
     26 C           1.3545    1.5078   31.3151 C.ar    1  UNL1        0.0380
     27 C           0.3860    1.5965   30.1732 C.ar    1  UNL1       -0.0032
     28 C           1.2279    2.4438   32.4804 C.3     1  UNL1        0.1393
     29 O           0.1327    3.4685   32.5037 O.3     1  UNL1       -0.3798
     30 C           2.1964    2.3552   33.6223 C.3     1  UNL1        0.0812
     31 C           3.2917    1.3305   33.5990 C.3     1  UNL1        0.2083
     32 O           3.4183    0.3945   32.4337 O.3     1  UNL1       -0.4756
     33 H           0.1930    3.9876   33.3209 H       1  UNL1        0.2108
@<TRIPOS>BOND
     1    18    19    1
     2    19    17    1
     3    17    16    1
     4    16    15    1
     5    15     8    1
     6     8     9   ar
     7     9    10   ar
     8    10     7    1
     9     7     1    1
    10     1     2    1
    11     2     3    1
    12     3     4    1
    13     4    20    1
    14    20    21    1
    15    21    22    1
    16    22    23   ar
    17    23    24   ar
    18    24    25   ar
    19    25    26   ar
    20    26    27   ar
    21    26    28    1
    22    28    29    1
    23    28    30    1
    24    30    31    1
    25    31    32    1
    26     4     5    1
    27     5     6    1
    28    10    11   ar
    29    11    12   ar
    30    12    13   ar
    31    13    14    1
    32    13     8   ar
    33     6     1    1
    34    27    22   ar
    35    32    25    1
    36    29    33    1
@<TRIPOS>MOLECULE
*****
 33 36 0 0 0
SMALL
GASTEIGER

@<TRIPOS>ATOM
      1 C           7.1439   -3.9140   22.8475 C.3     1  UNL1        0.0071
      2 C           5.7471   -3.8343   23.3884 C.3     1  UNL1        0.0177
      3 C           4.5914   -3.6318   22.4539 C.3     1  UNL1        0.0721
      4 N           4.8325   -3.5089   20.9785 N.3     1  UNL1       -0.2724
      5 C           6.2292   -3.5886   20.4376 C.3     1  UNL1        0.0721
      6 C           7.3849   -3.7912   21.3721 C.3     1  UNL1        0.0177
      7 C           8.2997   -4.1166   23.7819 C.3     1  UNL1        0.0265
      8 C           8.2987   -6.2453   27.1313 C.ar    1  UNL1        0.1445
      9 C           8.2855   -5.0709   26.1984 C.ar    1  UNL1        0.0331
     10 C           8.3129   -5.2911   24.7149 C.ar    1  UNL1       -0.0191
     11 C           8.3537   -6.6857   24.1643 C.ar    1  UNL1       -0.0036
     12 C           8.3669   -7.8603   25.0972 C.ar    1  UNL1        0.0094
     13 C           8.3395   -7.6401   26.5807 C.ar    1  UNL1        0.0684
     14 BR          8.3527   -8.8146   27.5136 Br      1  UNL1       -0.0458
     15 O           8.2712   -6.0252   28.6148 O.3     1  UNL1       -0.4723
     16 C           6.9674   -5.7705   29.3112 C.3     1  UNL1        0.2373
     17 C           6.9553   -5.1545   30.6788 C.3     1  UNL1        0.1894
     18 C           7.0061   -2.6760   29.9014 C.3     1  UNL1        0.1743
     19 O           6.5246   -3.7286   30.8554 O.3     1  UNL1       -0.3471
     20 C           3.6766   -3.3064   20.0441 C.3     1  UNL1        0.0768
     21 C           3.3907   -1.9423   19.4895 C.3     1  UNL1        0.0437
     22 C           2.5318   -0.9842   20.2605 C.ar    1  UNL1       -0.0208
     23 C           1.3802   -0.2995   19.5860 C.ar    1  UNL1       -0.0011
     24 C           0.5214    0.6586   20.3569 C.ar    1  UNL1        0.0363
     25 C           0.8142    0.9321   21.8024 C.ar    1  UNL1        0.1367
     26 C           1.9658    0.2474   22.4769 C.ar    1  UNL1        0.0380
     27 C           2.8246   -0.7107   21.7060 C.ar    1  UNL1       -0.0032
     28 C           2.2586    0.5209   23.9224 C.3     1  UNL1        0.1393
     29 O           3.4103   -0.1637   24.5970 O.3     1  UNL1       -0.3798
     30 C           1.3998    1.4790   24.6934 C.3     1  UNL1        0.0812
     31 C           0.2481    2.1637   24.0189 C.3     1  UNL1        0.2083
     32 O          -0.0447    1.8902   22.5734 O.3     1  UNL1       -0.4756
     33 H           3.4593    0.1223   25.5226 H       1  UNL1        0.2108
@<TRIPOS>BOND
     1    18    19    1
     2    19    17    1
     3    17    16    1
     4    16    15    1
     5    15     8    1
     6     8     9   ar
     7     9    10   ar
     8    10     7    1
     9     7     1    1
    10     1     2    1
    11     2     3    1
    12     3     4    1
    13     4    20    1
    14    20    21    1
    15    21    22    1
    16    22    23   ar
    17    23    24   ar
    18    24    25   ar
    19    25    26   ar
    20    26    27   ar
    21    26    28    1
    22    28    29    1
    23    28    30    1
    24    30    31    1
    25    31    32    1
    26     4     5    1
    27     5     6    1
    28    10    11   ar
    29    11    12   ar
    30    12    13   ar
    31    13    14    1
    32    13     8   ar
    33     6     1    1
    34    27    22   ar
    35    32    25    1
    36    29    33    1
