@<TRIPOS>MOLECULE
*****
 19 21 0 0 0
SMALL
GASTEIGER

@<TRIPOS>ATOM
      1 C         -12.5270  -17.9727   22.9040 C.2     1  UNL1        0.1223
      2 C         -12.4458  -17.4895   21.4863 C.2     1  UNL1        0.0343
      3 C         -11.1918  -17.7037   20.6915 C.2     1  UNL1        0.0232
      4 C         -10.0190  -18.4012   21.3145 C.2     1  UNL1        0.0975
      5 N          -8.6613  -18.7525   20.7822 N.2     1  UNL1       -0.2200
      6 C          -7.9035  -19.4527   21.8709 C.2     1  UNL1        0.1901
      7 N          -8.7927  -19.5343   23.0761 N.2     1  UNL1       -0.2236
      8 C         -10.1002  -18.8843   22.7322 C.2     1  UNL1        0.0863
      9 C         -11.3542  -18.6701   23.5269 C.3     1  UNL1        0.1112
     10 C         -13.9665  -18.4608   25.0109 C.3     1  UNL1        0.2520
     11 O         -13.7810  -17.7584   23.6987 O.2     1  UNL1       -0.4753
     12 S          -6.5023  -19.9791   21.7717 S.3     1  UNL1       -0.0709
     13 C          -5.7245  -19.8065   20.5008 C.3     1  UNL1        0.0913
     14 C          -4.3020  -19.3335   20.5504 C.ar    1  UNL1       -0.0109
     15 C          -3.6456  -18.7991   19.3120 C.ar    1  UNL1       -0.0034
     16 C          -2.2231  -18.3260   19.3617 C.ar    1  UNL1       -0.0003
     17 C          -1.4568  -18.3874   20.6498 C.ar    1  UNL1       -0.0000
     18 C          -2.1131  -18.9218   21.8882 C.ar    1  UNL1       -0.0003
     19 C          -3.5357  -19.3948   21.8385 C.ar    1  UNL1       -0.0034
@<TRIPOS>BOND
     1    10    11    1
     2    11     1    1
     3     1     2    2
     4     2     3    1
     5     3     4    2
     6     4     5    1
     7     5     6    2
     8     6    12    1
     9    12    13    1
    10    13    14    1
    11    14    15   ar
    12    15    16   ar
    13    16    17   ar
    14    17    18   ar
    15    18    19   ar
    16     6     7    1
    17     7     8    2
    18     8     9    1
    19     9     1    1
    20     8     4    1
    21    19    14   ar
@<TRIPOS>MOLECULE
*****
 19 21 0 0 0
SMALL
GASTEIGER

@<TRIPOS>ATOM
      1 C          -8.7833  -16.0029   24.5397 C.2     1  UNL1        0.1223
      2 C         -10.0642  -16.2207   23.7900 C.2     1  UNL1        0.0343
      3 C         -10.0703  -17.0515   22.5412 C.2     1  UNL1        0.0232
      4 C          -8.7956  -17.6646   22.0420 C.2     1  UNL1        0.0975
      5 N          -8.4949  -18.5248   20.8505 N.2     1  UNL1       -0.2200
      6 C          -7.0281  -18.8387   20.8638 C.2     1  UNL1        0.1901
      7 N          -6.4224  -18.1725   22.0635 N.2     1  UNL1       -0.2236
      8 C          -7.5148  -17.4469   22.7916 C.2     1  UNL1        0.0863
      9 C          -7.5087  -16.6161   24.0405 C.3     1  UNL1        0.1112
     10 C          -7.8580  -15.5255   26.9200 C.3     1  UNL1        0.2520
     11 O          -8.7772  -15.1721   25.7886 O.2     1  UNL1       -0.4753
     12 S          -6.2957  -19.6724   19.8545 S.3     1  UNL1       -0.0709
     13 C          -5.0375  -20.3895   20.2452 C.3     1  UNL1        0.0913
     14 C          -3.7530  -19.6278   20.3860 C.ar    1  UNL1       -0.0109
     15 C          -3.0774  -19.5371   21.7221 C.ar    1  UNL1       -0.0034
     16 C          -1.7929  -18.7755   21.8629 C.ar    1  UNL1       -0.0003
     17 C          -1.1839  -18.1045   20.6675 C.ar    1  UNL1       -0.0000
     18 C          -1.8595  -18.1952   19.3313 C.ar    1  UNL1       -0.0003
     19 C          -3.1441  -18.9569   19.1906 C.ar    1  UNL1       -0.0034
@<TRIPOS>BOND
     1    10    11    1
     2    11     1    1
     3     1     2    2
     4     2     3    1
     5     3     4    2
     6     4     5    1
     7     5     6    2
     8     6    12    1
     9    12    13    1
    10    13    14    1
    11    14    15   ar
    12    15    16   ar
    13    16    17   ar
    14    17    18   ar
    15    18    19   ar
    16     6     7    1
    17     7     8    2
    18     8     9    1
    19     9     1    1
    20     8     4    1
    21    19    14   ar
@<TRIPOS>MOLECULE
*****
 19 21 0 0 0
SMALL
GASTEIGER

@<TRIPOS>ATOM
      1 C          -9.4002  -17.0800   22.8859 C.2     1  UNL1        0.1223
      2 C         -10.2846  -17.7290   21.8629 C.2     1  UNL1        0.0343
      3 C          -9.6990  -18.6762   20.8579 C.2     1  UNL1        0.0232
      4 C          -8.2291  -18.9743   20.8759 C.2     1  UNL1        0.0975
      5 N          -7.3737  -19.8586   20.0178 N.2     1  UNL1       -0.2200
      6 C          -5.9606  -19.7562   20.5106 C.2     1  UNL1        0.1901
      7 N          -5.9427  -18.8086   21.6731 N.2     1  UNL1       -0.2236
      8 C          -7.3447  -18.3253   21.8989 C.2     1  UNL1        0.0863
      9 C          -7.9303  -17.3782   22.9040 C.3     1  UNL1        0.1112
     10 C          -9.1063  -15.5058   24.9318 C.3     1  UNL1        0.2520
     11 O          -9.9857  -16.1329   23.8910 O.2     1  UNL1       -0.4753
     12 S          -4.7739  -20.4752   19.9407 S.3     1  UNL1       -0.0709
     13 C          -3.4467  -20.4000   20.6356 C.3     1  UNL1        0.0913
     14 C          -2.7304  -19.0866   20.7444 C.ar    1  UNL1       -0.0109
     15 C          -1.9565  -18.5552   19.5746 C.ar    1  UNL1       -0.0034
     16 C          -1.2402  -17.2418   19.6834 C.ar    1  UNL1       -0.0003
     17 C          -1.2979  -16.4597   20.9622 C.ar    1  UNL1       -0.0000
     18 C          -2.0718  -16.9912   22.1321 C.ar    1  UNL1       -0.0003
     19 C          -2.7881  -18.3047   22.0232 C.ar    1  UNL1       -0.0034
@<TRIPOS>BOND
     1    10    11    1
     2    11     1    1
     3     1     2    2
     4     2     3    1
     5     3     4    2
     6     4     5    1
     7     5     6    2
     8     6    12    1
     9    12    13    1
    10    13    14    1
    11    14    15   ar
    12    15    16   ar
    13    16    17   ar
    14    17    18   ar
    15    18    19   ar
    16     6     7    1
    17     7     8    2
    18     8     9    1
    19     9     1    1
    20     8     4    1
    21    19    14   ar
@<TRIPOS>MOLECULE
*****
 19 21 0 0 0
SMALL
GASTEIGER

@<TRIPOS>ATOM
      1 C         -15.9181   -8.5739   18.2673 C.2     1  UNL1        0.1223
      2 C         -16.3669   -7.4056   19.0941 C.2     1  UNL1        0.0343
      3 C         -15.3722   -6.3739   19.5369 C.2     1  UNL1        0.0232
      4 C         -13.9286   -6.5104   19.1528 C.2     1  UNL1        0.0975
      5 N         -12.7285   -5.6579   19.4405 N.2     1  UNL1       -0.2200
      6 C         -11.5379   -6.2993   18.7914 C.2     1  UNL1        0.1901
      7 N         -12.0023   -7.5482   18.1026 N.2     1  UNL1       -0.2236
      8 C         -13.4799   -7.6787   18.3259 C.2     1  UNL1        0.0863
      9 C         -14.4746   -8.7104   17.8832 C.3     1  UNL1        0.1112
     10 C         -17.0381  -10.8977   18.5759 C.3     1  UNL1        0.2520
     11 O         -16.9129   -9.6056   17.8245 O.2     1  UNL1       -0.4753
     12 S         -10.1301   -5.7825   18.8253 S.3     1  UNL1       -0.0709
     13 C          -9.6025   -4.9679   17.6816 C.3     1  UNL1        0.0913
     14 C         -10.0632   -3.5529   17.4932 C.ar    1  UNL1       -0.0109
     15 C         -10.7617   -2.8365   18.6107 C.ar    1  UNL1       -0.0034
     16 C         -11.2223   -1.4215   18.4223 C.ar    1  UNL1       -0.0003
     17 C         -10.9845   -0.7229   17.1163 C.ar    1  UNL1       -0.0000
     18 C         -10.2860   -1.4393   15.9988 C.ar    1  UNL1       -0.0003
     19 C          -9.8253   -2.8544   16.1873 C.ar    1  UNL1       -0.0034
@<TRIPOS>BOND
     1    10    11    1
     2    11     1    1
     3     1     2    2
     4     2     3    1
     5     3     4    2
     6     4     5    1
     7     5     6    2
     8     6    12    1
     9    12    13    1
    10    13    14    1
    11    14    15   ar
    12    15    16   ar
    13    16    17   ar
    14    17    18   ar
    15    18    19   ar
    16     6     7    1
    17     7     8    2
    18     8     9    1
    19     9     1    1
    20     8     4    1
    21    19    14   ar
@<TRIPOS>MOLECULE
*****
 19 21 0 0 0
SMALL
GASTEIGER

@<TRIPOS>ATOM
      1 C         -16.8286   -6.9275   18.8913 C.2     1  UNL1        0.1223
      2 C         -16.7044   -7.9404   17.7920 C.2     1  UNL1        0.0343
      3 C         -15.3480   -8.3542   17.3031 C.2     1  UNL1        0.0232
      4 C         -14.1158   -7.7550   17.9136 C.2     1  UNL1        0.0975
      5 N         -12.6561   -7.9662   17.6407 N.2     1  UNL1       -0.2200
      6 C         -11.8781   -7.0838   18.5713 C.2     1  UNL1        0.1901
      7 N         -12.8570   -6.3272   19.4194 N.2     1  UNL1       -0.2236
      8 C         -14.2401   -6.7421   19.0129 C.2     1  UNL1        0.0863
      9 C         -15.5965   -6.3283   19.5017 C.3     1  UNL1        0.1112
     10 C         -19.1835   -7.5546   19.7920 C.3     1  UNL1        0.2520
     11 O         -18.1850   -6.5137   19.3802 O.2     1  UNL1       -0.4753
     12 S         -10.3835   -6.9767   18.6415 S.3     1  UNL1       -0.0709
     13 C          -9.7421   -5.6784   19.0327 C.3     1  UNL1        0.0913
     14 C          -9.8917   -4.4729   18.1528 C.ar    1  UNL1       -0.0109
     15 C         -10.8072   -3.3564   18.5595 C.ar    1  UNL1       -0.0034
     16 C         -10.9568   -2.1509   17.6796 C.ar    1  UNL1       -0.0003
     17 C         -10.1909   -2.0618   16.3929 C.ar    1  UNL1       -0.0000
     18 C          -9.2755   -3.1783   15.9861 C.ar    1  UNL1       -0.0003
     19 C          -9.1259   -4.3839   16.8661 C.ar    1  UNL1       -0.0034
@<TRIPOS>BOND
     1    10    11    1
     2    11     1    1
     3     1     2    2
     4     2     3    1
     5     3     4    2
     6     4     5    1
     7     5     6    2
     8     6    12    1
     9    12    13    1
    10    13    14    1
    11    14    15   ar
    12    15    16   ar
    13    16    17   ar
    14    17    18   ar
    15    18    19   ar
    16     6     7    1
    17     7     8    2
    18     8     9    1
    19     9     1    1
    20     8     4    1
    21    19    14   ar
@<TRIPOS>MOLECULE
*****
 19 21 0 0 0
SMALL
GASTEIGER

@<TRIPOS>ATOM
      1 C         -17.9311   -9.1438   19.5650 C.2     1  UNL1        0.1223
      2 C         -17.3378  -10.2465   18.7393 C.2     1  UNL1        0.0343
      3 C         -15.9611  -10.0946   18.1633 C.2     1  UNL1        0.0232
      4 C         -15.1779   -8.8400   18.4129 C.2     1  UNL1        0.0975
      5 N         -13.8086   -8.4084   17.9785 N.2     1  UNL1       -0.2200
      6 C         -13.5557   -7.0389   18.5358 C.2     1  UNL1        0.1901
      7 N         -14.7687   -6.6240   19.3146 N.2     1  UNL1       -0.2236
      8 C         -15.7713   -7.7372   19.2386 C.2     1  UNL1        0.0863
      9 C         -17.1479   -7.8891   19.8147 C.3     1  UNL1        0.1112
     10 C         -19.9460   -8.1510   20.8706 C.3     1  UNL1        0.2520
     11 O         -19.3078   -9.2957   20.1411 O.2     1  UNL1       -0.4753
     12 S         -12.3086   -6.2268   18.3473 S.3     1  UNL1       -0.0709
     13 C         -11.9219   -5.1984   19.3685 C.3     1  UNL1        0.0913
     14 C         -12.1165   -3.7402   19.0754 C.ar    1  UNL1       -0.0109
     15 C         -13.4643   -3.1102   19.2666 C.ar    1  UNL1       -0.0034
     16 C         -13.6590   -1.6521   18.9735 C.ar    1  UNL1       -0.0003
     17 C         -12.5058   -0.8239   18.4894 C.ar    1  UNL1       -0.0000
     18 C         -11.1580   -1.4539   18.2982 C.ar    1  UNL1       -0.0003
     19 C         -10.9634   -2.9121   18.5913 C.ar    1  UNL1       -0.0034
@<TRIPOS>BOND
     1    10    11    1
     2    11     1    1
     3     1     2    2
     4     2     3    1
     5     3     4    2
     6     4     5    1
     7     5     6    2
     8     6    12    1
     9    12    13    1
    10    13    14    1
    11    14    15   ar
    12    15    16   ar
    13    16    17   ar
    14    17    18   ar
    15    18    19   ar
    16     6     7    1
    17     7     8    2
    18     8     9    1
    19     9     1    1
    20     8     4    1
    21    19    14   ar
@<TRIPOS>MOLECULE
*****
 19 21 0 0 0
SMALL
GASTEIGER

@<TRIPOS>ATOM
      1 C         -17.8716   -8.7880   19.4082 C.2     1  UNL1        0.1223
      2 C         -16.6197   -9.5219   19.0286 C.2     1  UNL1        0.0343
      3 C         -15.3362   -8.7685   18.8416 C.2     1  UNL1        0.0232
      4 C         -15.3046   -7.2812   19.0341 C.2     1  UNL1        0.0975
      5 N         -14.1956   -6.2777   18.9199 N.2     1  UNL1       -0.2200
      6 C         -14.7622   -4.9236   19.2288 C.2     1  UNL1        0.1901
      7 N         -16.2213   -5.0902   19.5340 N.2     1  UNL1       -0.2236
      8 C         -16.5565   -6.5474   19.4137 C.2     1  UNL1        0.0863
      9 C         -17.8400   -7.3008   19.6007 C.3     1  UNL1        0.1112
     10 C         -20.2113   -9.0067   20.5163 C.3     1  UNL1        0.2520
     11 O         -19.1551   -9.5414   19.5952 O.2     1  UNL1       -0.4753
     12 S         -14.0029   -3.6299   19.2320 S.3     1  UNL1       -0.0709
     13 C         -12.5892   -3.5913   19.7321 C.3     1  UNL1        0.0913
     14 C         -11.4581   -3.9409   18.8111 C.ar    1  UNL1       -0.0109
     15 C         -10.7253   -5.2386   18.9822 C.ar    1  UNL1       -0.0034
     16 C          -9.5942   -5.5882   18.0612 C.ar    1  UNL1       -0.0003
     17 C          -9.1958   -4.6403   16.9691 C.ar    1  UNL1       -0.0000
     18 C          -9.9285   -3.3426   16.7980 C.ar    1  UNL1       -0.0003
     19 C         -11.0597   -2.9930   17.7190 C.ar    1  UNL1       -0.0034
@<TRIPOS>BOND
     1    10    11    1
     2    11     1    1
     3     1     2    2
     4     2     3    1
     5     3     4    2
     6     4     5    1
     7     5     6    2
     8     6    12    1
     9    12    13    1
    10    13    14    1
    11    14    15   ar
    12    15    16   ar
    13    16    17   ar
    14    17    18   ar
    15    18    19   ar
    16     6     7    1
    17     7     8    2
    18     8     9    1
    19     9     1    1
    20     8     4    1
    21    19    14   ar
@<TRIPOS>MOLECULE
*****
 19 21 0 0 0
SMALL
GASTEIGER

@<TRIPOS>ATOM
      1 C         -11.2203   -3.0522   18.6115 C.2     1  UNL1        0.1223
      2 C         -10.0369   -3.9545   18.7995 C.2     1  UNL1        0.0343
      3 C         -10.2207   -5.4432   18.7960 C.2     1  UNL1        0.0232
      4 C         -11.5880   -6.0296   18.6045 C.2     1  UNL1        0.0975
      5 N         -12.0740   -7.4478   18.5555 N.2     1  UNL1       -0.2200
      6 C         -13.5579   -7.4221   18.3373 C.2     1  UNL1        0.1901
      7 N         -13.9889   -5.9879   18.2514 N.2     1  UNL1       -0.2236
      8 C         -12.7714   -5.1273   18.4165 C.2     1  UNL1        0.0863
      9 C         -12.5876   -3.6386   18.4201 C.3     1  UNL1        0.1112
     10 C         -10.7867   -0.8357   17.3275 C.3     1  UNL1        0.2520
     11 O         -11.0365   -1.5636   18.6150 O.2     1  UNL1       -0.4753
     12 S         -14.4534   -8.6202   18.2247 S.3     1  UNL1       -0.0709
     13 C         -15.7794   -8.5031   17.5334 C.3     1  UNL1        0.0913
     14 C         -17.0492   -8.6856   18.3107 C.ar    1  UNL1       -0.0109
     15 C         -17.2764   -7.9038   19.5704 C.ar    1  UNL1       -0.0034
     16 C         -18.5462   -8.0863   20.3477 C.ar    1  UNL1       -0.0003
     17 C         -19.5889   -9.0508   19.8653 C.ar    1  UNL1       -0.0000
     18 C         -19.3617   -9.8327   18.6055 C.ar    1  UNL1       -0.0003
     19 C         -18.0918   -9.6501   17.8282 C.ar    1  UNL1       -0.0034
@<TRIPOS>BOND
     1    10    11    1
     2    11     1    1
     3     1     2    2
     4     2     3    1
     5     3     4    2
     6     4     5    1
     7     5     6    2
     8     6    12    1
     9    12    13    1
    10    13    14    1
    11    14    15   ar
    12    15    16   ar
    13    16    17   ar
    14    17    18   ar
    15    18    19   ar
    16     6     7    1
    17     7     8    2
    18     8     9    1
    19     9     1    1
    20     8     4    1
    21    19    14   ar
@<TRIPOS>MOLECULE
*****
 19 21 0 0 0
SMALL
GASTEIGER

@<TRIPOS>ATOM
      1 C          -6.2368  -15.5274   24.1448 C.2     1  UNL1        0.1223
      2 C          -7.1491  -15.1575   25.2765 C.2     1  UNL1        0.0343
      3 C          -8.3994  -15.9491   25.5214 C.2     1  UNL1        0.0232
      4 C          -8.7374  -17.1107   24.6347 C.2     1  UNL1        0.0975
      5 N          -9.8915  -18.0689   24.6319 N.2     1  UNL1       -0.2200
      6 C          -9.6924  -19.0311   23.4985 C.2     1  UNL1        0.1901
      7 N          -8.4153  -18.6676   22.8008 N.2     1  UNL1       -0.2236
      8 C          -7.8251  -17.4807   23.5030 C.2     1  UNL1        0.0863
      9 C          -6.5748  -16.6891   23.2580 C.3     1  UNL1        0.1112
     10 C          -3.9608  -15.2359   22.9262 C.3     1  UNL1        0.2520
     11 O          -4.9864  -14.7358   23.8998 O.2     1  UNL1       -0.4753
     12 S         -10.6095  -20.1588   23.1280 S.3     1  UNL1       -0.0709
     13 C         -11.4747  -20.0517   21.9074 C.3     1  UNL1        0.0913
     14 C         -11.6811  -18.7199   21.2489 C.ar    1  UNL1       -0.0109
     15 C         -12.6416  -17.7314   21.8408 C.ar    1  UNL1       -0.0034
     16 C         -12.8480  -16.3996   21.1823 C.ar    1  UNL1       -0.0003
     17 C         -12.0940  -16.0563   19.9319 C.ar    1  UNL1       -0.0000
     18 C         -11.1335  -17.0448   19.3399 C.ar    1  UNL1       -0.0003
     19 C         -10.9271  -18.3766   19.9985 C.ar    1  UNL1       -0.0034
@<TRIPOS>BOND
     1    10    11    1
     2    11     1    1
     3     1     2    2
     4     2     3    1
     5     3     4    2
     6     4     5    1
     7     5     6    2
     8     6    12    1
     9    12    13    1
    10    13    14    1
    11    14    15   ar
    12    15    16   ar
    13    16    17   ar
    14    17    18   ar
    15    18    19   ar
    16     6     7    1
    17     7     8    2
    18     8     9    1
    19     9     1    1
    20     8     4    1
    21    19    14   ar
