@<TRIPOS>MOLECULE
*****
 29 32 0 0 0
SMALL
GASTEIGER

@<TRIPOS>ATOM
      1 C          -6.6330  -16.5816   23.8835 C.3     1  UNL1        0.0840
      2 C          -7.7547  -16.0168   24.7038 C.3     1  UNL1        0.0240
      3 C          -9.1780  -16.2841   24.3130 C.3     1  UNL1        0.0419
      4 C          -9.4796  -17.1163   23.1020 C.2     1  UNL1        0.0178
      5 C          -8.3580  -17.6811   22.2818 C.2     1  UNL1       -0.0279
      6 C          -6.9347  -17.4138   22.6725 C.3     1  UNL1        0.0410
      7 C          -8.9585  -18.4594   21.1488 C.3     1  UNL1        0.0634
      8 C          -8.3388  -19.2336   20.0234 C.2     1  UNL1       -0.0204
      9 C          -9.2120  -19.9240   19.0179 C.2     1  UNL1       -0.0045
     10 C         -10.7049  -19.8401   19.1379 C.2     1  UNL1       -0.0032
     11 C         -11.3245  -19.0659   20.2633 C.2     1  UNL1       -0.0061
     12 C         -10.4513  -18.3756   21.2688 C.3     1  UNL1        0.1028
     13 N         -10.7734  -17.5454   22.4759 N.pl3   1  UNL1       -0.3036
     14 C          -4.9042  -15.6389   25.5783 C.3     1  UNL1        0.1149
     15 N          -5.2096  -16.3144   24.2743 N.3     1  UNL1       -0.1551
     16 S          -4.0919  -16.7225   23.3611 S.O2    1  UNL1        0.0633
     17 O          -4.1102  -18.1001   23.9545 O.2     1  UNL1       -0.1528
     18 O          -4.0736  -15.3449   22.7678 O.2     1  UNL1       -0.1528
     19 C          -2.9742  -17.1306   22.4479 C.ar    1  UNL1        0.1223
     20 C          -2.7057  -18.5844   22.1942 C.ar    1  UNL1        0.0222
     21 C          -1.5880  -18.9925   21.2810 C.ar    1  UNL1        0.0310
     22 C          -0.7385  -17.9468   20.6214 C.ar    1  UNL1        0.1402
     23 F           0.3792  -18.3548   19.7081 F       1  UNL1       -0.2042
     24 C          -1.0070  -16.4929   20.8751 C.ar    1  UNL1        0.0310
     25 C          -2.1248  -16.0849   21.7883 C.ar    1  UNL1        0.0222
     26 C         -12.1480  -17.2044   22.9702 C.3     1  UNL1        0.1330
     27 C         -12.8226  -18.0861   23.9787 C.2     1  UNL1        0.0704
     28 O         -12.0019  -18.9724   24.8682 O.co2   1  UNL1       -0.5474
     29 O         -14.3178  -18.0817   24.0980 O.co2   1  UNL1       -0.5474
@<TRIPOS>UNITY_ATOM_ATTR
28 1
charge -1
@<TRIPOS>BOND
     1    14    15    1
     2     1    15    1
     3     1     2    1
     4     2     3    1
     5     3     4    1
     6     4     5    2
     7     5     6    1
     8     5     7    1
     9     7     8    1
    10     8     9    2
    11     9    10    1
    12    10    11    2
    13    11    12    1
    14    12    13    1
    15    13    26    1
    16    26    27    1
    17    27    28   ar
    18    27    29   ar
    19    15    16    1
    20    16    17    2
    21    16    18    2
    22    16    19    1
    23    19    20   ar
    24    20    21   ar
    25    21    22   ar
    26    22    23    1
    27    22    24   ar
    28    24    25   ar
    29     6     1    1
    30    12     7    1
    31    25    19   ar
    32    13     4    1
@<TRIPOS>MOLECULE
*****
 29 32 0 0 0
SMALL
GASTEIGER

@<TRIPOS>ATOM
      1 C          -6.3829  -16.5053   23.7979 C.3     1  UNL1        0.0840
      2 C          -5.0286  -15.8768   23.9426 C.3     1  UNL1        0.0240
      3 C          -3.8481  -16.4665   23.2293 C.3     1  UNL1        0.0419
      4 C          -4.0219  -17.6847   22.3715 C.2     1  UNL1        0.0178
      5 C          -5.3762  -18.3132   22.2268 C.2     1  UNL1       -0.0279
      6 C          -6.5567  -17.7235   22.9400 C.3     1  UNL1        0.0410
      7 C          -5.2420  -19.5000   21.3194 C.3     1  UNL1        0.0634
      8 C          -6.2428  -20.4986   20.8184 C.2     1  UNL1       -0.0204
      9 C          -5.8063  -21.6023   19.9012 C.2     1  UNL1       -0.0045
     10 C          -4.3690  -21.7074   19.4850 C.2     1  UNL1       -0.0032
     11 C          -3.3682  -20.7088   19.9861 C.2     1  UNL1       -0.0061
     12 C          -3.8047  -19.6051   20.9033 C.3     1  UNL1        0.1028
     13 N          -3.0507  -18.4832   21.5535 N.pl3   1  UNL1       -0.3036
     14 C          -7.3602  -14.8344   25.5308 C.3     1  UNL1        0.1149
     15 N          -7.5635  -15.9156   24.5111 N.3     1  UNL1       -0.1551
     16 S          -8.9471  -16.4072   24.2047 S.O2    1  UNL1        0.0633
     17 O          -9.0053  -17.0787   25.5447 O.2     1  UNL1       -0.1528
     18 O          -8.8888  -15.7356   22.8646 O.2     1  UNL1       -0.1528
     19 C         -10.3307  -16.8987   23.8982 C.ar    1  UNL1        0.1223
     20 C         -10.8379  -18.1578   24.5365 C.ar    1  UNL1        0.0222
     21 C         -12.2215  -18.6492   24.2300 C.ar    1  UNL1        0.0310
     22 C         -13.0980  -17.8817   23.2852 C.ar    1  UNL1        0.1402
     23 F         -14.4817  -18.3732   22.9786 F       1  UNL1       -0.2042
     24 C         -12.5907  -16.6225   22.6469 C.ar    1  UNL1        0.0310
     25 C         -11.2071  -16.1311   22.9534 C.ar    1  UNL1        0.0222
     26 C          -1.5830  -18.2080   21.4107 C.3     1  UNL1        0.1330
     27 C          -0.9587  -18.1562   20.0479 C.2     1  UNL1        0.0704
     28 O           0.3483  -18.8474   19.7948 O.co2   1  UNL1       -0.5474
     29 O          -1.6413  -17.4132   18.9379 O.co2   1  UNL1       -0.5474
@<TRIPOS>UNITY_ATOM_ATTR
28 1
charge -1
@<TRIPOS>BOND
     1    14    15    1
     2     1    15    1
     3     1     2    1
     4     2     3    1
     5     3     4    1
     6     4     5    2
     7     5     6    1
     8     5     7    1
     9     7     8    1
    10     8     9    2
    11     9    10    1
    12    10    11    2
    13    11    12    1
    14    12    13    1
    15    13    26    1
    16    26    27    1
    17    27    28   ar
    18    27    29   ar
    19    15    16    1
    20    16    17    2
    21    16    18    2
    22    16    19    1
    23    19    20   ar
    24    20    21   ar
    25    21    22   ar
    26    22    23    1
    27    22    24   ar
    28    24    25   ar
    29     6     1    1
    30    12     7    1
    31    25    19   ar
    32    13     4    1
@<TRIPOS>MOLECULE
*****
 29 32 0 0 0
SMALL
GASTEIGER

@<TRIPOS>ATOM
      1 C          -7.3998  -19.7636   21.6082 C.3     1  UNL1        0.0840
      2 C          -7.6639  -19.1604   20.2605 C.3     1  UNL1        0.0240
      3 C          -8.9796  -18.4966   19.9808 C.3     1  UNL1        0.0419
      4 C         -10.0311  -18.4359   21.0488 C.2     1  UNL1        0.0178
      5 C          -9.7670  -19.0391   22.3965 C.2     1  UNL1       -0.0279
      6 C          -8.4513  -19.7029   22.6762 C.3     1  UNL1        0.0410
      7 C         -10.9852  -18.8276   23.2458 C.3     1  UNL1        0.0634
      8 C         -11.2997  -19.2085   24.6621 C.2     1  UNL1       -0.0204
      9 C         -12.6313  -18.8556   25.2556 C.2     1  UNL1       -0.0045
     10 C         -13.6483  -18.1217   24.4327 C.2     1  UNL1       -0.0032
     11 C         -13.3338  -17.7408   23.0164 C.2     1  UNL1       -0.0061
     12 C         -12.0022  -18.0938   22.4230 C.3     1  UNL1        0.1028
     13 N         -11.4125  -17.8516   21.0651 N.pl3   1  UNL1       -0.3036
     14 C          -6.0438  -21.7263   22.6374 C.3     1  UNL1        0.1149
     15 N          -6.0840  -20.4276   21.8880 N.3     1  UNL1       -0.1551
     16 S          -4.8088  -19.7927   21.4184 S.O2    1  UNL1        0.0633
     17 O          -4.9208  -18.7642   22.5045 O.2     1  UNL1       -0.1528
     18 O          -4.6967  -20.8213   20.3323 O.2     1  UNL1       -0.1528
     19 C          -3.5335  -19.1579   20.9488 C.ar    1  UNL1        0.1223
     20 C          -2.4847  -18.7569   21.9433 C.ar    1  UNL1        0.0222
     21 C          -1.2094  -18.1221   21.4735 C.ar    1  UNL1        0.0310
     22 C          -0.9829  -17.8883   20.0093 C.ar    1  UNL1        0.1402
     23 F           0.2924  -17.2535   19.5395 F       1  UNL1       -0.2042
     24 C          -2.0318  -18.2893   19.0147 C.ar    1  UNL1        0.0310
     25 C          -3.3070  -18.9241   19.4845 C.ar    1  UNL1        0.0222
     26 C         -12.0861  -17.1487   19.9240 C.3     1  UNL1        0.1330
     27 C         -11.6313  -15.7798   19.5129 C.2     1  UNL1        0.0704
     28 O         -10.3370  -15.2309   20.0360 O.co2   1  UNL1       -0.5474
     29 O         -12.4705  -14.9597   18.5785 O.co2   1  UNL1       -0.5474
@<TRIPOS>UNITY_ATOM_ATTR
28 1
charge -1
@<TRIPOS>BOND
     1    14    15    1
     2     1    15    1
     3     1     2    1
     4     2     3    1
     5     3     4    1
     6     4     5    2
     7     5     6    1
     8     5     7    1
     9     7     8    1
    10     8     9    2
    11     9    10    1
    12    10    11    2
    13    11    12    1
    14    12    13    1
    15    13    26    1
    16    26    27    1
    17    27    28   ar
    18    27    29   ar
    19    15    16    1
    20    16    17    2
    21    16    18    2
    22    16    19    1
    23    19    20   ar
    24    20    21   ar
    25    21    22   ar
    26    22    23    1
    27    22    24   ar
    28    24    25   ar
    29     6     1    1
    30    12     7    1
    31    25    19   ar
    32    13     4    1
@<TRIPOS>MOLECULE
*****
 29 32 0 0 0
SMALL
GASTEIGER

@<TRIPOS>ATOM
      1 C          -6.8505  -19.1701   21.0167 C.3     1  UNL1        0.0840
      2 C          -8.2006  -19.1385   20.3639 C.3     1  UNL1        0.0240
      3 C          -9.3119  -18.3398   20.9777 C.3     1  UNL1        0.0419
      4 C          -9.0732  -17.5726   22.2444 C.2     1  UNL1        0.0178
      5 C          -7.7231  -17.6042   22.8972 C.2     1  UNL1       -0.0279
      6 C          -6.6117  -18.4029   22.2834 C.3     1  UNL1        0.0410
      7 C          -7.7850  -16.7542   24.1316 C.3     1  UNL1        0.0634
      8 C          -6.7565  -16.4153   25.1695 C.2     1  UNL1       -0.0204
      9 C          -7.1164  -15.5195   26.3175 C.2     1  UNL1       -0.0045
     10 C          -8.5049  -14.9626   26.4276 C.2     1  UNL1       -0.0032
     11 C          -9.5333  -15.3014   25.3896 C.2     1  UNL1       -0.0061
     12 C          -9.1734  -16.1972   24.2416 C.3     1  UNL1        0.1028
     13 N          -9.9695  -16.7031   23.0753 N.pl3   1  UNL1       -0.3036
     14 C          -6.0051  -21.3530   19.8895 C.3     1  UNL1        0.1149
     15 N          -5.7390  -19.9689   20.4028 N.3     1  UNL1       -0.1551
     16 S          -4.3616  -19.3835   20.3023 S.O2    1  UNL1        0.0633
     17 O          -3.8816  -20.3310   21.3614 O.2     1  UNL1       -0.1528
     18 O          -4.8417  -18.4360   19.2431 O.2     1  UNL1       -0.1528
     19 C          -2.9843  -18.7981   20.2017 C.ar    1  UNL1        0.1223
     20 C          -2.1302  -18.6750   21.4286 C.ar    1  UNL1        0.0222
     21 C          -0.7529  -18.0895   21.3279 C.ar    1  UNL1        0.0310
     22 C          -0.2295  -17.6272   20.0004 C.ar    1  UNL1        0.1402
     23 F           1.1479  -17.0418   19.8997 F       1  UNL1       -0.2042
     24 C          -1.0836  -17.7504   18.7734 C.ar    1  UNL1        0.0310
     25 C          -2.4610  -18.3359   18.8741 C.ar    1  UNL1        0.0222
     26 C         -11.4093  -16.3936   22.7900 C.3     1  UNL1        0.1330
     27 C         -12.3956  -17.5098   22.6134 C.2     1  UNL1        0.0704
     28 O         -12.8141  -18.3347   23.7943 O.co2   1  UNL1       -0.5474
     29 O         -12.9635  -17.8011   21.2560 O.co2   1  UNL1       -0.5474
@<TRIPOS>UNITY_ATOM_ATTR
28 1
charge -1
@<TRIPOS>BOND
     1    14    15    1
     2     1    15    1
     3     1     2    1
     4     2     3    1
     5     3     4    1
     6     4     5    2
     7     5     6    1
     8     5     7    1
     9     7     8    1
    10     8     9    2
    11     9    10    1
    12    10    11    2
    13    11    12    1
    14    12    13    1
    15    13    26    1
    16    26    27    1
    17    27    28   ar
    18    27    29   ar
    19    15    16    1
    20    16    17    2
    21    16    18    2
    22    16    19    1
    23    19    20   ar
    24    20    21   ar
    25    21    22   ar
    26    22    23    1
    27    22    24   ar
    28    24    25   ar
    29     6     1    1
    30    12     7    1
    31    25    19   ar
    32    13     4    1
@<TRIPOS>MOLECULE
*****
 29 32 0 0 0
SMALL
GASTEIGER

@<TRIPOS>ATOM
      1 C          -6.0815  -18.6626   21.7261 C.3     1  UNL1        0.0840
      2 C          -5.6214  -17.7887   22.8551 C.3     1  UNL1        0.0240
      3 C          -6.6210  -17.0024   23.6502 C.3     1  UNL1        0.0419
      4 C          -8.0808  -17.0899   23.3164 C.2     1  UNL1        0.0178
      5 C          -8.5409  -17.9638   22.1874 C.2     1  UNL1       -0.0279
      6 C          -7.5413  -18.7501   21.3923 C.3     1  UNL1        0.0410
      7 C         -10.0336  -17.8501   22.0919 C.3     1  UNL1        0.0634
      8 C         -11.0314  -18.4844   21.1688 C.2     1  UNL1       -0.0204
      9 C         -12.4916  -18.1745   21.3157 C.2     1  UNL1       -0.0045
     10 C         -12.9540  -17.2303   22.3857 C.2     1  UNL1       -0.0032
     11 C         -11.9562  -16.5961   23.3087 C.2     1  UNL1       -0.0061
     12 C         -10.4960  -16.9060   23.1618 C.3     1  UNL1        0.1028
     13 N          -9.2891  -16.4362   23.9186 N.pl3   1  UNL1       -0.3036
     14 C          -5.4627  -20.7801   20.3538 C.3     1  UNL1        0.1149
     15 N          -5.0818  -19.4490   20.9308 N.3     1  UNL1       -0.1551
     16 S          -3.7013  -18.9042   20.7127 S.O2    1  UNL1        0.0633
     17 O          -4.2043  -18.0930   19.5556 O.2     1  UNL1       -0.1528
     18 O          -3.1984  -19.7155   21.8700 O.2     1  UNL1       -0.1528
     19 C          -2.3209  -18.3595   20.4947 C.ar    1  UNL1        0.1223
     20 C          -1.2442  -19.2446   19.9404 C.ar    1  UNL1        0.0222
     21 C           0.1362  -18.6998   19.7224 C.ar    1  UNL1        0.0310
     22 C           0.4401  -17.2699   20.0587 C.ar    1  UNL1        0.1402
     23 F           1.8205  -16.7251   19.8407 F       1  UNL1       -0.2042
     24 C          -0.6367  -16.3848   20.6130 C.ar    1  UNL1        0.0310
     25 C          -2.0172  -16.9296   20.8310 C.ar    1  UNL1        0.0222
     26 C          -9.2904  -15.4804   25.0747 C.3     1  UNL1        0.1330
     27 C          -8.7710  -15.9195   26.4115 C.2     1  UNL1        0.0704
     28 O          -8.7963  -17.3720   26.7857 O.co2   1  UNL1       -0.5474
     29 O          -8.2263  -14.9064   27.3743 O.co2   1  UNL1       -0.5474
@<TRIPOS>UNITY_ATOM_ATTR
28 1
charge -1
@<TRIPOS>BOND
     1    14    15    1
     2     1    15    1
     3     1     2    1
     4     2     3    1
     5     3     4    1
     6     4     5    2
     7     5     6    1
     8     5     7    1
     9     7     8    1
    10     8     9    2
    11     9    10    1
    12    10    11    2
    13    11    12    1
    14    12    13    1
    15    13    26    1
    16    26    27    1
    17    27    28   ar
    18    27    29   ar
    19    15    16    1
    20    16    17    2
    21    16    18    2
    22    16    19    1
    23    19    20   ar
    24    20    21   ar
    25    21    22   ar
    26    22    23    1
    27    22    24   ar
    28    24    25   ar
    29     6     1    1
    30    12     7    1
    31    25    19   ar
    32    13     4    1
@<TRIPOS>MOLECULE
*****
 29 32 0 0 0
SMALL
GASTEIGER

@<TRIPOS>ATOM
      1 C           0.5403    2.2515   19.9427 C.3     1  UNL1        0.0840
      2 C           0.7702    1.6898   18.5709 C.3     1  UNL1        0.0240
      3 C           1.6389    0.4802   18.3917 C.3     1  UNL1        0.0419
      4 C           2.2777   -0.1678   19.5842 C.2     1  UNL1        0.0178
      5 C           2.0478    0.3938   20.9560 C.2     1  UNL1       -0.0279
      6 C           1.1791    1.6034   21.1352 C.3     1  UNL1        0.0410
      7 C           2.8044   -0.4527   21.9363 C.3     1  UNL1        0.0634
      8 C           2.9483   -0.3758   23.4273 C.2     1  UNL1       -0.0204
      9 C           3.7898   -1.3837   24.1525 C.2     1  UNL1       -0.0045
     10 C           4.4874   -2.4685   23.3866 C.2     1  UNL1       -0.0032
     11 C           4.3435   -2.5454   21.8955 C.2     1  UNL1       -0.0061
     12 C           3.5020   -1.5375   21.1704 C.3     1  UNL1        0.1028
     13 N           3.1764   -1.3614   19.7167 N.pl3   1  UNL1       -0.3036
     14 C          -0.1723    4.6389   19.2062 C.3     1  UNL1        0.1149
     15 N          -0.3284    3.4612   20.1220 N.3     1  UNL1       -0.1551
     16 S          -1.3531    3.4931   21.2170 S.O2    1  UNL1        0.0633
     17 O          -2.1228    2.4053   20.5283 O.2     1  UNL1       -0.1528
     18 O          -0.5832    4.5809   21.9056 O.2     1  UNL1       -0.1528
     19 C          -2.3776    3.5251   22.3119 C.ar    1  UNL1        0.1223
     20 C          -1.9428    3.6399   23.7429 C.ar    1  UNL1        0.0222
     21 C          -2.9675    3.6718   24.8379 C.ar    1  UNL1        0.0310
     22 C          -4.4270    3.5890   24.5020 C.ar    1  UNL1        0.1402
     23 F          -5.4517    3.6209   25.5970 F       1  UNL1       -0.2042
     24 C          -4.8619    3.4742   23.0709 C.ar    1  UNL1        0.0310
     25 C          -3.8372    3.4422   21.9760 C.ar    1  UNL1        0.0222
     26 C           3.6641   -2.2270   18.5929 C.3     1  UNL1        0.1330
     27 C           4.5571   -1.6501   17.5349 C.2     1  UNL1        0.0704
     28 O           3.9602   -1.0127   16.3153 O.co2   1  UNL1       -0.5474
     29 O           6.0472   -1.7104   17.6964 O.co2   1  UNL1       -0.5474
@<TRIPOS>UNITY_ATOM_ATTR
28 1
charge -1
@<TRIPOS>BOND
     1    14    15    1
     2     1    15    1
     3     1     2    1
     4     2     3    1
     5     3     4    1
     6     4     5    2
     7     5     6    1
     8     5     7    1
     9     7     8    1
    10     8     9    2
    11     9    10    1
    12    10    11    2
    13    11    12    1
    14    12    13    1
    15    13    26    1
    16    26    27    1
    17    27    28   ar
    18    27    29   ar
    19    15    16    1
    20    16    17    2
    21    16    18    2
    22    16    19    1
    23    19    20   ar
    24    20    21   ar
    25    21    22   ar
    26    22    23    1
    27    22    24   ar
    28    24    25   ar
    29     6     1    1
    30    12     7    1
    31    25    19   ar
    32    13     4    1
@<TRIPOS>MOLECULE
*****
 29 32 0 0 0
SMALL
GASTEIGER

@<TRIPOS>ATOM
      1 C           0.7451    2.2889   20.1191 C.3     1  UNL1        0.0840
      2 C           0.9242    1.7616   18.7263 C.3     1  UNL1        0.0240
      3 C           1.7419    0.5261   18.4916 C.3     1  UNL1        0.0419
      4 C           2.3803   -0.1820   19.6496 C.2     1  UNL1        0.0178
      5 C           2.2012    0.3453   21.0423 C.2     1  UNL1       -0.0279
      6 C           1.3835    1.5808   21.2771 C.3     1  UNL1        0.0410
      7 C           2.9453   -0.5589   21.9797 C.3     1  UNL1        0.0634
      8 C           3.1235   -0.5335   23.4688 C.2     1  UNL1       -0.0204
      9 C           3.9409   -1.5944   24.1445 C.2     1  UNL1       -0.0045
     10 C           4.5800   -2.6806   23.3310 C.2     1  UNL1       -0.0032
     11 C           4.4017   -2.7059   21.8419 C.2     1  UNL1       -0.0061
     12 C           3.5844   -1.6451   21.1662 C.3     1  UNL1        0.1028
     13 N           3.2352   -1.4121   19.7261 N.pl3   1  UNL1       -0.3036
     14 C           0.5649    4.7430   20.9528 C.3     1  UNL1        0.1149
     15 N          -0.0726    3.5244   20.3539 N.3     1  UNL1       -0.1551
     16 S          -1.5277    3.5412   19.9899 S.O2    1  UNL1        0.0633
     17 O          -1.2458    4.5428   18.9095 O.2     1  UNL1       -0.1528
     18 O          -1.8095    2.5395   21.0704 O.2     1  UNL1       -0.1528
     19 C          -2.9827    3.5580   19.6260 C.ar    1  UNL1        0.1223
     20 C          -3.3987    3.8272   18.2102 C.ar    1  UNL1        0.0222
     21 C          -4.8537    3.8439   17.8463 C.ar    1  UNL1        0.0310
     22 C          -5.8929    3.5914   18.8981 C.ar    1  UNL1        0.1402
     23 F          -7.3480    3.6082   18.5343 F       1  UNL1       -0.2042
     24 C          -5.4769    3.3222   20.3140 C.ar    1  UNL1        0.0310
     25 C          -4.0218    3.3055   20.6779 C.ar    1  UNL1        0.0222
     26 C           3.6655   -2.2604   18.5663 C.3     1  UNL1        0.1330
     27 C           4.5633   -1.6874   17.5102 C.2     1  UNL1        0.0704
     28 O           3.9719   -1.0015   16.3144 O.co2   1  UNL1       -0.5474
     29 O           6.0525   -1.8001   17.6497 O.co2   1  UNL1       -0.5474
@<TRIPOS>UNITY_ATOM_ATTR
28 1
charge -1
@<TRIPOS>BOND
     1    14    15    1
     2     1    15    1
     3     1     2    1
     4     2     3    1
     5     3     4    1
     6     4     5    2
     7     5     6    1
     8     5     7    1
     9     7     8    1
    10     8     9    2
    11     9    10    1
    12    10    11    2
    13    11    12    1
    14    12    13    1
    15    13    26    1
    16    26    27    1
    17    27    28   ar
    18    27    29   ar
    19    15    16    1
    20    16    17    2
    21    16    18    2
    22    16    19    1
    23    19    20   ar
    24    20    21   ar
    25    21    22   ar
    26    22    23    1
    27    22    24   ar
    28    24    25   ar
    29     6     1    1
    30    12     7    1
    31    25    19   ar
    32    13     4    1
@<TRIPOS>MOLECULE
*****
 29 32 0 0 0
SMALL
GASTEIGER

@<TRIPOS>ATOM
      1 C           2.3415    0.1743   19.2533 C.3     1  UNL1        0.0840
      2 C           1.5699    0.9827   18.2528 C.3     1  UNL1        0.0240
      3 C           0.5111    1.9384   18.7172 C.3     1  UNL1        0.0419
      4 C           0.2240    2.0856   20.1821 C.2     1  UNL1        0.0178
      5 C           0.9956    1.2772   21.1826 C.2     1  UNL1       -0.0279
      6 C           2.0544    0.3215   20.7182 C.3     1  UNL1        0.0410
      7 C           0.4951    1.6330   22.5512 C.3     1  UNL1        0.0634
      8 C           0.8840    1.1535   23.9182 C.2     1  UNL1       -0.0204
      9 C           0.1919    1.7023   25.1305 C.2     1  UNL1       -0.0045
     10 C          -0.8891    2.7307   24.9758 C.2     1  UNL1       -0.0032
     11 C          -1.2780    3.2102   23.6087 C.2     1  UNL1       -0.0061
     12 C          -0.5859    2.6614   22.3964 C.3     1  UNL1        0.1028
     13 N          -0.7534    2.9411   20.9323 N.pl3   1  UNL1       -0.3036
     14 C           3.7059   -0.9091   17.3260 C.3     1  UNL1        0.1149
     15 N           3.4003   -0.7815   18.7890 N.3     1  UNL1       -0.1551
     16 S           4.1534   -1.6096   19.7876 S.O2    1  UNL1        0.0633
     17 O           5.1584   -0.5071   19.9439 O.2     1  UNL1       -0.1528
     18 O           3.1483   -2.7121   19.6312 O.2     1  UNL1       -0.1528
     19 C           4.9064   -2.4376   20.7861 C.ar    1  UNL1        0.1223
     20 C           6.2110   -3.0713   20.4035 C.ar    1  UNL1        0.0222
     21 C           6.9639   -3.8994   21.4022 C.ar    1  UNL1        0.0310
     22 C           6.4124   -4.0939   22.7834 C.ar    1  UNL1        0.1402
     23 F           7.1653   -4.9220   23.7821 F       1  UNL1       -0.2042
     24 C           5.1077   -3.4602   23.1661 C.ar    1  UNL1        0.0310
     25 C           4.3547   -2.6321   22.1674 C.ar    1  UNL1        0.0222
     26 C          -1.7275    3.9067   20.3250 C.3     1  UNL1        0.1330
     27 C          -3.1426    3.4820   20.0668 C.2     1  UNL1        0.0704
     28 O          -3.9272    2.7926   21.1436 O.co2   1  UNL1       -0.5474
     29 O          -3.7735    3.7465   18.7318 O.co2   1  UNL1       -0.5474
@<TRIPOS>UNITY_ATOM_ATTR
28 1
charge -1
@<TRIPOS>BOND
     1    14    15    1
     2     1    15    1
     3     1     2    1
     4     2     3    1
     5     3     4    1
     6     4     5    2
     7     5     6    1
     8     5     7    1
     9     7     8    1
    10     8     9    2
    11     9    10    1
    12    10    11    2
    13    11    12    1
    14    12    13    1
    15    13    26    1
    16    26    27    1
    17    27    28   ar
    18    27    29   ar
    19    15    16    1
    20    16    17    2
    21    16    18    2
    22    16    19    1
    23    19    20   ar
    24    20    21   ar
    25    21    22   ar
    26    22    23    1
    27    22    24   ar
    28    24    25   ar
    29     6     1    1
    30    12     7    1
    31    25    19   ar
    32    13     4    1
@<TRIPOS>MOLECULE
*****
 29 32 0 0 0
SMALL
GASTEIGER

@<TRIPOS>ATOM
      1 C           0.0400    2.5284   21.6669 C.3     1  UNL1        0.0840
      2 C           1.0345    2.1334   22.7182 C.3     1  UNL1        0.0240
      3 C           0.6883    2.2789   24.1704 C.3     1  UNL1        0.0419
      4 C          -0.6523    2.8193   24.5714 C.2     1  UNL1        0.0178
      5 C          -1.6468    3.2143   23.5201 C.2     1  UNL1       -0.0279
      6 C          -1.3006    3.0688   22.0679 C.3     1  UNL1        0.0410
      7 C          -2.8803    3.7129   24.2128 C.3     1  UNL1        0.0634
      8 C          -4.1848    4.2347   23.6876 C.2     1  UNL1       -0.0204
      9 C          -5.2572    4.6698   24.6418 C.2     1  UNL1       -0.0045
     10 C          -5.0252    4.5831   26.1212 C.2     1  UNL1       -0.0032
     11 C          -3.7207    4.0613   26.6464 C.2     1  UNL1       -0.0061
     12 C          -2.6482    3.6262   25.6922 C.3     1  UNL1        0.1028
     13 N          -1.2713    3.0739   25.9138 N.pl3   1  UNL1       -0.3036
     14 C          -0.1751    3.3449   19.2099 C.3     1  UNL1        0.1149
     15 N           0.3862    2.3829   20.2146 N.3     1  UNL1       -0.1551
     16 S           1.2936    1.2755   19.7672 S.O2    1  UNL1        0.0633
     17 O           0.2202    0.2729   20.0717 O.2     1  UNL1       -0.1528
     18 O           2.3670    2.2781   19.4627 O.2     1  UNL1       -0.1528
     19 C           2.2010    0.1681   19.3197 C.ar    1  UNL1        0.1223
     20 C           2.3682   -1.0550   20.1717 C.ar    1  UNL1        0.0222
     21 C           3.2757   -2.1624   19.7242 C.ar    1  UNL1        0.0310
     22 C           4.0159   -2.0467   18.4247 C.ar    1  UNL1        0.1402
     23 F           4.9234   -3.1540   17.9771 F       1  UNL1       -0.2042
     24 C           3.8487   -0.8234   17.5727 C.ar    1  UNL1        0.0310
     25 C           2.9412    0.2839   18.0202 C.ar    1  UNL1        0.0222
     26 C          -0.6265    2.8207   27.2443 C.3     1  UNL1        0.1330
     27 C          -0.4012    1.4138   27.7129 C.2     1  UNL1        0.0704
     28 O          -1.5040    0.6677   28.4040 O.co2   1  UNL1       -0.5474
     29 O           0.9268    0.7527   27.4906 O.co2   1  UNL1       -0.5474
@<TRIPOS>UNITY_ATOM_ATTR
28 1
charge -1
@<TRIPOS>BOND
     1    14    15    1
     2     1    15    1
     3     1     2    1
     4     2     3    1
     5     3     4    1
     6     4     5    2
     7     5     6    1
     8     5     7    1
     9     7     8    1
    10     8     9    2
    11     9    10    1
    12    10    11    2
    13    11    12    1
    14    12    13    1
    15    13    26    1
    16    26    27    1
    17    27    28   ar
    18    27    29   ar
    19    15    16    1
    20    16    17    2
    21    16    18    2
    22    16    19    1
    23    19    20   ar
    24    20    21   ar
    25    21    22   ar
    26    22    23    1
    27    22    24   ar
    28    24    25   ar
    29     6     1    1
    30    12     7    1
    31    25    19   ar
    32    13     4    1
