@<TRIPOS>MOLECULE
*****
 30 34 0 0 0
SMALL
GASTEIGER

@<TRIPOS>ATOM
      1 C          -7.6946  -20.9830   19.8432 C.3     1  UNL1        0.0311
      2 C          -6.4776  -20.3224   20.4199 C.ar    1  UNL1       -0.0188
      3 C          -5.1163  -20.6666   19.8922 C.ar    1  UNL1       -0.0040
      4 C          -3.8993  -20.0060   20.4689 C.ar    1  UNL1        0.0057
      5 C          -4.0436  -19.0013   21.5733 C.ar    1  UNL1        0.0717
      6 C          -3.0340  -18.1932   22.3334 C.ar    1  UNL1        0.1704
      7 N          -3.7712  -17.3498   23.3308 N.ar    1  UNL1       -0.0621
      8 O          -5.2365  -17.6365   23.1872 O.2     1  UNL1       -0.3522
      9 C          -5.4049  -18.6572   22.1010 C.ar    1  UNL1        0.1777
     10 C          -6.6219  -19.3178   21.5243 C.ar    1  UNL1        0.0333
     11 C          -7.9832  -18.9736   22.0521 C.ar    1  UNL1        0.0028
     12 C          -8.6099  -19.8207   23.1196 C.ar    1  UNL1        0.0002
     13 C          -9.9711  -19.4766   23.6473 C.ar    1  UNL1        0.0029
     14 C         -10.7057  -18.2853   23.1075 C.ar    1  UNL1        0.0347
     15 C         -12.0670  -17.9412   23.6353 C.ar    1  UNL1        0.1501
     16 N         -12.8015  -16.7500   23.0955 N.ar    1  UNL1       -0.1331
     17 N         -12.1748  -15.9029   22.0279 N.ar    1  UNL1       -0.1452
     18 C         -10.8135  -16.2470   21.5002 C.ar    1  UNL1        0.1222
     19 C         -10.0790  -17.4383   22.0400 C.ar    1  UNL1        0.0237
     20 C          -8.7177  -17.7824   21.5123 C.ar    1  UNL1        0.0018
     21 N         -12.6937  -18.7883   24.7028 N.pl3   1  UNL1       -0.3183
     22 H         -12.1738  -19.5077   25.1288 H       1  UNL1        0.1482
     23 C         -14.1125  -18.5393   25.1213 C.3     1  UNL1        0.0705
     24 C         -15.2003  -18.4861   24.0900 C.3     1  UNL1        0.0212
     25 C         -14.4434  -18.3436   26.5712 C.3     1  UNL1        0.0212
     26 N          -1.5480  -18.2234   22.1314 N.pl3   1  UNL1       -0.3171
     27 H          -0.9511  -18.4007   22.8940 H       1  UNL1        0.1482
     28 C          -0.9714  -17.9834   20.7676 C.3     1  UNL1        0.0706
     29 C           0.2193  -17.7848   19.8772 C.3     1  UNL1        0.0212
     30 C          -1.1634  -17.7662   19.2959 C.3     1  UNL1        0.0212
@<TRIPOS>BOND
     1     1     2    1
     2     2     3   ar
     3     3     4   ar
     4     4     5   ar
     5     5     6   ar
     6     6    26    1
     7    26    28    1
     8    28    29    1
     9    29    30    1
    10     6     7   ar
    11     7     8   ar
    12     8     9   ar
    13     9    10   ar
    14    10    11    1
    15    11    12   ar
    16    12    13   ar
    17    13    14   ar
    18    14    15   ar
    19    15    21    1
    20    21    23    1
    21    23    24    1
    22    23    25    1
    23    15    16   ar
    24    16    17   ar
    25    17    18   ar
    26    18    19   ar
    27    19    20   ar
    28    10     2   ar
    29    20    11   ar
    30     9     5   ar
    31    19    14   ar
    32    30    28    1
    33    26    27    1
    34    21    22    1
@<TRIPOS>MOLECULE
*****
 30 34 0 0 0
SMALL
GASTEIGER

@<TRIPOS>ATOM
      1 C          -6.8577  -21.6747   19.7008 C.3     1  UNL1        0.0311
      2 C          -5.7651  -20.8136   20.2618 C.ar    1  UNL1       -0.0188
      3 C          -4.3341  -21.0932   19.9094 C.ar    1  UNL1       -0.0040
      4 C          -3.2415  -20.2321   20.4705 C.ar    1  UNL1        0.0057
      5 C          -3.5799  -19.0915   21.3840 C.ar    1  UNL1        0.0717
      6 C          -2.7237  -18.0787   22.0848 C.ar    1  UNL1        0.1704
      7 N          -3.6254  -17.1733   22.8702 N.ar    1  UNL1       -0.0621
      8 O          -5.0390  -17.6264   22.6549 O.2     1  UNL1       -0.3522
      9 C          -5.0109  -18.8119   21.7364 C.ar    1  UNL1        0.1777
     10 C          -6.1035  -19.6730   21.1753 C.ar    1  UNL1        0.0333
     11 C          -7.5345  -19.3934   21.5277 C.ar    1  UNL1        0.0028
     12 C          -8.4444  -18.7562   20.5198 C.ar    1  UNL1        0.0002
     13 C          -9.8753  -18.4767   20.8722 C.ar    1  UNL1        0.0029
     14 C         -10.3963  -18.8343   22.2326 C.ar    1  UNL1        0.0347
     15 C         -11.8273  -18.5547   22.5850 C.ar    1  UNL1        0.1501
     16 N         -12.3483  -18.9124   23.9454 N.ar    1  UNL1       -0.1331
     17 N         -11.4383  -19.5496   24.9534 N.ar    1  UNL1       -0.1452
     18 C         -10.0074  -19.8291   24.6009 C.ar    1  UNL1        0.1222
     19 C          -9.4864  -19.4715   23.2405 C.ar    1  UNL1        0.0237
     20 C          -8.0555  -19.7511   22.8881 C.ar    1  UNL1        0.0018
     21 N         -12.7372  -17.9176   21.5771 N.pl3   1  UNL1       -0.3183
     22 H         -13.4163  -18.4600   21.1146 H       1  UNL1        0.1482
     23 C         -12.6126  -16.4538   21.2738 C.3     1  UNL1        0.0705
     24 C         -12.5794  -15.4560   22.3933 C.3     1  UNL1        0.0212
     25 C         -12.5213  -15.9878   19.8509 C.3     1  UNL1        0.0212
     26 N          -1.2282  -17.9875   22.0127 N.pl3   1  UNL1       -0.3171
     27 H          -0.6909  -18.0512   22.8352 H       1  UNL1        0.1482
     28 C          -0.5513  -17.7991   20.6874 C.3     1  UNL1        0.0706
     29 C           0.6572  -17.4069   19.8901 C.3     1  UNL1        0.0212
     30 C          -0.5874  -17.8650   19.1893 C.3     1  UNL1        0.0212
@<TRIPOS>BOND
     1     1     2    1
     2     2     3   ar
     3     3     4   ar
     4     4     5   ar
     5     5     6   ar
     6     6    26    1
     7    26    28    1
     8    28    29    1
     9    29    30    1
    10     6     7   ar
    11     7     8   ar
    12     8     9   ar
    13     9    10   ar
    14    10    11    1
    15    11    12   ar
    16    12    13   ar
    17    13    14   ar
    18    14    15   ar
    19    15    21    1
    20    21    23    1
    21    23    24    1
    22    23    25    1
    23    15    16   ar
    24    16    17   ar
    25    17    18   ar
    26    18    19   ar
    27    19    20   ar
    28    10     2   ar
    29    20    11   ar
    30     9     5   ar
    31    19    14   ar
    32    30    28    1
    33    26    27    1
    34    21    22    1
@<TRIPOS>MOLECULE
*****
 30 34 0 0 0
SMALL
GASTEIGER

@<TRIPOS>ATOM
      1 C          -6.6134  -15.3159   24.5054 C.3     1  UNL1        0.0311
      2 C          -5.8121  -16.3218   23.7333 C.ar    1  UNL1       -0.0188
      3 C          -4.3205  -16.1871   23.6488 C.ar    1  UNL1       -0.0040
      4 C          -3.5191  -17.1930   22.8767 C.ar    1  UNL1        0.0057
      5 C          -4.2094  -18.3336   22.1892 C.ar    1  UNL1        0.0717
      6 C          -3.6875  -19.4706   21.3616 C.ar    1  UNL1        0.1704
      7 N          -4.8565  -20.3079   20.9347 N.ar    1  UNL1       -0.0621
      8 O          -6.1008  -19.6885   21.4985 O.2     1  UNL1       -0.3522
      9 C          -5.7009  -18.4683   22.2738 C.ar    1  UNL1        0.1777
     10 C          -6.5023  -17.4624   23.0458 C.ar    1  UNL1        0.0333
     11 C          -7.9939  -17.5971   23.1304 C.ar    1  UNL1        0.0028
     12 C          -8.6083  -18.4992   24.1592 C.ar    1  UNL1        0.0002
     13 C         -10.0998  -18.6339   24.2437 C.ar    1  UNL1        0.0029
     14 C         -10.9769  -17.8665   23.2993 C.ar    1  UNL1        0.0347
     15 C         -12.4685  -18.0012   23.3839 C.ar    1  UNL1        0.1501
     16 N         -13.3455  -17.2337   22.4395 N.ar    1  UNL1       -0.1331
     17 N         -12.7310  -16.3316   21.4106 N.ar    1  UNL1       -0.1452
     18 C         -11.2395  -16.1969   21.3262 C.ar    1  UNL1        0.1222
     19 C         -10.3624  -16.9643   22.2705 C.ar    1  UNL1        0.0237
     20 C          -8.8709  -16.8296   22.1860 C.ar    1  UNL1        0.0018
     21 N         -13.0829  -18.9033   24.4127 N.pl3   1  UNL1       -0.3183
     22 H         -12.6072  -19.7150   24.7028 H       1  UNL1        0.1482
     23 C         -14.4222  -18.5688   24.9997 C.3     1  UNL1        0.0705
     24 C         -15.6412  -18.5527   24.1258 C.3     1  UNL1        0.0212
     25 C         -14.5424  -18.2503   26.4605 C.3     1  UNL1        0.0212
     26 N          -2.2492  -19.7254   21.0208 N.pl3   1  UNL1       -0.3171
     27 H          -1.8017  -20.5379   21.3507 H       1  UNL1        0.1482
     28 C          -1.4927  -18.7423   20.1775 C.3     1  UNL1        0.0706
     29 C          -1.4644  -17.7356   19.0658 C.3     1  UNL1        0.0212
     30 C          -0.2106  -18.0462   19.8285 C.3     1  UNL1        0.0212
@<TRIPOS>BOND
     1     1     2    1
     2     2     3   ar
     3     3     4   ar
     4     4     5   ar
     5     5     6   ar
     6     6    26    1
     7    26    28    1
     8    28    29    1
     9    29    30    1
    10     6     7   ar
    11     7     8   ar
    12     8     9   ar
    13     9    10   ar
    14    10    11    1
    15    11    12   ar
    16    12    13   ar
    17    13    14   ar
    18    14    15   ar
    19    15    21    1
    20    21    23    1
    21    23    24    1
    22    23    25    1
    23    15    16   ar
    24    16    17   ar
    25    17    18   ar
    26    18    19   ar
    27    19    20   ar
    28    10     2   ar
    29    20    11   ar
    30     9     5   ar
    31    19    14   ar
    32    30    28    1
    33    26    27    1
    34    21    22    1
@<TRIPOS>MOLECULE
*****
 30 34 0 0 0
SMALL
GASTEIGER

@<TRIPOS>ATOM
      1 C           9.4495   -2.3562   22.9170 C.3     1  UNL1        0.0311
      2 C           8.3325   -2.5770   21.9405 C.ar    1  UNL1       -0.0188
      3 C           8.3317   -1.8545   20.6259 C.ar    1  UNL1       -0.0040
      4 C           7.2147   -2.0753   19.6494 C.ar    1  UNL1        0.0057
      5 C           6.0984   -3.0187   19.9875 C.ar    1  UNL1        0.0717
      6 C           4.8720   -3.4346   19.2308 C.ar    1  UNL1        0.1704
      7 N           4.1148   -4.4141   20.0776 N.ar    1  UNL1       -0.0621
      8 O           4.8733   -4.6036   21.3577 O.2     1  UNL1       -0.3522
      9 C           6.0993   -3.7411   21.3021 C.ar    1  UNL1        0.1777
     10 C           7.2163   -3.5203   22.2785 C.ar    1  UNL1        0.0333
     11 C           7.2171   -4.2428   23.5931 C.ar    1  UNL1        0.0028
     12 C           6.5083   -3.6504   24.7749 C.ar    1  UNL1        0.0002
     13 C           6.5091   -4.3729   26.0894 C.ar    1  UNL1        0.0029
     14 C           7.2187   -5.6878   26.2221 C.ar    1  UNL1        0.0347
     15 C           7.2194   -6.4103   27.5367 C.ar    1  UNL1        0.1501
     16 N           7.9290   -7.7252   27.6694 N.ar    1  UNL1       -0.1331
     17 N           8.6378   -8.3176   26.4875 N.ar    1  UNL1       -0.1452
     18 C           8.6370   -7.5951   25.1730 C.ar    1  UNL1        0.1222
     19 C           7.9274   -6.2802   25.0403 C.ar    1  UNL1        0.0237
     20 C           7.9266   -5.5577   23.7258 C.ar    1  UNL1        0.0018
     21 N           6.5107   -5.8180   28.7185 N.pl3   1  UNL1       -0.3183
     22 H           5.5267   -5.8105   28.7494 H       1  UNL1        0.1482
     23 C           7.3012   -5.2368   29.8532 C.3     1  UNL1        0.0705
     24 C           7.1104   -5.7606   31.2458 C.3     1  UNL1        0.0212
     25 C           8.2824   -4.1320   29.5953 C.3     1  UNL1        0.0212
     26 N           4.4728   -2.9552   17.8667 N.pl3   1  UNL1       -0.3171
     27 H           4.3600   -3.6004   17.1317 H       1  UNL1        0.1482
     28 C           4.2454   -1.4928   17.6225 C.3     1  UNL1        0.0706
     29 C           3.3429   -0.2952   17.6555 C.3     1  UNL1        0.0212
     30 C           4.7542   -0.1574   17.1664 C.3     1  UNL1        0.0212
@<TRIPOS>BOND
     1     1     2    1
     2     2     3   ar
     3     3     4   ar
     4     4     5   ar
     5     5     6   ar
     6     6    26    1
     7    26    28    1
     8    28    29    1
     9    29    30    1
    10     6     7   ar
    11     7     8   ar
    12     8     9   ar
    13     9    10   ar
    14    10    11    1
    15    11    12   ar
    16    12    13   ar
    17    13    14   ar
    18    14    15   ar
    19    15    21    1
    20    21    23    1
    21    23    24    1
    22    23    25    1
    23    15    16   ar
    24    16    17   ar
    25    17    18   ar
    26    18    19   ar
    27    19    20   ar
    28    10     2   ar
    29    20    11   ar
    30     9     5   ar
    31    19    14   ar
    32    30    28    1
    33    26    27    1
    34    21    22    1
@<TRIPOS>MOLECULE
*****
 30 34 0 0 0
SMALL
GASTEIGER

@<TRIPOS>ATOM
      1 C          -6.7171  -15.5538   24.7800 C.3     1  UNL1        0.0311
      2 C          -8.0056  -16.0890   24.2292 C.ar    1  UNL1       -0.0188
      3 C          -9.3141  -15.5350   24.7098 C.ar    1  UNL1       -0.0040
      4 C         -10.6027  -16.0702   24.1590 C.ar    1  UNL1        0.0057
      5 C         -10.5826  -17.1594   23.1278 C.ar    1  UNL1        0.0717
      6 C         -11.6835  -17.8802   22.4077 C.ar    1  UNL1        0.1704
      7 N         -11.0554  -18.8795   21.4822 N.ar    1  UNL1       -0.0621
      8 O          -9.5663  -18.7765   21.6303 O.2     1  UNL1       -0.3522
      9 C          -9.2741  -17.7134   22.6474 C.ar    1  UNL1        0.1777
     10 C          -7.9856  -17.1782   23.1981 C.ar    1  UNL1        0.0333
     11 C          -6.6770  -17.7322   22.7176 C.ar    1  UNL1        0.0028
     12 C          -5.3886  -17.1082   23.1655 C.ar    1  UNL1        0.0002
     13 C          -4.0802  -17.6622   22.6850 C.ar    1  UNL1        0.0029
     14 C          -4.0601  -18.8402   21.7566 C.ar    1  UNL1        0.0347
     15 C          -2.7515  -19.3942   21.2761 C.ar    1  UNL1        0.1501
     16 N          -2.7314  -20.5722   20.3477 N.ar    1  UNL1       -0.1331
     17 N          -4.0199  -21.1962   19.8998 N.ar    1  UNL1       -0.1452
     18 C          -5.3284  -20.6422   20.3803 C.ar    1  UNL1        0.1222
     19 C          -5.3485  -19.4642   21.3087 C.ar    1  UNL1        0.0237
     20 C          -6.6569  -18.9102   21.7892 C.ar    1  UNL1        0.0018
     21 N          -1.4631  -18.7703   21.7240 N.pl3   1  UNL1       -0.3183
     22 H          -0.9983  -19.1176   22.5193 H       1  UNL1        0.1482
     23 C          -0.8829  -17.6170   20.9601 C.3     1  UNL1        0.0705
     24 C           0.1774  -17.8592   19.9271 C.3     1  UNL1        0.0212
     25 C          -1.3629  -16.2217   21.2293 C.3     1  UNL1        0.0212
     26 N         -13.1543  -17.6431   22.5824 N.pl3   1  UNL1       -0.3171
     27 H         -13.6688  -17.1969   21.8716 H       1  UNL1        0.1482
     28 C         -13.8411  -18.0859   23.8403 C.3     1  UNL1        0.0706
     29 C         -13.7756  -18.4841   25.2850 C.3     1  UNL1        0.0212
     30 C         -15.0962  -18.4548   24.5742 C.3     1  UNL1        0.0212
@<TRIPOS>BOND
     1     1     2    1
     2     2     3   ar
     3     3     4   ar
     4     4     5   ar
     5     5     6   ar
     6     6    26    1
     7    26    28    1
     8    28    29    1
     9    29    30    1
    10     6     7   ar
    11     7     8   ar
    12     8     9   ar
    13     9    10   ar
    14    10    11    1
    15    11    12   ar
    16    12    13   ar
    17    13    14   ar
    18    14    15   ar
    19    15    21    1
    20    21    23    1
    21    23    24    1
    22    23    25    1
    23    15    16   ar
    24    16    17   ar
    25    17    18   ar
    26    18    19   ar
    27    19    20   ar
    28    10     2   ar
    29    20    11   ar
    30     9     5   ar
    31    19    14   ar
    32    30    28    1
    33    26    27    1
    34    21    22    1
@<TRIPOS>MOLECULE
*****
 30 34 0 0 0
SMALL
GASTEIGER

@<TRIPOS>ATOM
      1 C          -0.6378    5.6894   19.8108 C.3     1  UNL1        0.0311
      2 C           0.0166    4.3555   19.6049 C.ar    1  UNL1       -0.0188
      3 C           1.2042    4.2350   18.6964 C.ar    1  UNL1       -0.0040
      4 C           1.8586    2.9010   18.4905 C.ar    1  UNL1        0.0057
      5 C           1.3254    1.6877   19.1931 C.ar    1  UNL1        0.0717
      6 C           1.7589    0.2517   19.1851 C.ar    1  UNL1        0.1704
      7 N           0.8394   -0.5152   20.0885 N.ar    1  UNL1       -0.0621
      8 O          -0.1625    0.4468   20.6549 O.2     1  UNL1       -0.3522
      9 C           0.1379    1.8082   20.1015 C.ar    1  UNL1        0.1777
     10 C          -0.5165    3.1422   20.3074 C.ar    1  UNL1        0.0333
     11 C          -1.7041    3.2627   21.2159 C.ar    1  UNL1        0.0028
     12 C          -3.0910    3.2302   20.6455 C.ar    1  UNL1        0.0002
     13 C          -4.2785    3.3507   21.5540 C.ar    1  UNL1        0.0029
     14 C          -4.0790    3.5038   23.0328 C.ar    1  UNL1        0.0347
     15 C          -5.2666    3.6244   23.9412 C.ar    1  UNL1        0.1501
     16 N          -5.0671    3.7774   25.4200 N.ar    1  UNL1       -0.1331
     17 N          -3.6801    3.8100   25.9903 N.ar    1  UNL1       -0.1452
     18 C          -2.4926    3.6894   25.0819 C.ar    1  UNL1        0.1222
     19 C          -2.6921    3.5363   23.6031 C.ar    1  UNL1        0.0237
     20 C          -1.5046    3.4158   22.6946 C.ar    1  UNL1        0.0018
     21 N          -6.6535    3.5918   23.3709 N.pl3   1  UNL1       -0.3183
     22 H          -7.0814    2.7292   23.1660 H       1  UNL1        0.1482
     23 C          -7.3886    4.8737   23.1128 C.3     1  UNL1        0.0705
     24 C          -7.2564    5.5600   21.7857 C.3     1  UNL1        0.0212
     25 C          -8.2560    5.4692   24.1820 C.3     1  UNL1        0.0212
     26 N           2.9099   -0.3174   18.4097 N.pl3   1  UNL1       -0.3171
     27 H           3.2526    0.1569   17.6180 H       1  UNL1        0.1482
     28 C           3.5389   -1.6092   18.8406 C.3     1  UNL1        0.0706
     29 C           4.6298   -2.6303   18.7092 C.3     1  UNL1        0.0212
     30 C           3.5374   -2.8255   19.7184 C.3     1  UNL1        0.0212
@<TRIPOS>BOND
     1     1     2    1
     2     2     3   ar
     3     3     4   ar
     4     4     5   ar
     5     5     6   ar
     6     6    26    1
     7    26    28    1
     8    28    29    1
     9    29    30    1
    10     6     7   ar
    11     7     8   ar
    12     8     9   ar
    13     9    10   ar
    14    10    11    1
    15    11    12   ar
    16    12    13   ar
    17    13    14   ar
    18    14    15   ar
    19    15    21    1
    20    21    23    1
    21    23    24    1
    22    23    25    1
    23    15    16   ar
    24    16    17   ar
    25    17    18   ar
    26    18    19   ar
    27    19    20   ar
    28    10     2   ar
    29    20    11   ar
    30     9     5   ar
    31    19    14   ar
    32    30    28    1
    33    26    27    1
    34    21    22    1
@<TRIPOS>MOLECULE
*****
 30 34 0 0 0
SMALL
GASTEIGER

@<TRIPOS>ATOM
      1 C           2.1624    0.7063   23.7387 C.3     1  UNL1        0.0311
      2 C           1.0253    1.5268   23.2059 C.ar    1  UNL1       -0.0188
      3 C           0.1082    2.2420   24.1533 C.ar    1  UNL1       -0.0040
      4 C          -1.0289    3.0625   23.6205 C.ar    1  UNL1        0.0057
      5 C          -1.2488    3.1677   22.1404 C.ar    1  UNL1        0.0717
      6 C          -2.2774    3.8971   21.3279 C.ar    1  UNL1        0.1704
      7 N          -1.9959    3.6326   19.8785 N.ar    1  UNL1       -0.0621
      8 O          -0.7935    2.7399   19.7952 O.2     1  UNL1       -0.3522
      9 C          -0.3317    2.4525   21.1932 C.ar    1  UNL1        0.1777
     10 C           0.8054    1.6321   21.7259 C.ar    1  UNL1        0.0333
     11 C           1.7225    0.9168   20.7786 C.ar    1  UNL1        0.0028
     12 C           1.6145   -0.5696   20.6087 C.ar    1  UNL1        0.0002
     13 C           2.5316   -1.2847   19.6614 C.ar    1  UNL1        0.0029
     14 C           3.5567   -0.5135   18.8840 C.ar    1  UNL1        0.0347
     15 C           4.4739   -1.2287   17.9366 C.ar    1  UNL1        0.1501
     16 N           5.4990   -0.4574   17.1592 N.ar    1  UNL1       -0.1331
     17 N           5.6069    1.0290   17.3292 N.ar    1  UNL1       -0.1452
     18 C           4.6898    1.7442   18.2765 C.ar    1  UNL1        0.1222
     19 C           3.6647    0.9729   19.0539 C.ar    1  UNL1        0.0237
     20 C           2.7476    1.6881   20.0012 C.ar    1  UNL1        0.0018
     21 N           4.3659   -2.7151   17.7667 N.pl3   1  UNL1       -0.3183
     22 H           3.8461   -3.0886   17.0187 H       1  UNL1        0.1482
     23 C           5.0499   -3.6325   18.7365 C.3     1  UNL1        0.0705
     24 C           6.2245   -3.1434   19.5308 C.3     1  UNL1        0.0212
     25 C           4.5592   -5.0391   18.9121 C.3     1  UNL1        0.0212
     26 N          -3.3917    4.7424   21.8697 N.pl3   1  UNL1       -0.3171
     27 H          -3.4152    5.7078   21.6779 H       1  UNL1        0.1482
     28 C          -4.4702    4.1170   22.7038 C.3     1  UNL1        0.0706
     29 C          -5.9254    3.9075   23.0012 C.3     1  UNL1        0.0212
     30 C          -4.8830    3.2433   23.8510 C.3     1  UNL1        0.0212
@<TRIPOS>BOND
     1     1     2    1
     2     2     3   ar
     3     3     4   ar
     4     4     5   ar
     5     5     6   ar
     6     6    26    1
     7    26    28    1
     8    28    29    1
     9    29    30    1
    10     6     7   ar
    11     7     8   ar
    12     8     9   ar
    13     9    10   ar
    14    10    11    1
    15    11    12   ar
    16    12    13   ar
    17    13    14   ar
    18    14    15   ar
    19    15    21    1
    20    21    23    1
    21    23    24    1
    22    23    25    1
    23    15    16   ar
    24    16    17   ar
    25    17    18   ar
    26    18    19   ar
    27    19    20   ar
    28    10     2   ar
    29    20    11   ar
    30     9     5   ar
    31    19    14   ar
    32    30    28    1
    33    26    27    1
    34    21    22    1
@<TRIPOS>MOLECULE
*****
 30 34 0 0 0
SMALL
GASTEIGER

@<TRIPOS>ATOM
      1 C          -0.4526    2.7587   19.7600 C.3     1  UNL1        0.0311
      2 C          -0.2912    2.5596   21.2379 C.ar    1  UNL1       -0.0188
      3 C          -1.2016    3.2713   22.1944 C.ar    1  UNL1       -0.0040
      4 C          -1.0402    3.0722   23.6723 C.ar    1  UNL1        0.0057
      5 C           0.0316    2.1614   24.1938 C.ar    1  UNL1        0.0717
      6 C           0.4275    1.7719   25.5872 C.ar    1  UNL1        0.1704
      7 N           1.5823    0.8196   25.4919 N.ar    1  UNL1       -0.0621
      8 O           1.9003    0.6205   24.0396 O.2     1  UNL1       -0.3522
      9 C           0.9419    1.4498   23.2373 C.ar    1  UNL1        0.1777
     10 C           0.7805    1.6489   21.7594 C.ar    1  UNL1        0.0333
     11 C           1.6909    0.9372   20.8029 C.ar    1  UNL1        0.0028
     12 C           1.5861   -0.5495   20.6331 C.ar    1  UNL1        0.0002
     13 C           2.4964   -1.2611   19.6766 C.ar    1  UNL1        0.0029
     14 C           3.5115   -0.4860   18.8899 C.ar    1  UNL1        0.0347
     15 C           4.4219   -1.1977   17.9334 C.ar    1  UNL1        0.1501
     16 N           5.4370   -0.4227   17.1468 N.ar    1  UNL1       -0.1331
     17 N           5.5417    1.0641   17.3166 N.ar    1  UNL1       -0.1452
     18 C           4.6314    1.7757   18.2730 C.ar    1  UNL1        0.1222
     19 C           3.6163    1.0006   19.0597 C.ar    1  UNL1        0.0237
     20 C           2.7060    1.7122   20.0162 C.ar    1  UNL1        0.0018
     21 N           4.3171   -2.6844   17.7637 N.pl3   1  UNL1       -0.3183
     22 H           3.7932   -3.0591   17.0191 H       1  UNL1        0.1482
     23 C           5.0106   -3.6001   18.7283 C.3     1  UNL1        0.0705
     24 C           4.5062   -4.9983   18.9299 C.3     1  UNL1        0.0212
     25 C           6.2086   -3.1177   19.4913 C.3     1  UNL1        0.0212
     26 N          -0.2183    2.2507   26.8535 N.pl3   1  UNL1       -0.3171
     27 H          -0.4930    3.1921   26.9406 H       1  UNL1        0.1482
     28 C          -0.4455    1.2952   27.9873 C.3     1  UNL1        0.0706
     29 C          -1.2169    0.1622   28.5965 C.3     1  UNL1        0.0212
     30 C          -0.0676    0.7733   29.3419 C.3     1  UNL1        0.0212
@<TRIPOS>BOND
     1     1     2    1
     2     2     3   ar
     3     3     4   ar
     4     4     5   ar
     5     5     6   ar
     6     6    26    1
     7    26    28    1
     8    28    29    1
     9    29    30    1
    10     6     7   ar
    11     7     8   ar
    12     8     9   ar
    13     9    10   ar
    14    10    11    1
    15    11    12   ar
    16    12    13   ar
    17    13    14   ar
    18    14    15   ar
    19    15    21    1
    20    21    23    1
    21    23    24    1
    22    23    25    1
    23    15    16   ar
    24    16    17   ar
    25    17    18   ar
    26    18    19   ar
    27    19    20   ar
    28    10     2   ar
    29    20    11   ar
    30     9     5   ar
    31    19    14   ar
    32    30    28    1
    33    26    27    1
    34    21    22    1
@<TRIPOS>MOLECULE
*****
 30 34 0 0 0
SMALL
GASTEIGER

@<TRIPOS>ATOM
      1 C         -10.9641   -2.9858   18.8626 C.3     1  UNL1        0.0311
      2 C         -11.9480   -4.1131   18.9684 C.ar    1  UNL1       -0.0188
      3 C         -11.4630   -5.5324   18.9895 C.ar    1  UNL1       -0.0040
      4 C         -12.4469   -6.6596   19.0954 C.ar    1  UNL1        0.0057
      5 C         -13.9158   -6.3676   19.1802 C.ar    1  UNL1        0.0717
      6 C         -15.1128   -7.2647   19.2914 C.ar    1  UNL1        0.1704
      7 N         -16.3374   -6.4000   19.3391 N.ar    1  UNL1       -0.0621
      8 O         -15.8974   -4.9683   19.2573 O.2     1  UNL1       -0.3522
      9 C         -14.4007   -4.9483   19.1591 C.ar    1  UNL1        0.1777
     10 C         -13.4168   -3.8210   19.0533 C.ar    1  UNL1        0.0333
     11 C         -13.9018   -2.4017   19.0322 C.ar    1  UNL1        0.0028
     12 C         -15.1744   -2.0335   19.7356 C.ar    1  UNL1        0.0002
     13 C         -15.6593   -0.6142   19.7146 C.ar    1  UNL1        0.0029
     14 C         -14.8716    0.4368   18.9901 C.ar    1  UNL1        0.0347
     15 C         -15.3566    1.8562   18.9690 C.ar    1  UNL1        0.1501
     16 N         -14.5689    2.9072   18.2445 N.ar    1  UNL1       -0.1331
     17 N         -13.2963    2.5389   17.5410 N.ar    1  UNL1       -0.1452
     18 C         -12.8114    1.1196   17.5621 C.ar    1  UNL1        0.1222
     19 C         -13.5990    0.0686   18.2866 C.ar    1  UNL1        0.0237
     20 C         -13.1141   -1.3507   18.3077 C.ar    1  UNL1        0.0018
     21 N         -16.6292    2.2244   19.6724 N.pl3   1  UNL1       -0.3183
     22 H         -17.4937    2.1193   19.2132 H       1  UNL1        0.1482
     23 C         -16.5847    2.7529   21.0756 C.3     1  UNL1        0.0705
     24 C         -17.3117    2.0322   22.1719 C.3     1  UNL1        0.0212
     25 C         -15.8131    4.0021   21.3824 C.3     1  UNL1        0.0212
     26 N         -15.0892   -8.7635   19.3454 N.pl3   1  UNL1       -0.3171
     27 H         -14.2413   -9.2370   19.5076 H       1  UNL1        0.1482
     28 C         -16.3573   -9.5411   19.1525 C.3     1  UNL1        0.0706
     29 C         -17.0743  -10.7450   18.6171 C.3     1  UNL1        0.0212
     30 C         -17.8369   -9.6839   19.3536 C.3     1  UNL1        0.0212
@<TRIPOS>BOND
     1     1     2    1
     2     2     3   ar
     3     3     4   ar
     4     4     5   ar
     5     5     6   ar
     6     6    26    1
     7    26    28    1
     8    28    29    1
     9    29    30    1
    10     6     7   ar
    11     7     8   ar
    12     8     9   ar
    13     9    10   ar
    14    10    11    1
    15    11    12   ar
    16    12    13   ar
    17    13    14   ar
    18    14    15   ar
    19    15    21    1
    20    21    23    1
    21    23    24    1
    22    23    25    1
    23    15    16   ar
    24    16    17   ar
    25    17    18   ar
    26    18    19   ar
    27    19    20   ar
    28    10     2   ar
    29    20    11   ar
    30     9     5   ar
    31    19    14   ar
    32    30    28    1
    33    26    27    1
    34    21    22    1
