@<TRIPOS>MOLECULE
*****
 33 36 0 0 0
SMALL
GASTEIGER

@<TRIPOS>ATOM
      1 C          -9.0767  -18.7054   20.9928 C.ar    1  UNL1        0.0949
      2 C          -9.6818  -19.1695   19.7011 C.ar    1  UNL1        0.1454
      3 F         -11.0661  -18.7337   19.3220 F       1  UNL1       -0.2040
      4 C          -8.9025  -20.0693   18.7885 C.ar    1  UNL1        0.0312
      5 C          -7.5182  -20.5051   19.1675 C.ar    1  UNL1        0.0204
      6 C          -6.9131  -20.0411   20.4592 C.ar    1  UNL1        0.0924
      7 C          -7.6924  -19.1412   21.3718 C.ar    1  UNL1        0.1598
      8 F          -7.0873  -18.6771   22.6635 F       1  UNL1       -0.2026
      9 C          -9.8560  -17.8055   21.9055 C.2     1  UNL1        0.2006
     10 O         -10.6924  -16.6996   21.3334 O.2     1  UNL1       -0.2866
     11 C          -8.1882  -15.9436   24.1907 C.2     1  UNL1        0.0659
     12 C          -7.5508  -15.2932   25.3825 C.2     1  UNL1        0.0573
     13 C          -7.7710  -15.8602   26.7537 C.2     1  UNL1        0.2361
     14 N          -8.6287  -17.0777   26.9329 N.2     1  UNL1       -0.0340
     15 C          -9.2661  -17.7281   25.7410 C.2     1  UNL1        0.3601
     16 N         -10.1551  -18.9290   25.6086 N.2     1  UNL1       -0.0342
     17 C         -10.4843  -19.1042   24.1557 C.2     1  UNL1        0.2354
     18 C          -9.7987  -18.0115   23.3902 C.2     1  UNL1        0.0799
     19 C          -9.0458  -17.1611   24.3699 C.3     1  UNL1        0.1729
     20 N          -7.7477  -14.8095   21.4484 N.1     1  UNL1       -0.1911
     21 C          -7.9680  -15.3765   22.8195 C.1     1  UNL1        0.0971
     22 N          -5.5287  -20.4769   20.8382 N.pl3   1  UNL1       -0.2127
     23 H          -5.3665  -21.4036   21.1282 H       1  UNL1        0.1738
     24 S          -4.3916  -19.5007   20.7754 S.O2    1  UNL1        0.0758
     25 O          -3.7032  -20.2308   21.8903 O.2     1  UNL1       -0.1499
     26 O          -5.0800  -18.7706   19.6605 O.2     1  UNL1       -0.1499
     27 C          -3.2545  -18.5245   20.7124 C.ar    1  UNL1        0.1524
     28 C          -2.2542  -18.6090   19.5978 C.ar    1  UNL1        0.0225
     29 C          -1.1171  -17.6328   19.5348 C.ar    1  UNL1        0.0015
     30 C          -0.9802  -16.5720   20.5865 C.ar    1  UNL1        0.0024
     31 C          -1.9804  -16.4875   21.7011 C.ar    1  UNL1        0.0310
     32 C          -3.1176  -17.4637   21.7641 C.ar    1  UNL1        0.1589
     33 F          -4.1177  -17.3791   22.8788 F       1  UNL1       -0.2027
@<TRIPOS>BOND
     1    20    21    3
     2    21    11    1
     3    11    12    2
     4    12    13    1
     5    13    14    2
     6    14    15    1
     7    15    16    2
     8    16    17    1
     9    17    18    2
    10    18     9    1
    11     9    10    2
    12     9     1    1
    13     1     2   ar
    14     2     3    1
    15     2     4   ar
    16     4     5   ar
    17     5     6   ar
    18     6    22    1
    19    22    24    1
    20    24    25    2
    21    24    26    2
    22    24    27    1
    23    27    28   ar
    24    28    29   ar
    25    29    30   ar
    26    30    31   ar
    27    31    32   ar
    28    32    33    1
    29     6     7   ar
    30     7     8    1
    31    18    19    1
    32    19    11    1
    33    19    15    1
    34     7     1   ar
    35    32    27   ar
    36    22    23    1
@<TRIPOS>MOLECULE
*****
 33 36 0 0 0
SMALL
GASTEIGER

@<TRIPOS>ATOM
      1 C          -8.9927  -18.3948   21.1804 C.ar    1  UNL1        0.0949
      2 C          -9.6958  -18.8597   19.9397 C.ar    1  UNL1        0.1454
      3 F         -11.0742  -18.3579   19.6261 F       1  UNL1       -0.2040
      4 C          -9.0206  -19.8263   19.0126 C.ar    1  UNL1        0.0312
      5 C          -7.6422  -20.3280   19.3261 C.ar    1  UNL1        0.0204
      6 C          -6.9390  -19.8631   20.5668 C.ar    1  UNL1        0.0924
      7 C          -7.6143  -18.8965   21.4940 C.ar    1  UNL1        0.1598
      8 F          -6.9112  -18.4316   22.7348 F       1  UNL1       -0.2026
      9 C          -9.6679  -17.4281   22.1077 C.2     1  UNL1        0.2006
     10 O         -11.1642  -17.4086   22.2109 O.2     1  UNL1       -0.2866
     11 C          -9.1948  -17.4773   25.4609 C.2     1  UNL1        0.0659
     12 C          -8.8317  -17.2811   26.9030 C.2     1  UNL1        0.0573
     13 C          -7.9367  -16.1459   27.3033 C.2     1  UNL1        0.2361
     14 N          -7.4048  -15.2069   26.2616 N.2     1  UNL1       -0.0340
     15 C          -7.7679  -15.4030   24.8196 C.2     1  UNL1        0.3601
     16 N          -7.3987  -14.6443   23.5794 N.2     1  UNL1       -0.0342
     17 C          -8.0655  -15.3105   22.4126 C.2     1  UNL1        0.2354
     18 C          -8.8468  -16.4810   22.9316 C.2     1  UNL1        0.0799
     19 C          -8.6629  -16.5382   24.4192 C.3     1  UNL1        0.1729
     20 N         -10.9848  -19.7476   24.6601 N.1     1  UNL1       -0.1911
     21 C         -10.0898  -18.6125   25.0605 C.1     1  UNL1        0.0971
     22 N          -5.5606  -20.3649   20.8804 N.pl3   1  UNL1       -0.2127
     23 H          -5.4272  -21.3030   21.1476 H       1  UNL1        0.1738
     24 S          -4.3856  -19.4373   20.7867 S.O2    1  UNL1        0.0758
     25 O          -3.7496  -20.1247   21.9585 O.2     1  UNL1       -0.1499
     26 O          -5.0215  -18.7499   19.6150 O.2     1  UNL1       -0.1499
     27 C          -3.2105  -18.5098   20.6930 C.ar    1  UNL1        0.1524
     28 C          -2.2239  -18.6599   19.5731 C.ar    1  UNL1        0.0225
     29 C          -1.0488  -17.7324   19.4793 C.ar    1  UNL1        0.0015
     30 C          -0.8603  -16.6546   20.5053 C.ar    1  UNL1        0.0024
     31 C          -1.8469  -16.5044   21.6252 C.ar    1  UNL1        0.0310
     32 C          -3.0220  -17.4320   21.7191 C.ar    1  UNL1        0.1589
     33 F          -4.0085  -17.2818   22.8390 F       1  UNL1       -0.2027
@<TRIPOS>BOND
     1    20    21    3
     2    21    11    1
     3    11    12    2
     4    12    13    1
     5    13    14    2
     6    14    15    1
     7    15    16    2
     8    16    17    1
     9    17    18    2
    10    18     9    1
    11     9    10    2
    12     9     1    1
    13     1     2   ar
    14     2     3    1
    15     2     4   ar
    16     4     5   ar
    17     5     6   ar
    18     6    22    1
    19    22    24    1
    20    24    25    2
    21    24    26    2
    22    24    27    1
    23    27    28   ar
    24    28    29   ar
    25    29    30   ar
    26    30    31   ar
    27    31    32   ar
    28    32    33    1
    29     6     7   ar
    30     7     8    1
    31    18    19    1
    32    19    11    1
    33    19    15    1
    34     7     1   ar
    35    32    27   ar
    36    22    23    1
@<TRIPOS>MOLECULE
*****
 33 36 0 0 0
SMALL
GASTEIGER

@<TRIPOS>ATOM
      1 C          -8.6568  -18.8101   20.8284 C.ar    1  UNL1        0.0949
      2 C          -9.4092  -19.3661   19.6559 C.ar    1  UNL1        0.1454
      3 F         -10.8278  -18.9465   19.4078 F       1  UNL1       -0.2040
      4 C          -8.7430  -20.3416   18.7316 C.ar    1  UNL1        0.0312
      5 C          -7.3244  -20.7612   18.9796 C.ar    1  UNL1        0.0204
      6 C          -6.5720  -20.2052   20.1522 C.ar    1  UNL1        0.0924
      7 C          -7.2382  -19.2297   21.0765 C.ar    1  UNL1        0.1598
      8 F          -6.4858  -18.6737   22.2491 F       1  UNL1       -0.2026
      9 C          -9.3230  -17.8345   21.7529 C.2     1  UNL1        0.2006
     10 O          -9.3221  -16.3707   21.4256 O.2     1  UNL1       -0.2866
     11 C         -12.5941  -17.5755   22.5911 C.2     1  UNL1        0.0659
     12 C         -13.9699  -17.5891   23.1885 C.2     1  UNL1        0.0573
     13 C         -14.1979  -18.2149   24.5325 C.2     1  UNL1        0.2361
     14 N         -13.0500  -18.8270   25.2792 N.2     1  UNL1       -0.0340
     15 C         -11.6742  -18.8134   24.6819 C.2     1  UNL1        0.3601
     16 N         -10.3588  -19.3353   25.1792 N.2     1  UNL1       -0.0342
     17 C          -9.3179  -19.0322   24.1426 C.2     1  UNL1        0.2354
     18 C          -9.9900  -18.3229   23.0045 C.2     1  UNL1        0.0799
     19 C         -11.4462  -18.1876   23.3378 C.3     1  UNL1        0.1729
     20 N         -12.1383  -16.3240   19.9030 N.1     1  UNL1       -0.1911
     21 C         -12.3662  -16.9497   21.2471 C.1     1  UNL1        0.0971
     22 N          -5.1534  -20.6248   20.4002 N.pl3   1  UNL1       -0.2127
     23 H          -4.9383  -21.5754   20.5389 H       1  UNL1        0.1738
     24 S          -4.0625  -19.5959   20.4370 S.O2    1  UNL1        0.0758
     25 O          -3.3231  -20.4161   21.4522 O.2     1  UNL1       -0.1499
     26 O          -4.8019  -18.7756   19.4219 O.2     1  UNL1       -0.1499
     27 C          -2.9717  -18.5670   20.4738 C.ar    1  UNL1        0.1524
     28 C          -1.9458  -18.5221   19.3803 C.ar    1  UNL1        0.0225
     29 C          -0.8549  -17.4932   19.4170 C.ar    1  UNL1        0.0015
     30 C          -0.7899  -16.5091   20.5471 C.ar    1  UNL1        0.0024
     31 C          -1.8158  -16.5539   21.6406 C.ar    1  UNL1        0.0310
     32 C          -2.9066  -17.5828   21.6039 C.ar    1  UNL1        0.1589
     33 F          -3.9325  -17.6276   22.6974 F       1  UNL1       -0.2027
@<TRIPOS>BOND
     1    20    21    3
     2    21    11    1
     3    11    12    2
     4    12    13    1
     5    13    14    2
     6    14    15    1
     7    15    16    2
     8    16    17    1
     9    17    18    2
    10    18     9    1
    11     9    10    2
    12     9     1    1
    13     1     2   ar
    14     2     3    1
    15     2     4   ar
    16     4     5   ar
    17     5     6   ar
    18     6    22    1
    19    22    24    1
    20    24    25    2
    21    24    26    2
    22    24    27    1
    23    27    28   ar
    24    28    29   ar
    25    29    30   ar
    26    30    31   ar
    27    31    32   ar
    28    32    33    1
    29     6     7   ar
    30     7     8    1
    31    18    19    1
    32    19    11    1
    33    19    15    1
    34     7     1   ar
    35    32    27   ar
    36    22    23    1
@<TRIPOS>MOLECULE
*****
 33 36 0 0 0
SMALL
GASTEIGER

@<TRIPOS>ATOM
      1 C          -7.3068  -17.2674   23.0215 C.ar    1  UNL1        0.0949
      2 C          -7.6088  -15.9723   23.7155 C.ar    1  UNL1        0.1454
      3 F          -9.0219  -15.4756   23.7946 F       1  UNL1       -0.2040
      4 C          -6.4976  -15.1741   24.3303 C.ar    1  UNL1        0.0312
      5 C          -5.0845  -15.6708   24.2512 C.ar    1  UNL1        0.0204
      6 C          -4.7825  -16.9659   23.5572 C.ar    1  UNL1        0.0924
      7 C          -5.8936  -17.7641   22.9423 C.ar    1  UNL1        0.1598
      8 F          -5.5917  -19.0592   22.2483 F       1  UNL1       -0.2026
      9 C          -8.4180  -18.0657   22.4065 C.2     1  UNL1        0.2006
     10 O          -8.4535  -18.2824   20.9228 O.2     1  UNL1       -0.2866
     11 C         -11.6653  -17.1219   22.5918 C.2     1  UNL1        0.0659
     12 C         -13.1247  -16.9002   22.8580 C.2     1  UNL1        0.0573
     13 C         -13.8427  -17.7552   23.8597 C.2     1  UNL1        0.2361
     14 N         -13.1013  -18.8319   24.5952 N.2     1  UNL1       -0.0340
     15 C         -11.6419  -19.0536   24.3290 C.2     1  UNL1        0.3601
     16 N         -10.6552  -20.0307   24.8963 N.2     1  UNL1       -0.0342
     17 C          -9.3274  -19.7796   24.2452 C.2     1  UNL1        0.2354
     18 C          -9.4935  -18.6473   23.2755 C.2     1  UNL1        0.0799
     19 C         -10.9239  -18.1985   23.3273 C.3     1  UNL1        0.1729
     20 N         -10.2293  -15.4118   20.5884 N.1     1  UNL1       -0.1911
     21 C         -10.9473  -16.2669   21.5901 C.1     1  UNL1        0.0971
     22 N          -3.3693  -17.4626   23.4780 N.pl3   1  UNL1       -0.2127
     23 H          -2.8913  -17.7200   24.2993 H       1  UNL1        0.1738
     24 S          -2.6846  -17.5673   22.1476 S.O2    1  UNL1        0.0758
     25 O          -2.8281  -16.0864   21.9572 O.2     1  UNL1       -0.1499
     26 O          -2.5410  -19.0482   22.3380 O.2     1  UNL1       -0.1499
     27 C          -1.9998  -17.6721   20.8172 C.ar    1  UNL1        0.1524
     28 C          -0.5370  -17.3613   20.7000 C.ar    1  UNL1        0.0225
     29 C           0.1479  -17.4660   19.3696 C.ar    1  UNL1        0.0015
     30 C          -0.6300  -17.8816   18.1563 C.ar    1  UNL1        0.0024
     31 C          -2.0928  -18.1924   18.2735 C.ar    1  UNL1        0.0310
     32 C          -2.7777  -18.0876   19.6039 C.ar    1  UNL1        0.1589
     33 F          -4.2405  -18.3985   19.7209 F       1  UNL1       -0.2027
@<TRIPOS>BOND
     1    20    21    3
     2    21    11    1
     3    11    12    2
     4    12    13    1
     5    13    14    2
     6    14    15    1
     7    15    16    2
     8    16    17    1
     9    17    18    2
    10    18     9    1
    11     9    10    2
    12     9     1    1
    13     1     2   ar
    14     2     3    1
    15     2     4   ar
    16     4     5   ar
    17     5     6   ar
    18     6    22    1
    19    22    24    1
    20    24    25    2
    21    24    26    2
    22    24    27    1
    23    27    28   ar
    24    28    29   ar
    25    29    30   ar
    26    30    31   ar
    27    31    32   ar
    28    32    33    1
    29     6     7   ar
    30     7     8    1
    31    18    19    1
    32    19    11    1
    33    19    15    1
    34     7     1   ar
    35    32    27   ar
    36    22    23    1
@<TRIPOS>MOLECULE
*****
 33 36 0 0 0
SMALL
GASTEIGER

@<TRIPOS>ATOM
      1 C         -10.1138  -18.0300   22.3624 C.ar    1  UNL1        0.0949
      2 C         -11.3463  -18.8523   22.1283 C.ar    1  UNL1        0.1454
      3 F         -12.6194  -18.5170   22.8471 F       1  UNL1       -0.2040
      4 C         -11.3056  -20.0098   21.1752 C.ar    1  UNL1        0.0312
      5 C         -10.0325  -20.3451   20.4564 C.ar    1  UNL1        0.0204
      6 C          -8.8000  -19.5228   20.6905 C.ar    1  UNL1        0.0924
      7 C          -8.8407  -18.3653   21.6435 C.ar    1  UNL1        0.1598
      8 F          -7.6082  -17.5429   21.8778 F       1  UNL1       -0.2026
      9 C         -10.1544  -16.8723   23.3155 C.2     1  UNL1        0.2006
     10 O         -10.9466  -15.6458   22.9722 O.2     1  UNL1       -0.2866
     11 C          -7.2322  -15.3491   24.0973 C.2     1  UNL1        0.0659
     12 C          -5.9679  -14.7945   24.6836 C.2     1  UNL1        0.0573
     13 C          -5.5790  -15.1399   26.0905 C.2     1  UNL1        0.2361
     14 N          -6.4545  -16.0400   26.9111 N.2     1  UNL1       -0.0340
     15 C          -7.7188  -16.5947   26.3248 C.2     1  UNL1        0.3601
     16 N          -8.7736  -17.5002   26.8882 N.2     1  UNL1       -0.0342
     17 C          -9.8144  -17.7145   25.8295 C.2     1  UNL1        0.2354
     18 C          -9.4028  -16.9413   24.6118 C.2     1  UNL1        0.0799
     19 C          -8.1077  -16.2492   24.9179 C.3     1  UNL1        0.1729
     20 N          -8.0100  -14.6583   21.2835 N.1     1  UNL1       -0.1911
     21 C          -7.6211  -15.0037   22.6904 C.1     1  UNL1        0.0971
     22 N          -7.5269  -19.8581   19.9716 N.pl3   1  UNL1       -0.2127
     23 H          -7.5600  -20.2784   19.0820 H       1  UNL1        0.1738
     24 S          -6.2034  -19.5530   20.6083 S.O2    1  UNL1        0.0758
     25 O          -5.9845  -18.4444   19.6219 O.2     1  UNL1       -0.1499
     26 O          -6.4223  -20.6617   21.5947 O.2     1  UNL1       -0.1499
     27 C          -4.8800  -19.2480   21.2449 C.ar    1  UNL1        0.1524
     28 C          -4.8189  -18.3905   22.4742 C.ar    1  UNL1        0.0225
     29 C          -3.4955  -18.0854   23.1110 C.ar    1  UNL1        0.0015
     30 C          -2.2330  -18.6379   22.5185 C.ar    1  UNL1        0.0024
     31 C          -2.2941  -19.4954   21.2893 C.ar    1  UNL1        0.0310
     32 C          -3.6175  -19.8005   20.6525 C.ar    1  UNL1        0.1589
     33 F          -3.6785  -20.6580   19.4233 F       1  UNL1       -0.2027
@<TRIPOS>BOND
     1    20    21    3
     2    21    11    1
     3    11    12    2
     4    12    13    1
     5    13    14    2
     6    14    15    1
     7    15    16    2
     8    16    17    1
     9    17    18    2
    10    18     9    1
    11     9    10    2
    12     9     1    1
    13     1     2   ar
    14     2     3    1
    15     2     4   ar
    16     4     5   ar
    17     5     6   ar
    18     6    22    1
    19    22    24    1
    20    24    25    2
    21    24    26    2
    22    24    27    1
    23    27    28   ar
    24    28    29   ar
    25    29    30   ar
    26    30    31   ar
    27    31    32   ar
    28    32    33    1
    29     6     7   ar
    30     7     8    1
    31    18    19    1
    32    19    11    1
    33    19    15    1
    34     7     1   ar
    35    32    27   ar
    36    22    23    1
@<TRIPOS>MOLECULE
*****
 33 36 0 0 0
SMALL
GASTEIGER

@<TRIPOS>ATOM
      1 C          -7.6550  -17.4775   22.8098 C.ar    1  UNL1        0.0949
      2 C          -7.9338  -16.2690   23.6535 C.ar    1  UNL1        0.1454
      3 F          -9.3223  -15.7054   23.7210 F       1  UNL1       -0.2040
      4 C          -6.8240  -15.6241   24.4297 C.ar    1  UNL1        0.0312
      5 C          -5.4356  -16.1876   24.3622 C.ar    1  UNL1        0.0204
      6 C          -5.1568  -17.3961   23.5185 C.ar    1  UNL1        0.0924
      7 C          -6.2665  -18.0410   22.7423 C.ar    1  UNL1        0.1598
      8 F          -5.9879  -19.2495   21.8986 F       1  UNL1       -0.2026
      9 C          -8.7648  -18.1225   22.0335 C.2     1  UNL1        0.2006
     10 O          -8.5314  -19.4305   21.3376 O.2     1  UNL1       -0.2866
     11 C         -11.5101  -18.7742   23.9067 C.2     1  UNL1        0.0659
     12 C         -12.8422  -18.8680   24.5898 C.2     1  UNL1        0.0573
     13 C         -13.9652  -17.9664   24.1705 C.2     1  UNL1        0.2361
     14 N         -13.7562  -16.9710   23.0681 N.2     1  UNL1       -0.0340
     15 C         -12.4242  -16.8772   22.3849 C.2     1  UNL1        0.3601
     16 N         -11.9250  -16.0005   21.2748 N.2     1  UNL1       -0.0342
     17 C         -10.4934  -16.3603   21.0081 C.2     1  UNL1        0.2354
     18 C         -10.1078  -17.4593   21.9533 C.2     1  UNL1        0.0799
     19 C         -11.3011  -17.7788   22.8042 C.3     1  UNL1        0.1729
     20 N          -9.2639  -20.5774   24.7453 N.1     1  UNL1       -0.1911
     21 C         -10.3870  -19.6758   24.3260 C.1     1  UNL1        0.0971
     22 N          -3.7683  -17.9597   23.4511 N.pl3   1  UNL1       -0.2127
     23 H          -3.3541  -18.3458   24.2564 H       1  UNL1        0.1738
     24 S          -3.0109  -17.9349   22.1566 S.O2    1  UNL1        0.0758
     25 O          -2.9661  -19.4342   22.1541 O.2     1  UNL1       -0.1499
     26 O          -3.0558  -16.4355   22.1591 O.2     1  UNL1       -0.1499
     27 C          -2.2536  -17.9100   20.8621 C.ar    1  UNL1        0.1524
     28 C          -0.7858  -17.6005   20.8577 C.ar    1  UNL1        0.0225
     29 C          -0.0283  -17.5756   19.5633 C.ar    1  UNL1        0.0015
     30 C          -0.7386  -17.8601   18.2731 C.ar    1  UNL1        0.0024
     31 C          -2.2064  -18.1696   18.2775 C.ar    1  UNL1        0.0310
     32 C          -2.9638  -18.1945   19.5720 C.ar    1  UNL1        0.1589
     33 F          -4.4316  -18.5040   19.5762 F       1  UNL1       -0.2027
@<TRIPOS>BOND
     1    20    21    3
     2    21    11    1
     3    11    12    2
     4    12    13    1
     5    13    14    2
     6    14    15    1
     7    15    16    2
     8    16    17    1
     9    17    18    2
    10    18     9    1
    11     9    10    2
    12     9     1    1
    13     1     2   ar
    14     2     3    1
    15     2     4   ar
    16     4     5   ar
    17     5     6   ar
    18     6    22    1
    19    22    24    1
    20    24    25    2
    21    24    26    2
    22    24    27    1
    23    27    28   ar
    24    28    29   ar
    25    29    30   ar
    26    30    31   ar
    27    31    32   ar
    28    32    33    1
    29     6     7   ar
    30     7     8    1
    31    18    19    1
    32    19    11    1
    33    19    15    1
    34     7     1   ar
    35    32    27   ar
    36    22    23    1
@<TRIPOS>MOLECULE
*****
 33 36 0 0 0
SMALL
GASTEIGER

@<TRIPOS>ATOM
      1 C          -8.3661  -18.7207   21.4239 C.ar    1  UNL1        0.0949
      2 C          -9.2994  -19.1568   20.3336 C.ar    1  UNL1        0.1454
      3 F         -10.7261  -18.6938   20.3378 F       1  UNL1       -0.2040
      4 C          -8.8059  -20.0560   19.2392 C.ar    1  UNL1        0.0312
      5 C          -7.3791  -20.5190   19.2350 C.ar    1  UNL1        0.0204
      6 C          -6.4458  -20.0828   20.3252 C.ar    1  UNL1        0.0924
      7 C          -6.9394  -19.1837   21.4197 C.ar    1  UNL1        0.1598
      8 F          -6.0061  -18.7474   22.5100 F       1  UNL1       -0.2026
      9 C          -8.8596  -17.8214   22.5185 C.2     1  UNL1        0.2006
     10 O          -7.9940  -17.5491   23.7127 O.2     1  UNL1       -0.2866
     11 C         -11.6873  -18.7415   24.1394 C.2     1  UNL1        0.0659
     12 C         -13.0539  -18.9440   24.7237 C.2     1  UNL1        0.0573
     13 C         -14.1818  -18.0392   24.3246 C.2     1  UNL1        0.2361
     14 N         -13.9432  -16.9320   23.3413 N.2     1  UNL1       -0.0340
     15 C         -12.5766  -16.7295   22.7570 C.2     1  UNL1        0.3601
     16 N         -12.0437  -15.7308   21.7729 N.2     1  UNL1       -0.0342
     17 C         -10.5864  -16.0182   21.5637 C.2     1  UNL1        0.2354
     18 C         -10.2187  -17.1946   22.4186 C.2     1  UNL1        0.0799
     19 C         -11.4487  -17.6342   23.1561 C.3     1  UNL1        0.1729
     20 N          -9.4315  -20.5509   24.9376 N.1     1  UNL1       -0.1911
     21 C         -10.5594  -19.6462   24.5385 C.1     1  UNL1        0.0971
     22 N          -5.0191  -20.5459   20.3210 N.pl3   1  UNL1       -0.2127
     23 H          -4.8141  -21.5086   20.3037 H       1  UNL1        0.1738
     24 S          -3.9048  -19.5420   20.3432 S.O2    1  UNL1        0.0758
     25 O          -4.6661  -18.6758   19.3840 O.2     1  UNL1       -0.1499
     26 O          -3.1435  -20.4082   21.3024 O.2     1  UNL1       -0.1499
     27 C          -2.7904  -18.5382   20.3654 C.ar    1  UNL1        0.1524
     28 C          -1.7660  -18.5305   19.2697 C.ar    1  UNL1        0.0225
     29 C          -0.6516  -17.5267   19.2918 C.ar    1  UNL1        0.0015
     30 C          -0.5615  -16.5306   20.4097 C.ar    1  UNL1        0.0024
     31 C          -1.5860  -16.5383   21.5054 C.ar    1  UNL1        0.0310
     32 C          -2.7004  -17.5421   21.4833 C.ar    1  UNL1        0.1589
     33 F          -3.7248  -17.5497   22.5790 F       1  UNL1       -0.2027
@<TRIPOS>BOND
     1    20    21    3
     2    21    11    1
     3    11    12    2
     4    12    13    1
     5    13    14    2
     6    14    15    1
     7    15    16    2
     8    16    17    1
     9    17    18    2
    10    18     9    1
    11     9    10    2
    12     9     1    1
    13     1     2   ar
    14     2     3    1
    15     2     4   ar
    16     4     5   ar
    17     5     6   ar
    18     6    22    1
    19    22    24    1
    20    24    25    2
    21    24    26    2
    22    24    27    1
    23    27    28   ar
    24    28    29   ar
    25    29    30   ar
    26    30    31   ar
    27    31    32   ar
    28    32    33    1
    29     6     7   ar
    30     7     8    1
    31    18    19    1
    32    19    11    1
    33    19    15    1
    34     7     1   ar
    35    32    27   ar
    36    22    23    1
@<TRIPOS>MOLECULE
*****
 33 36 0 0 0
SMALL
GASTEIGER

@<TRIPOS>ATOM
      1 C          -9.9517  -17.7651   21.4627 C.ar    1  UNL1        0.0949
      2 C         -11.1527  -18.5821   21.0885 C.ar    1  UNL1        0.1454
      3 F         -12.5270  -18.1086   21.4589 F       1  UNL1       -0.2040
      4 C         -10.9794  -19.8726   20.3439 C.ar    1  UNL1        0.0312
      5 C          -9.6052  -20.3461   19.9735 C.ar    1  UNL1        0.0204
      6 C          -8.4041  -19.5291   20.3477 C.ar    1  UNL1        0.0924
      7 C          -8.5775  -18.2386   21.0923 C.ar    1  UNL1        0.1598
      8 F          -7.3765  -17.4215   21.4666 F       1  UNL1       -0.2026
      9 C         -10.1249  -16.4745   22.2074 C.2     1  UNL1        0.2006
     10 O         -11.4289  -15.7367   22.1361 O.2     1  UNL1       -0.2866
     11 C          -9.3463  -17.1978   25.4231 C.2     1  UNL1        0.0659
     12 C          -8.7986  -17.3435   26.8119 C.2     1  UNL1        0.0573
     13 C          -7.5880  -16.5609   27.2266 C.2     1  UNL1        0.2361
     14 N          -6.9250  -15.6327   26.2525 N.2     1  UNL1       -0.0340
     15 C          -7.4727  -15.4870   24.8637 C.2     1  UNL1        0.3601
     16 N          -7.0353  -14.6556   23.6944 N.2     1  UNL1       -0.0342
     17 C          -7.9756  -14.9242   22.5570 C.2     1  UNL1        0.2354
     18 C          -8.9941  -15.9218   23.0234 C.2     1  UNL1        0.0799
     19 C          -8.6833  -16.2696   24.4490 C.3     1  UNL1        0.1729
     20 N         -11.7675  -18.7630   24.5937 N.1     1  UNL1       -0.1911
     21 C         -10.5569  -17.9804   25.0084 C.1     1  UNL1        0.0971
     22 N          -7.0299  -20.0026   19.9773 N.pl3   1  UNL1       -0.2127
     23 H          -6.9098  -20.6229   19.2223 H       1  UNL1        0.1738
     24 S          -5.8386  -19.5311   20.7573 S.O2    1  UNL1        0.0758
     25 O          -5.4618  -18.6170   19.6293 O.2     1  UNL1       -0.1499
     26 O          -6.2153  -20.4452   21.8853 O.2     1  UNL1       -0.1499
     27 C          -4.6473  -19.0596   21.5373 C.ar    1  UNL1        0.1524
     28 C          -4.8393  -18.2167   22.7632 C.ar    1  UNL1        0.0225
     29 C          -3.6480  -17.7452   23.5433 C.ar    1  UNL1        0.0015
     30 C          -2.2648  -18.1166   23.0976 C.ar    1  UNL1        0.0024
     31 C          -2.0728  -18.9595   21.8718 C.ar    1  UNL1        0.0310
     32 C          -3.2641  -19.4310   21.0916 C.ar    1  UNL1        0.1589
     33 F          -3.0720  -20.2739   19.8658 F       1  UNL1       -0.2027
@<TRIPOS>BOND
     1    20    21    3
     2    21    11    1
     3    11    12    2
     4    12    13    1
     5    13    14    2
     6    14    15    1
     7    15    16    2
     8    16    17    1
     9    17    18    2
    10    18     9    1
    11     9    10    2
    12     9     1    1
    13     1     2   ar
    14     2     3    1
    15     2     4   ar
    16     4     5   ar
    17     5     6   ar
    18     6    22    1
    19    22    24    1
    20    24    25    2
    21    24    26    2
    22    24    27    1
    23    27    28   ar
    24    28    29   ar
    25    29    30   ar
    26    30    31   ar
    27    31    32   ar
    28    32    33    1
    29     6     7   ar
    30     7     8    1
    31    18    19    1
    32    19    11    1
    33    19    15    1
    34     7     1   ar
    35    32    27   ar
    36    22    23    1
@<TRIPOS>MOLECULE
*****
 33 36 0 0 0
SMALL
GASTEIGER

@<TRIPOS>ATOM
      1 C          -8.0361  -17.9078   22.3529 C.ar    1  UNL1        0.0949
      2 C          -8.6201  -19.0949   21.6460 C.ar    1  UNL1        0.1454
      3 F         -10.0731  -19.1060   21.2736 F       1  UNL1       -0.2040
      4 C          -7.7511  -20.2708   21.3115 C.ar    1  UNL1        0.0312
      5 C          -6.2981  -20.2598   21.6839 C.ar    1  UNL1        0.0204
      6 C          -5.7141  -19.0727   22.3909 C.ar    1  UNL1        0.0924
      7 C          -6.5831  -17.8967   22.7253 C.ar    1  UNL1        0.1598
      8 F          -5.9991  -16.7096   23.4323 F       1  UNL1       -0.2026
      9 C          -8.9051  -16.7318   22.6875 C.2     1  UNL1        0.2006
     10 O          -8.3441  -15.5845   23.4741 O.2     1  UNL1       -0.2866
     11 C         -11.5938  -18.0864   24.2385 C.2     1  UNL1        0.0659
     12 C         -12.9244  -18.5871   24.7168 C.2     1  UNL1        0.0573
     13 C         -14.1606  -18.3188   23.9107 C.2     1  UNL1        0.2361
     14 N         -14.0663  -17.5498   22.6263 N.2     1  UNL1       -0.0340
     15 C         -12.7357  -17.0491   22.1480 C.2     1  UNL1        0.3601
     16 N         -12.3352  -16.2690   20.9310 N.2     1  UNL1       -0.0342
     17 C         -10.8515  -16.0552   20.9849 C.2     1  UNL1        0.2354
     18 C         -10.3350  -16.7031   22.2353 C.2     1  UNL1        0.0799
     19 C         -11.4995  -17.3174   22.9541 C.3     1  UNL1        0.1729
     20 N          -9.1214  -18.6230   25.8507 N.1     1  UNL1       -0.1911
     21 C         -10.3576  -18.3547   25.0446 C.1     1  UNL1        0.0971
     22 N          -4.2611  -19.0616   22.7633 N.pl3   1  UNL1       -0.2127
     23 H          -3.9856  -19.2991   23.6781 H       1  UNL1        0.1738
     24 S          -3.2279  -18.6886   21.7418 S.O2    1  UNL1        0.0758
     25 O          -2.9192  -20.1403   21.5240 O.2     1  UNL1       -0.1499
     26 O          -3.5366  -17.2370   21.9596 O.2     1  UNL1       -0.1499
     27 C          -2.1947  -18.3156   20.7204 C.ar    1  UNL1        0.1524
     28 C          -0.7803  -18.0533   21.1454 C.ar    1  UNL1        0.0225
     29 C           0.2529  -17.6802   20.1240 C.ar    1  UNL1        0.0015
     30 C          -0.1282  -17.5695   18.6775 C.ar    1  UNL1        0.0024
     31 C          -1.5426  -17.8319   18.2524 C.ar    1  UNL1        0.0310
     32 C          -2.5759  -18.2049   19.2738 C.ar    1  UNL1        0.1589
     33 F          -3.9902  -18.4672   18.8487 F       1  UNL1       -0.2027
@<TRIPOS>BOND
     1    20    21    3
     2    21    11    1
     3    11    12    2
     4    12    13    1
     5    13    14    2
     6    14    15    1
     7    15    16    2
     8    16    17    1
     9    17    18    2
    10    18     9    1
    11     9    10    2
    12     9     1    1
    13     1     2   ar
    14     2     3    1
    15     2     4   ar
    16     4     5   ar
    17     5     6   ar
    18     6    22    1
    19    22    24    1
    20    24    25    2
    21    24    26    2
    22    24    27    1
    23    27    28   ar
    24    28    29   ar
    25    29    30   ar
    26    30    31   ar
    27    31    32   ar
    28    32    33    1
    29     6     7   ar
    30     7     8    1
    31    18    19    1
    32    19    11    1
    33    19    15    1
    34     7     1   ar
    35    32    27   ar
    36    22    23    1
