@<TRIPOS>MOLECULE
*****
 13 14 0 0 0
SMALL
GASTEIGER

@<TRIPOS>ATOM
      1 N           4.7763  -12.1266   29.5825 N.pl3   1  UNL1       -0.3255
      2 C           4.9225  -12.8009   28.2506 C.ar    1  UNL1        0.2415
      3 O           6.1812  -12.8868   27.4393 O.2     1  UNL1       -0.3370
      4 N           5.8724  -13.6466   26.1834 N.ar    1  UNL1       -0.0721
      5 C           4.4227  -14.0303   26.2185 C.ar    1  UNL1        0.1643
      6 C           3.8357  -13.5076   27.4961 C.ar    1  UNL1        0.1562
      7 H           5.5523  -11.6873   29.9996 H       1  UNL1        0.1452
      8 H           3.9043  -12.1235   30.0395 H       1  UNL1        0.1452
      9 N           2.4118  -13.6642   27.9410 N.ar    1  UNL1       -0.2221
     10 C           1.6319  -14.9453   27.9665 C.ar    1  UNL1        0.1023
     11 C           0.2558  -14.6401   28.4798 C.ar    1  UNL1        0.0431
     12 C           0.1853  -13.1704   28.7715 C.ar    1  UNL1        0.1221
     13 N           1.5178  -12.5673   28.4385 N.ar    1  UNL1       -0.1633
@<TRIPOS>BOND
     1     1     2    1
     2     2     3   ar
     3     3     4   ar
     4     4     5   ar
     5     5     6   ar
     6     6     9    1
     7     9    10   ar
     8    10    11   ar
     9    11    12   ar
    10    12    13   ar
    11     6     2   ar
    12    13     9   ar
    13     1     7    1
    14     1     8    1
@<TRIPOS>MOLECULE
*****
 13 14 0 0 0
SMALL
GASTEIGER

@<TRIPOS>ATOM
      1 N           3.7212  -10.5031   26.8593 N.pl3   1  UNL1       -0.3255
      2 C           4.6245  -11.4285   27.6194 C.ar    1  UNL1        0.2415
      3 O           6.0968  -11.2417   27.8372 O.2     1  UNL1       -0.3370
      4 N           6.5963  -12.4009   28.6477 N.ar    1  UNL1       -0.0721
      5 C           5.4326  -13.3041   28.9308 C.ar    1  UNL1        0.1643
      6 C           4.2140  -12.7032   28.2953 C.ar    1  UNL1        0.1562
      7 H           4.0862   -9.6861   26.4489 H       1  UNL1        0.1452
      8 H           2.7634  -10.7129   26.7707 H       1  UNL1        0.1452
      9 N           2.8283  -13.2763   28.3296 N.ar    1  UNL1       -0.2221
     10 C           2.4714  -14.7282   28.2083 C.ar    1  UNL1        0.1023
     11 C           0.9787  -14.8474   28.2950 C.ar    1  UNL1        0.0431
     12 C           0.4129  -13.4692   28.4699 C.ar    1  UNL1        0.1221
     13 N           1.5561  -12.4982   28.4912 N.ar    1  UNL1       -0.1633
@<TRIPOS>BOND
     1     1     2    1
     2     2     3   ar
     3     3     4   ar
     4     4     5   ar
     5     5     6   ar
     6     6     9    1
     7     9    10   ar
     8    10    11   ar
     9    11    12   ar
    10    12    13   ar
    11     6     2   ar
    12    13     9   ar
    13     1     7    1
    14     1     8    1
@<TRIPOS>MOLECULE
*****
 13 14 0 0 0
SMALL
GASTEIGER

@<TRIPOS>ATOM
      1 N          -7.7796  -14.3228   23.9303 N.pl3   1  UNL1       -0.3255
      2 C          -7.3050  -15.6255   23.3576 C.ar    1  UNL1        0.2415
      3 O          -5.9107  -16.1715   23.4456 O.2     1  UNL1       -0.3370
      4 N          -5.8853  -17.4943   22.7388 N.ar    1  UNL1       -0.0721
      5 C          -7.2640  -17.7659   22.2140 C.ar    1  UNL1        0.1643
      6 C          -8.1414  -16.6109   22.5964 C.ar    1  UNL1        0.1562
      7 H          -7.1517  -13.7410   24.4165 H       1  UNL1        0.1452
      8 H          -8.7190  -14.0497   23.8199 H       1  UNL1        0.1452
      9 N          -9.5993  -16.4667   22.2742 N.ar    1  UNL1       -0.2221
     10 C         -10.7348  -16.6090   23.2440 C.ar    1  UNL1        0.1023
     11 C         -12.0149  -16.3851   22.4948 C.ar    1  UNL1        0.0431
     12 C         -11.6705  -16.1044   21.0621 C.ar    1  UNL1        0.1221
     13 N         -10.1775  -16.1548   20.9258 N.ar    1  UNL1       -0.1633
@<TRIPOS>BOND
     1     1     2    1
     2     2     3   ar
     3     3     4   ar
     4     4     5   ar
     5     5     6   ar
     6     6     9    1
     7     9    10   ar
     8    10    11   ar
     9    11    12   ar
    10    12    13   ar
    11     6     2   ar
    12    13     9   ar
    13     1     7    1
    14     1     8    1
@<TRIPOS>MOLECULE
*****
 13 14 0 0 0
SMALL
GASTEIGER

@<TRIPOS>ATOM
      1 N          -8.8551  -15.5427   21.7058 N.pl3   1  UNL1       -0.3255
      2 C         -10.1550  -16.0595   21.1644 C.ar    1  UNL1        0.2415
      3 O         -10.8539  -15.5688   19.9312 O.2     1  UNL1       -0.3370
      4 N         -12.1151  -16.3638   19.7658 N.ar    1  UNL1       -0.0721
      5 C         -12.1956  -17.3459   20.8967 C.ar    1  UNL1        0.1643
      6 C         -10.9842  -17.1578   21.7611 C.ar    1  UNL1        0.1562
      7 H          -8.3827  -14.8148   21.2407 H       1  UNL1        0.1452
      8 H          -8.4743  -15.9313   22.5263 H       1  UNL1        0.1452
      9 N         -10.6592  -17.9321   23.0040 N.ar    1  UNL1       -0.2221
     10 C         -11.0116  -19.3663   23.2667 C.ar    1  UNL1        0.1023
     11 C         -10.4949  -19.7287   24.6275 C.ar    1  UNL1        0.0431
     12 C          -9.8231  -18.5186   25.2058 C.ar    1  UNL1        0.1221
     13 N          -9.9247  -17.4082   24.2023 N.ar    1  UNL1       -0.1633
@<TRIPOS>BOND
     1     1     2    1
     2     2     3   ar
     3     3     4   ar
     4     4     5   ar
     5     5     6   ar
     6     6     9    1
     7     9    10   ar
     8    10    11   ar
     9    11    12   ar
    10    12    13   ar
    11     6     2   ar
    12    13     9   ar
    13     1     7    1
    14     1     8    1
@<TRIPOS>MOLECULE
*****
 13 14 0 0 0
SMALL
GASTEIGER

@<TRIPOS>ATOM
      1 N          -3.6035  -16.9058   18.3562 N.pl3   1  UNL1       -0.3255
      2 C          -2.7249  -17.8175   19.1604 C.ar    1  UNL1        0.2415
      3 O          -1.2360  -17.9467   19.0318 O.2     1  UNL1       -0.3370
      4 N          -0.7717  -18.9691   20.0263 N.ar    1  UNL1       -0.0721
      5 C          -1.9737  -19.4718   20.7697 C.ar    1  UNL1        0.1643
      6 C          -3.1808  -18.7600   20.2346 C.ar    1  UNL1        0.1562
      7 H          -3.2087  -16.3209   17.6698 H       1  UNL1        0.1452
      8 H          -4.5751  -16.8923   18.5148 H       1  UNL1        0.1452
      9 N          -4.5954  -18.9564   20.6931 N.ar    1  UNL1       -0.2221
     10 C          -5.0235  -19.5560   21.9997 C.ar    1  UNL1        0.1023
     11 C          -6.5230  -19.5578   22.0396 C.ar    1  UNL1        0.0431
     12 C          -7.0216  -18.9594   20.7577 C.ar    1  UNL1        0.1221
     13 N          -5.8302  -18.5877   19.9255 N.ar    1  UNL1       -0.1633
@<TRIPOS>BOND
     1     1     2    1
     2     2     3   ar
     3     3     4   ar
     4     4     5   ar
     5     5     6   ar
     6     6     9    1
     7     9    10   ar
     8    10    11   ar
     9    11    12   ar
    10    12    13   ar
    11     6     2   ar
    12    13     9   ar
    13     1     7    1
    14     1     8    1
@<TRIPOS>MOLECULE
*****
 13 14 0 0 0
SMALL
GASTEIGER

@<TRIPOS>ATOM
      1 N         -10.4882  -15.1542   19.6167 N.pl3   1  UNL1       -0.3255
      2 C         -11.2300  -16.1494   20.4591 C.ar    1  UNL1        0.2415
      3 O         -12.5286  -16.8108   20.1041 O.2     1  UNL1       -0.3370
      4 N         -12.9046  -17.7280   21.2299 N.ar    1  UNL1       -0.0721
      5 C         -11.8384  -17.6334   22.2807 C.ar    1  UNL1        0.1643
      6 C         -10.8034  -16.6577   21.8043 C.ar    1  UNL1        0.1562
      7 H         -10.8508  -14.8815   18.7430 H       1  UNL1        0.1452
      8 H          -9.6387  -14.7739   19.9376 H       1  UNL1        0.1452
      9 N          -9.5602  -16.2602   22.5434 N.ar    1  UNL1       -0.2221
     10 C          -9.3752  -16.2795   24.0318 C.ar    1  UNL1        0.1023
     11 C          -7.9843  -15.8049   24.3322 C.ar    1  UNL1        0.0431
     12 C          -7.3097  -15.4922   23.0294 C.ar    1  UNL1        0.1221
     13 N          -8.2837  -15.7736   21.9239 N.ar    1  UNL1       -0.1633
@<TRIPOS>BOND
     1     1     2    1
     2     2     3   ar
     3     3     4   ar
     4     4     5   ar
     5     5     6   ar
     6     6     9    1
     7     9    10   ar
     8    10    11   ar
     9    11    12   ar
    10    12    13   ar
    11     6     2   ar
    12    13     9   ar
    13     1     7    1
    14     1     8    1
@<TRIPOS>MOLECULE
*****
 13 14 0 0 0
SMALL
GASTEIGER

@<TRIPOS>ATOM
      1 N          -1.7285  -18.1314   22.7622 N.pl3   1  UNL1       -0.3255
      2 C          -1.7033  -18.2055   21.2643 C.ar    1  UNL1        0.2415
      3 O          -0.5441  -17.8454   20.3831 O.2     1  UNL1       -0.3370
      4 N          -0.9572  -18.0701   18.9587 N.ar    1  UNL1       -0.0721
      5 C          -2.3718  -18.5691   18.9595 C.ar    1  UNL1        0.1643
      6 C          -2.8329  -18.6527   20.3845 C.ar    1  UNL1        0.1562
      7 H          -0.9328  -17.8234   23.2533 H       1  UNL1        0.1452
      8 H          -2.5409  -18.3907   23.2543 H       1  UNL1        0.1452
      9 N          -4.1860  -19.1044   20.8482 N.ar    1  UNL1       -0.2221
     10 C          -4.9538  -20.2782   20.3163 C.ar    1  UNL1        0.1023
     11 C          -6.2512  -20.3608   21.0645 C.ar    1  UNL1        0.0431
     12 C          -6.2854  -19.2382   22.0588 C.ar    1  UNL1        0.1221
     13 N          -5.0089  -18.4616   21.9250 N.ar    1  UNL1       -0.1633
@<TRIPOS>BOND
     1     1     2    1
     2     2     3   ar
     3     3     4   ar
     4     4     5   ar
     5     5     6   ar
     6     6     9    1
     7     9    10   ar
     8    10    11   ar
     9    11    12   ar
    10    12    13   ar
    11     6     2   ar
    12    13     9   ar
    13     1     7    1
    14     1     8    1
@<TRIPOS>MOLECULE
*****
 13 14 0 0 0
SMALL
GASTEIGER

@<TRIPOS>ATOM
      1 N           3.7517  -14.0033   25.8636 N.pl3   1  UNL1       -0.3255
      2 C           3.0915  -13.5031   27.1142 C.ar    1  UNL1        0.2415
      3 O           1.6139  -13.4254   27.3605 O.2     1  UNL1       -0.3370
      4 N           1.4021  -12.8671   28.7366 N.ar    1  UNL1       -0.0721
      5 C           2.7488  -12.5997   29.3406 C.ar    1  UNL1        0.1643
      6 C           3.7929  -12.9928   28.3379 C.ar    1  UNL1        0.1562
      7 H           3.2029  -14.3194   25.1098 H       1  UNL1        0.1452
      8 H           4.7339  -14.0154   25.7966 H       1  UNL1        0.1452
      9 N           5.2777  -12.8931   28.5260 N.ar    1  UNL1       -0.2221
     10 C           6.1731  -11.8456   27.9335 C.ar    1  UNL1        0.1023
     11 C           7.5766  -12.1284   28.3809 C.ar    1  UNL1        0.0431
     12 C           7.5487  -13.3508   29.2500 C.ar    1  UNL1        0.1221
     13 N           6.1278  -13.8233   29.3396 N.ar    1  UNL1       -0.1633
@<TRIPOS>BOND
     1     1     2    1
     2     2     3   ar
     3     3     4   ar
     4     4     5   ar
     5     5     6   ar
     6     6     9    1
     7     9    10   ar
     8    10    11   ar
     9    11    12   ar
    10    12    13   ar
    11     6     2   ar
    12    13     9   ar
    13     1     7    1
    14     1     8    1
@<TRIPOS>MOLECULE
*****
 13 14 0 0 0
SMALL
GASTEIGER

@<TRIPOS>ATOM
      1 N          -8.0370  -15.7300   21.7563 N.pl3   1  UNL1       -0.3255
      2 C          -7.9695  -17.2053   22.0187 C.ar    1  UNL1        0.2415
      3 O          -6.7362  -18.0567   21.9548 O.2     1  UNL1       -0.3370
      4 N          -7.1280  -19.4659   22.2876 N.ar    1  UNL1       -0.0721
      5 C          -8.6034  -19.4854   22.5572 C.ar    1  UNL1        0.1643
      6 C          -9.1235  -18.0883   22.3910 C.ar    1  UNL1        0.1562
      7 H          -7.2205  -15.2347   21.5170 H       1  UNL1        0.1452
      8 H          -8.8978  -15.2569   21.8234 H       1  UNL1        0.1452
      9 N         -10.5476  -17.6510   22.5663 N.ar    1  UNL1       -0.2221
     10 C         -11.6691  -18.4926   23.0991 C.ar    1  UNL1        0.1023
     11 C         -12.9148  -17.6571   23.1017 C.ar    1  UNL1        0.0431
     12 C         -12.5633  -16.2991   22.5705 C.ar    1  UNL1        0.1221
     13 N         -11.1002  -16.2953   22.2396 N.ar    1  UNL1       -0.1633
@<TRIPOS>BOND
     1     1     2    1
     2     2     3   ar
     3     3     4   ar
     4     4     5   ar
     5     5     6   ar
     6     6     9    1
     7     9    10   ar
     8    10    11   ar
     9    11    12   ar
    10    12    13   ar
    11     6     2   ar
    12    13     9   ar
    13     1     7    1
    14     1     8    1
