@<TRIPOS>MOLECULE
*****
 46 49 0 0 0
SMALL
GASTEIGER

@<TRIPOS>ATOM
      1 C          -3.1530    3.6941   25.6007 C.2     1  UNL1        0.2490
      2 O          -4.5403    3.5785   26.1593 O.2     1  UNL1       -0.2699
      3 N          -2.9498    3.8406   24.1218 N.am    1  UNL1       -0.2743
      4 C          -1.5625    3.9563   23.5631 C.3     1  UNL1        0.1152
      5 C          -1.3594    4.1028   22.0842 C.3     1  UNL1        0.1149
      6 N          -2.5434    4.1336   21.1639 N.am    1  UNL1       -0.2761
      7 C          -2.3402    4.2801   19.6849 C.2     1  UNL1        0.2257
      8 O          -3.5243    4.3109   18.7646 O.2     1  UNL1       -0.2749
      9 C          -3.9307    4.0179   21.7225 C.3     1  UNL1        0.1132
     10 C          -4.1339    3.8714   23.2015 C.3     1  UNL1        0.0955
     11 C          -5.5212    3.7557   23.7601 C.3     1  UNL1        0.0233
     12 C           0.3993    3.6018   28.3616 C.ar    1  UNL1        0.1306
     13 C          -0.1978    2.3187   27.8645 C.ar    1  UNL1        0.0110
     14 C          -1.3819    2.3495   26.9442 C.ar    1  UNL1        0.0032
     15 C          -1.9689    3.6634   26.5210 C.ar    1  UNL1        0.0532
     16 C          -1.3718    4.9464   27.0181 C.ar    1  UNL1        0.0032
     17 C          -0.1877    4.9157   27.9384 C.ar    1  UNL1        0.0110
     18 C           0.3892    1.0048   28.2878 C.3     1  UNL1        0.0218
     19 C          -0.6799    0.8629   29.3303 C.3     1  UNL1        0.0045
     20 C           1.4582    1.1466   27.2452 C.3     1  UNL1        0.0045
     21 C           0.9761   -0.3091   28.7109 C.3     1  UNL1        0.0045
     22 C           0.4094    6.1988   28.4355 C.3     1  UNL1        0.0218
     23 C           1.4493    6.1328   27.3566 C.3     1  UNL1        0.0045
     24 C          -0.6306    6.2648   29.5144 C.3     1  UNL1        0.0045
     25 C           1.0065    7.4819   28.9325 C.3     1  UNL1        0.0045
     26 C           1.3780    3.5069   30.7664 C.3     1  UNL1        0.2524
     27 O           1.5833    3.5710   29.2819 O.3     1  UNL1       -0.4721
     28 C          -0.9530    4.3958   19.1263 C.3     1  UNL1        0.0853
     29 C          -0.5395    3.5442   17.9628 C.3     1  UNL1        0.0096
     30 C           0.6815    2.6787   18.0632 C.3     1  UNL1        0.0012
     31 C           0.5831    1.3102   18.6694 C.3     1  UNL1        0.0087
     32 C           1.6267    0.8432   19.6403 C.3     1  UNL1        0.0446
     33 C           2.5778   -0.2495   19.2512 C.ar    1  UNL1       -0.0183
     34 C           2.7493   -1.4461   20.1392 C.ar    1  UNL1       -0.0017
     35 C           3.7004   -2.5388   19.7500 C.ar    1  UNL1        0.0293
     36 C           4.4801   -2.4349   18.4728 C.ar    1  UNL1        0.1401
     37 F           5.4312   -3.5275   18.0836 F       1  UNL1       -0.2042
     38 C           4.3085   -1.2382   17.5847 C.ar    1  UNL1        0.0293
     39 C           3.3574   -0.1456   17.9739 C.ar    1  UNL1       -0.0017
     40 C           1.7192    1.4688   21.0005 C.ar    1  UNL1       -0.0183
     41 C           0.9303    0.9005   22.1427 C.ar    1  UNL1       -0.0017
     42 C           1.0228    1.5261   23.5028 C.ar    1  UNL1        0.0293
     43 C           1.9042    2.7201   23.7208 C.ar    1  UNL1        0.1401
     44 F           1.9967    3.3457   25.0810 F       1  UNL1       -0.2042
     45 C           2.6932    3.2885   22.5786 C.ar    1  UNL1        0.0293
     46 C           2.6006    2.6629   21.2184 C.ar    1  UNL1       -0.0017
@<TRIPOS>BOND
     1    26    27    1
     2    27    12    1
     3    12    13   ar
     4    13    18    1
     5    18    19    1
     6    18    20    1
     7    18    21    1
     8    13    14   ar
     9    14    15   ar
    10    15     1    1
    11     1     2    2
    12     1     3   am
    13     3     4    1
    14     4     5    1
    15     5     6    1
    16     6     7   am
    17     7     8    2
    18     7    28    1
    19    28    29    1
    20    29    30    1
    21    30    31    1
    22    31    32    1
    23    32    33    1
    24    33    34   ar
    25    34    35   ar
    26    35    36   ar
    27    36    37    1
    28    36    38   ar
    29    38    39   ar
    30    32    40    1
    31    40    41   ar
    32    41    42   ar
    33    42    43   ar
    34    43    44    1
    35    43    45   ar
    36    45    46   ar
    37     6     9    1
    38     9    10    1
    39    10    11    1
    40    15    16   ar
    41    16    17   ar
    42    17    22    1
    43    22    23    1
    44    22    24    1
    45    22    25    1
    46    17    12   ar
    47    10     3    1
    48    39    33   ar
    49    46    40   ar
@<TRIPOS>MOLECULE
*****
 46 49 0 0 0
SMALL
GASTEIGER

@<TRIPOS>ATOM
      1 C          -0.3819    3.2737   18.1742 C.2     1  UNL1        0.2490
      2 O          -0.9278    3.5861   16.8124 O.2     1  UNL1       -0.2699
      3 N          -1.2626    3.3986   19.3819 N.am    1  UNL1       -0.2743
      4 C          -0.7167    3.0862   20.7438 C.3     1  UNL1        0.1152
      5 C          -1.5974    3.2110   21.9515 C.3     1  UNL1        0.1149
      6 N          -3.0240    3.6482   21.7976 N.am    1  UNL1       -0.2761
      7 C          -3.9047    3.7730   23.0054 C.2     1  UNL1        0.2257
      8 O          -5.3313    4.2101   22.8515 O.2     1  UNL1       -0.2749
      9 C          -3.5699    3.9605   20.4358 C.3     1  UNL1        0.1132
     10 C          -2.6892    3.8357   19.2280 C.3     1  UNL1        0.0955
     11 C          -3.2351    4.1480   17.8662 C.3     1  UNL1        0.0233
     12 C           3.8979    1.9623   18.6361 C.ar    1  UNL1        0.1306
     13 C           2.8008    0.9404   18.5934 C.ar    1  UNL1        0.0110
     14 C           1.3742    1.3775   18.4395 C.ar    1  UNL1        0.0032
     15 C           1.0447    2.8366   18.3281 C.ar    1  UNL1        0.0532
     16 C           2.1418    3.8585   18.3708 C.ar    1  UNL1        0.0032
     17 C           3.5684    3.4214   18.5248 C.ar    1  UNL1        0.0110
     18 C           3.1302   -0.5188   18.7047 C.3     1  UNL1        0.0218
     19 C           3.5359   -0.5375   17.2608 C.3     1  UNL1        0.0045
     20 C           2.7246   -0.5002   20.1487 C.3     1  UNL1        0.0045
     21 C           3.4596   -1.9779   18.8161 C.3     1  UNL1        0.0045
     22 C           4.6656    4.4434   18.5674 C.3     1  UNL1        0.0218
     23 C           4.9264    4.2243   17.1066 C.3     1  UNL1        0.0045
     24 C           4.4048    4.6625   20.0282 C.3     1  UNL1        0.0045
     25 C           5.7627    5.4654   18.6100 C.3     1  UNL1        0.0045
     26 C           5.9069    1.3345   20.1591 C.3     1  UNL1        0.2524
     27 O           5.3245    1.5251   18.7900 O.3     1  UNL1       -0.4721
     28 C          -3.3588    3.4607   24.3672 C.3     1  UNL1        0.0853
     29 C          -2.8570    4.5678   25.2460 C.3     1  UNL1        0.0096
     30 C          -2.1481    4.2450   26.5280 C.3     1  UNL1        0.0012
     31 C          -1.7975    2.8235   26.8538 C.3     1  UNL1        0.0087
     32 C          -0.3657    2.3777   26.8205 C.3     1  UNL1        0.0446
     33 C           0.3099    1.9297   28.0827 C.ar    1  UNL1       -0.0183
     34 C           0.6132    0.4763   28.2959 C.ar    1  UNL1       -0.0017
     35 C           1.2888    0.0283   29.5580 C.ar    1  UNL1        0.0293
     36 C           1.6610    1.0339   30.6070 C.ar    1  UNL1        0.1401
     37 F           2.3366    0.5859   31.8691 F       1  UNL1       -0.2042
     38 C           1.3578    2.4874   30.3937 C.ar    1  UNL1        0.0293
     39 C           0.6822    2.9353   29.1316 C.ar    1  UNL1       -0.0017
     40 C           0.3906    2.3799   25.5252 C.ar    1  UNL1       -0.0183
     41 C           0.4260    1.1445   24.6752 C.ar    1  UNL1       -0.0017
     42 C           1.1823    1.1467   23.3799 C.ar    1  UNL1        0.0293
     43 C           1.9033    2.3843   22.9344 C.ar    1  UNL1        0.1401
     44 F           2.6596    2.3865   21.6390 F       1  UNL1       -0.2042
     45 C           1.8679    3.6198   23.7843 C.ar    1  UNL1        0.0293
     46 C           1.1116    3.6176   25.0797 C.ar    1  UNL1       -0.0017
@<TRIPOS>BOND
     1    26    27    1
     2    27    12    1
     3    12    13   ar
     4    13    18    1
     5    18    19    1
     6    18    20    1
     7    18    21    1
     8    13    14   ar
     9    14    15   ar
    10    15     1    1
    11     1     2    2
    12     1     3   am
    13     3     4    1
    14     4     5    1
    15     5     6    1
    16     6     7   am
    17     7     8    2
    18     7    28    1
    19    28    29    1
    20    29    30    1
    21    30    31    1
    22    31    32    1
    23    32    33    1
    24    33    34   ar
    25    34    35   ar
    26    35    36   ar
    27    36    37    1
    28    36    38   ar
    29    38    39   ar
    30    32    40    1
    31    40    41   ar
    32    41    42   ar
    33    42    43   ar
    34    43    44    1
    35    43    45   ar
    36    45    46   ar
    37     6     9    1
    38     9    10    1
    39    10    11    1
    40    15    16   ar
    41    16    17   ar
    42    17    22    1
    43    22    23    1
    44    22    24    1
    45    22    25    1
    46    17    12   ar
    47    10     3    1
    48    39    33   ar
    49    46    40   ar
@<TRIPOS>MOLECULE
*****
 46 49 0 0 0
SMALL
GASTEIGER

@<TRIPOS>ATOM
      1 C          -2.5104    3.6628   26.0137 C.2     1  UNL1        0.2490
      2 O          -3.9135    3.8350   26.5153 O.2     1  UNL1       -0.2699
      3 N          -2.2465    3.5732   24.5399 N.am    1  UNL1       -0.2743
      4 C          -0.8433    3.4011   24.0383 C.3     1  UNL1        0.1152
      5 C          -0.5795    3.3115   22.5644 C.3     1  UNL1        0.1149
      6 N          -1.7187    3.3941   21.5921 N.am    1  UNL1       -0.2761
      7 C          -1.4547    3.3045   20.1182 C.2     1  UNL1        0.2257
      8 O          -2.5939    3.3870   19.1459 O.2     1  UNL1       -0.2749
      9 C          -3.1218    3.5662   22.0937 C.3     1  UNL1        0.1132
     10 C          -3.3857    3.6558   23.5676 C.3     1  UNL1        0.0955
     11 C          -4.7888    3.8280   24.0691 C.3     1  UNL1        0.0233
     12 C           0.9072    3.4151   28.9307 C.ar    1  UNL1        0.1306
     13 C           0.3931    2.1703   28.2703 C.ar    1  UNL1        0.0110
     14 C          -0.7461    2.2529   27.2980 C.ar    1  UNL1        0.0032
     15 C          -1.3712    3.5802   26.9860 C.ar    1  UNL1        0.0532
     16 C          -0.8571    4.8250   27.6464 C.ar    1  UNL1        0.0032
     17 C           0.2821    4.7424   28.6187 C.ar    1  UNL1        0.0110
     18 C           1.0182    0.8428   28.5822 C.3     1  UNL1        0.0218
     19 C          -0.1272    0.5178   29.4945 C.3     1  UNL1        0.0045
     20 C           2.1636    1.1679   27.6698 C.3     1  UNL1        0.0045
     21 C           1.6433   -0.4845   28.8940 C.3     1  UNL1        0.0045
     22 C           0.7962    5.9873   29.2792 C.3     1  UNL1        0.0218
     23 C           1.8731    6.0935   28.2404 C.3     1  UNL1        0.0045
     24 C          -0.2806    5.8811   30.3179 C.3     1  UNL1        0.0045
     25 C           1.3104    7.2321   29.9395 C.3     1  UNL1        0.0045
     26 C           1.7773    3.0506   31.3514 C.3     1  UNL1        0.2524
     27 O           2.0464    3.3325   29.9030 O.3     1  UNL1       -0.4721
     28 C          -0.0516    3.1323   19.6166 C.3     1  UNL1        0.0853
     29 C           0.4604    1.7642   19.2758 C.3     1  UNL1        0.0096
     30 C           0.2051    0.6148   20.2052 C.3     1  UNL1        0.0012
     31 C           1.0543   -0.6189   20.1232 C.3     1  UNL1        0.0087
     32 C           2.5149   -0.5476   20.4572 C.3     1  UNL1        0.0446
     33 C           3.5138   -0.2194   19.3873 C.ar    1  UNL1       -0.0183
     34 C           3.3970   -0.8525   18.0325 C.ar    1  UNL1       -0.0017
     35 C           4.3959   -0.5243   16.9627 C.ar    1  UNL1        0.0293
     36 C           5.5116    0.4369   17.2477 C.ar    1  UNL1        0.1401
     37 F           6.5105    0.7651   16.1779 F       1  UNL1       -0.2042
     38 C           5.6284    1.0700   18.6026 C.ar    1  UNL1        0.0293
     39 C           4.6295    0.7418   19.6724 C.ar    1  UNL1       -0.0017
     40 C           2.9766   -0.8044   21.8611 C.ar    1  UNL1       -0.0183
     41 C           2.5054    0.0779   22.9788 C.ar    1  UNL1       -0.0017
     42 C           2.9672   -0.1789   24.3827 C.ar    1  UNL1        0.0293
     43 C           3.9001   -1.3181   24.6688 C.ar    1  UNL1        0.1401
     44 F           4.3618   -1.5750   26.0727 F       1  UNL1       -0.2042
     45 C           4.3713   -2.2006   23.5510 C.ar    1  UNL1        0.0293
     46 C           3.9096   -1.9437   22.1471 C.ar    1  UNL1       -0.0017
@<TRIPOS>BOND
     1    26    27    1
     2    27    12    1
     3    12    13   ar
     4    13    18    1
     5    18    19    1
     6    18    20    1
     7    18    21    1
     8    13    14   ar
     9    14    15   ar
    10    15     1    1
    11     1     2    2
    12     1     3   am
    13     3     4    1
    14     4     5    1
    15     5     6    1
    16     6     7   am
    17     7     8    2
    18     7    28    1
    19    28    29    1
    20    29    30    1
    21    30    31    1
    22    31    32    1
    23    32    33    1
    24    33    34   ar
    25    34    35   ar
    26    35    36   ar
    27    36    37    1
    28    36    38   ar
    29    38    39   ar
    30    32    40    1
    31    40    41   ar
    32    41    42   ar
    33    42    43   ar
    34    43    44    1
    35    43    45   ar
    36    45    46   ar
    37     6     9    1
    38     9    10    1
    39    10    11    1
    40    15    16   ar
    41    16    17   ar
    42    17    22    1
    43    22    23    1
    44    22    24    1
    45    22    25    1
    46    17    12   ar
    47    10     3    1
    48    39    33   ar
    49    46    40   ar
@<TRIPOS>MOLECULE
*****
 46 49 0 0 0
SMALL
GASTEIGER

@<TRIPOS>ATOM
      1 C          -0.4102    3.2970   18.1551 C.2     1  UNL1        0.2490
      2 O          -0.9509    3.6119   16.7919 O.2     1  UNL1       -0.2699
      3 N          -1.2977    3.4121   19.3589 N.am    1  UNL1       -0.2743
      4 C          -0.7570    3.0972   20.7222 C.3     1  UNL1        0.1152
      5 C          -1.6445    3.2123   21.9260 C.3     1  UNL1        0.1149
      6 N          -3.0726    3.6424   21.7665 N.am    1  UNL1       -0.2761
      7 C          -3.9601    3.7575   22.9704 C.2     1  UNL1        0.2257
      8 O          -5.3882    4.1876   22.8109 O.2     1  UNL1       -0.2749
      9 C          -3.6133    3.9573   20.4033 C.3     1  UNL1        0.1132
     10 C          -2.7258    3.8422   19.1994 C.3     1  UNL1        0.0955
     11 C          -3.2665    4.1571   17.8362 C.3     1  UNL1        0.0233
     12 C           3.8742    2.0067   18.6335 C.ar    1  UNL1        0.1306
     13 C           2.7821    0.9795   18.5893 C.ar    1  UNL1        0.0110
     14 C           1.3539    1.4096   18.4298 C.ar    1  UNL1        0.0032
     15 C           1.0179    2.8669   18.3146 C.ar    1  UNL1        0.0532
     16 C           2.1101    3.8941   18.3588 C.ar    1  UNL1        0.0032
     17 C           3.5382    3.4640   18.5183 C.ar    1  UNL1        0.0110
     18 C           3.1181   -0.4779   18.7045 C.3     1  UNL1        0.0218
     19 C           2.6871   -0.4637   20.1412 C.3     1  UNL1        0.0045
     20 C           3.5490   -0.4921   17.2679 C.3     1  UNL1        0.0045
     21 C           3.4540   -1.9352   18.8197 C.3     1  UNL1        0.0045
     22 C           4.6304    4.4913   18.5625 C.3     1  UNL1        0.0218
     23 C           4.3916    4.6819   20.0310 C.3     1  UNL1        0.0045
     24 C           4.8692    4.3007   17.0940 C.3     1  UNL1        0.0045
     25 C           5.7225    5.5186   18.6068 C.3     1  UNL1        0.0045
     26 C           5.8706    1.3558   20.1635 C.3     1  UNL1        0.2524
     27 O           5.3024    1.5766   18.7930 O.3     1  UNL1       -0.4721
     28 C          -3.4194    3.4426   24.3336 C.3     1  UNL1        0.0853
     29 C          -2.8930    4.5445   25.2046 C.3     1  UNL1        0.0096
     30 C          -2.2625    4.2196   26.5263 C.3     1  UNL1        0.0012
     31 C          -1.8704    2.8069   26.8431 C.3     1  UNL1        0.0087
     32 C          -0.4239    2.4101   26.8341 C.3     1  UNL1        0.0446
     33 C           0.3454    2.4086   25.5463 C.ar    1  UNL1       -0.0183
     34 C           0.3754    1.1761   24.6920 C.ar    1  UNL1       -0.0017
     35 C           1.1446    1.1746   23.4042 C.ar    1  UNL1        0.0293
     36 C           1.8839    2.4057   22.9708 C.ar    1  UNL1        0.1401
     37 F           2.6532    2.4043   21.6831 F       1  UNL1       -0.2042
     38 C           1.8539    3.6383   23.8252 C.ar    1  UNL1        0.0293
     39 C           1.0847    3.6397   25.1129 C.ar    1  UNL1       -0.0017
     40 C           0.2535    2.0148   28.1127 C.ar    1  UNL1       -0.0183
     41 C           0.6316    3.0633   29.1164 C.ar    1  UNL1       -0.0017
     42 C           1.3089    2.6680   30.3951 C.ar    1  UNL1        0.0293
     43 C           1.6081    1.2241   30.6700 C.ar    1  UNL1        0.1401
     44 F           2.2854    0.8288   31.9487 F       1  UNL1       -0.2042
     45 C           1.2300    0.1755   29.6663 C.ar    1  UNL1        0.0293
     46 C           0.5527    0.5708   28.3876 C.ar    1  UNL1       -0.0017
@<TRIPOS>BOND
     1    26    27    1
     2    27    12    1
     3    12    13   ar
     4    13    18    1
     5    18    19    1
     6    18    20    1
     7    18    21    1
     8    13    14   ar
     9    14    15   ar
    10    15     1    1
    11     1     2    2
    12     1     3   am
    13     3     4    1
    14     4     5    1
    15     5     6    1
    16     6     7   am
    17     7     8    2
    18     7    28    1
    19    28    29    1
    20    29    30    1
    21    30    31    1
    22    31    32    1
    23    32    33    1
    24    33    34   ar
    25    34    35   ar
    26    35    36   ar
    27    36    37    1
    28    36    38   ar
    29    38    39   ar
    30    32    40    1
    31    40    41   ar
    32    41    42   ar
    33    42    43   ar
    34    43    44    1
    35    43    45   ar
    36    45    46   ar
    37     6     9    1
    38     9    10    1
    39    10    11    1
    40    15    16   ar
    41    16    17   ar
    42    17    22    1
    43    22    23    1
    44    22    24    1
    45    22    25    1
    46    17    12   ar
    47    10     3    1
    48    39    33   ar
    49    46    40   ar
@<TRIPOS>MOLECULE
*****
 46 49 0 0 0
SMALL
GASTEIGER

@<TRIPOS>ATOM
      1 C          -0.3391    3.3106   18.1917 C.2     1  UNL1        0.2490
      2 O          -0.8815    3.6319   16.8307 O.2     1  UNL1       -0.2699
      3 N          -1.2240    3.4241   19.3976 N.am    1  UNL1       -0.2743
      4 C          -0.6816    3.1028   20.7588 C.3     1  UNL1        0.1152
      5 C          -1.5664    3.2163   21.9646 C.3     1  UNL1        0.1149
      6 N          -2.9936    3.6510   21.8094 N.am    1  UNL1       -0.2761
      7 C          -3.8785    3.7645   23.0154 C.2     1  UNL1        0.2257
      8 O          -5.3057    4.1992   22.8602 O.2     1  UNL1       -0.2749
      9 C          -3.5360    3.9723   20.4484 C.3     1  UNL1        0.1132
     10 C          -2.6512    3.8588   19.2424 C.3     1  UNL1        0.0955
     11 C          -3.1936    4.1801   17.8813 C.3     1  UNL1        0.0233
     12 C           3.9425    2.0065   18.6574 C.ar    1  UNL1        0.1306
     13 C           3.6110    3.4648   18.5419 C.ar    1  UNL1        0.0110
     14 C           2.1838    3.8995   18.3867 C.ar    1  UNL1        0.0032
     15 C           1.0881    2.8759   18.3469 C.ar    1  UNL1        0.0532
     16 C           1.4196    1.4176   18.4624 C.ar    1  UNL1        0.0032
     17 C           2.8468    0.9829   18.6176 C.ar    1  UNL1        0.0110
     18 C           4.7067    4.4885   18.5816 C.3     1  UNL1        0.0218
     19 C           4.9550    4.2796   17.1171 C.3     1  UNL1        0.0045
     20 C           4.4585    4.6974   20.0460 C.3     1  UNL1        0.0045
     21 C           5.8024    5.5121   18.6213 C.3     1  UNL1        0.0045
     22 C           3.1783   -0.4755   18.7331 C.3     1  UNL1        0.0218
     23 C           2.7756   -0.4525   20.1779 C.3     1  UNL1        0.0045
     24 C           3.5809   -0.4984   17.2884 C.3     1  UNL1        0.0045
     25 C           3.5097   -1.9338   18.8487 C.3     1  UNL1        0.0045
     26 C           5.9530    1.3879   20.1822 C.3     1  UNL1        0.2524
     27 O           5.3697    1.5718   18.8126 O.3     1  UNL1       -0.4721
     28 C          -3.3361    3.4432   24.3765 C.3     1  UNL1        0.0853
     29 C          -2.7088    4.5227   25.2078 C.3     1  UNL1        0.0096
     30 C          -2.1244    4.1923   26.5492 C.3     1  UNL1        0.0012
     31 C          -1.7565    2.7760   26.8787 C.3     1  UNL1        0.0087
     32 C          -0.3189    2.3489   26.8514 C.3     1  UNL1        0.0446
     33 C           0.3566    1.9075   28.1160 C.ar    1  UNL1       -0.0183
     34 C           0.6772    2.9103   29.1844 C.ar    1  UNL1       -0.0017
     35 C           1.3527    2.4690   30.4490 C.ar    1  UNL1        0.0293
     36 C           1.7075    1.0248   30.6450 C.ar    1  UNL1        0.1401
     37 F           2.3829    0.5835   31.9095 F       1  UNL1       -0.2042
     38 C           1.3869    0.0220   29.5766 C.ar    1  UNL1        0.0293
     39 C           0.7114    0.4634   28.3121 C.ar    1  UNL1       -0.0017
     40 C           0.4434    2.3631   25.5596 C.ar    1  UNL1       -0.0183
     41 C           0.4447    1.1508   24.6762 C.ar    1  UNL1       -0.0017
     42 C           1.2070    1.1650   23.3844 C.ar    1  UNL1        0.0293
     43 C           1.9678    2.3914   22.9760 C.ar    1  UNL1        0.1401
     44 F           2.7301    2.4056   21.6841 F       1  UNL1       -0.2042
     45 C           1.9665    3.6038   23.8594 C.ar    1  UNL1        0.0293
     46 C           1.2043    3.5896   25.1512 C.ar    1  UNL1       -0.0017
@<TRIPOS>BOND
     1    26    27    1
     2    27    12    1
     3    12    13   ar
     4    13    18    1
     5    18    19    1
     6    18    20    1
     7    18    21    1
     8    13    14   ar
     9    14    15   ar
    10    15     1    1
    11     1     2    2
    12     1     3   am
    13     3     4    1
    14     4     5    1
    15     5     6    1
    16     6     7   am
    17     7     8    2
    18     7    28    1
    19    28    29    1
    20    29    30    1
    21    30    31    1
    22    31    32    1
    23    32    33    1
    24    33    34   ar
    25    34    35   ar
    26    35    36   ar
    27    36    37    1
    28    36    38   ar
    29    38    39   ar
    30    32    40    1
    31    40    41   ar
    32    41    42   ar
    33    42    43   ar
    34    43    44    1
    35    43    45   ar
    36    45    46   ar
    37     6     9    1
    38     9    10    1
    39    10    11    1
    40    15    16   ar
    41    16    17   ar
    42    17    22    1
    43    22    23    1
    44    22    24    1
    45    22    25    1
    46    17    12   ar
    47    10     3    1
    48    39    33   ar
    49    46    40   ar
@<TRIPOS>MOLECULE
*****
 46 49 0 0 0
SMALL
GASTEIGER

@<TRIPOS>ATOM
      1 C          -0.4401    3.3076   18.1201 C.2     1  UNL1        0.2490
      2 O          -0.9748    3.6176   16.7534 O.2     1  UNL1       -0.2699
      3 N          -1.3339    3.4228   19.3191 N.am    1  UNL1       -0.2743
      4 C          -0.7992    3.1127   20.6858 C.3     1  UNL1        0.1152
      5 C          -1.6931    3.2280   21.8849 C.3     1  UNL1        0.1149
      6 N          -3.1217    3.6533   21.7172 N.am    1  UNL1       -0.2761
      7 C          -4.0156    3.7685   22.9163 C.2     1  UNL1        0.2257
      8 O          -5.4442    4.1938   22.7486 O.2     1  UNL1       -0.2749
      9 C          -3.6565    3.9633   20.3505 C.3     1  UNL1        0.1132
     10 C          -2.7626    3.8481   19.1514 C.3     1  UNL1        0.0955
     11 C          -3.2973    4.1582   17.7848 C.3     1  UNL1        0.0233
     12 C           3.8458    2.0316   18.6231 C.ar    1  UNL1        0.1306
     13 C           3.5072    3.4868   18.4897 C.ar    1  UNL1        0.0110
     14 C           2.0786    3.9121   18.3220 C.ar    1  UNL1        0.0032
     15 C           0.9886    2.8822   18.2877 C.ar    1  UNL1        0.0532
     16 C           1.3272    1.4271   18.4211 C.ar    1  UNL1        0.0032
     17 C           2.7558    1.0018   18.5888 C.ar    1  UNL1        0.0110
     18 C           4.5973    4.5167   18.5239 C.3     1  UNL1        0.0218
     19 C           4.8512    4.2967   17.0621 C.3     1  UNL1        0.0045
     20 C           4.3434    4.7367   19.9858 C.3     1  UNL1        0.0045
     21 C           5.6873    5.5466   18.5583 C.3     1  UNL1        0.0045
     22 C           3.0944   -0.4535   18.7222 C.3     1  UNL1        0.0218
     23 C           3.5269   -0.4844   17.2863 C.3     1  UNL1        0.0045
     24 C           2.6619   -0.4225   20.1581 C.3     1  UNL1        0.0045
     25 C           3.4329   -1.9086   18.8555 C.3     1  UNL1        0.0045
     26 C           5.8437    1.4152   20.1653 C.3     1  UNL1        0.2524
     27 O           5.2745    1.6063   18.7907 O.3     1  UNL1       -0.4721
     28 C          -3.4808    3.4584   24.2830 C.3     1  UNL1        0.0853
     29 C          -2.9560    4.5631   25.1514 C.3     1  UNL1        0.0096
     30 C          -2.3335    4.2429   26.4780 C.3     1  UNL1        0.0012
     31 C          -1.9336    2.8331   26.7981 C.3     1  UNL1        0.0087
     32 C          -0.4848    2.4447   26.7921 C.3     1  UNL1        0.0446
     33 C           0.2873    2.4484   25.5061 C.ar    1  UNL1       -0.0183
     34 C           0.3678    1.2017   24.6760 C.ar    1  UNL1       -0.0017
     35 C           1.1400    1.2054   23.3899 C.ar    1  UNL1        0.0293
     36 C           1.8316    2.4559   22.9341 C.ar    1  UNL1        0.1401
     37 F           2.6038    2.4596   21.6481 F       1  UNL1       -0.2042
     38 C           1.7511    3.7027   23.7642 C.ar    1  UNL1        0.0293
     39 C           0.9790    3.6989   25.0502 C.ar    1  UNL1       -0.0017
     40 C           0.1919    2.0526   28.0721 C.ar    1  UNL1       -0.0183
     41 C           0.6638    3.1101   29.0254 C.ar    1  UNL1       -0.0017
     42 C           1.3406    2.7180   30.3054 C.ar    1  UNL1        0.0293
     43 C           1.5453    1.2684   30.6320 C.ar    1  UNL1        0.1401
     44 F           2.2220    0.8763   31.9120 F       1  UNL1       -0.2042
     45 C           1.0733    0.2108   29.6786 C.ar    1  UNL1        0.0293
     46 C           0.3966    0.6029   28.3987 C.ar    1  UNL1       -0.0017
@<TRIPOS>BOND
     1    26    27    1
     2    27    12    1
     3    12    13   ar
     4    13    18    1
     5    18    19    1
     6    18    20    1
     7    18    21    1
     8    13    14   ar
     9    14    15   ar
    10    15     1    1
    11     1     2    2
    12     1     3   am
    13     3     4    1
    14     4     5    1
    15     5     6    1
    16     6     7   am
    17     7     8    2
    18     7    28    1
    19    28    29    1
    20    29    30    1
    21    30    31    1
    22    31    32    1
    23    32    33    1
    24    33    34   ar
    25    34    35   ar
    26    35    36   ar
    27    36    37    1
    28    36    38   ar
    29    38    39   ar
    30    32    40    1
    31    40    41   ar
    32    41    42   ar
    33    42    43   ar
    34    43    44    1
    35    43    45   ar
    36    45    46   ar
    37     6     9    1
    38     9    10    1
    39    10    11    1
    40    15    16   ar
    41    16    17   ar
    42    17    22    1
    43    22    23    1
    44    22    24    1
    45    22    25    1
    46    17    12   ar
    47    10     3    1
    48    39    33   ar
    49    46    40   ar
@<TRIPOS>MOLECULE
*****
 46 49 0 0 0
SMALL
GASTEIGER

@<TRIPOS>ATOM
      1 C          -2.8209    3.6712   25.7070 C.2     1  UNL1        0.2490
      2 O          -4.2414    3.7251   26.1857 O.2     1  UNL1       -0.2699
      3 N          -2.5252    3.6507   24.2366 N.am    1  UNL1       -0.2743
      4 C          -1.1046    3.5967   23.7579 C.3     1  UNL1        0.1152
      5 C          -0.8090    3.5762   22.2875 C.3     1  UNL1        0.1149
      6 N          -1.9339    3.6096   21.2957 N.am    1  UNL1       -0.2761
      7 C          -1.6382    3.5890   19.8253 C.2     1  UNL1        0.2257
      8 O          -2.7631    3.6224   18.8335 O.2     1  UNL1       -0.2749
      9 C          -3.3544    3.6635   21.7744 C.3     1  UNL1        0.1132
     10 C          -3.6501    3.6840   23.2449 C.3     1  UNL1        0.0955
     11 C          -5.0706    3.7379   23.7236 C.3     1  UNL1        0.0233
     12 C           0.5538    3.5710   28.6822 C.ar    1  UNL1        0.1306
     13 C           0.0069    2.2903   28.1250 C.ar    1  UNL1        0.0110
     14 C          -1.1179    2.3237   27.1332 C.ar    1  UNL1        0.0032
     15 C          -1.6960    3.6378   26.6988 C.ar    1  UNL1        0.0532
     16 C          -1.1492    4.9186   27.2560 C.ar    1  UNL1        0.0032
     17 C          -0.0243    4.8852   28.2477 C.ar    1  UNL1        0.0110
     18 C           0.5850    0.9760   28.5595 C.3     1  UNL1        0.0218
     19 C          -0.6762    0.6699   29.3116 C.3     1  UNL1        0.0045
     20 C           1.8461    1.2821   27.8073 C.3     1  UNL1        0.0045
     21 C           1.1630   -0.3381   28.9939 C.3     1  UNL1        0.0045
     22 C           0.5225    6.1661   28.8050 C.3     1  UNL1        0.0218
     23 C           1.6019    6.1584   27.7634 C.3     1  UNL1        0.0045
     24 C          -0.5568    6.1738   29.8466 C.3     1  UNL1        0.0045
     25 C           1.0694    7.4469   29.3622 C.3     1  UNL1        0.0045
     26 C           1.3874    3.3397   31.1320 C.3     1  UNL1        0.2524
     27 O           1.6786    3.5377   29.6740 O.3     1  UNL1       -0.4721
     28 C          -0.2177    3.5351   19.3466 C.3     1  UNL1        0.0853
     29 C           0.4282    2.2115   19.0624 C.3     1  UNL1        0.0096
     30 C           0.0874    1.0152   19.9007 C.3     1  UNL1        0.0012
     31 C           0.9877   -0.1845   19.8968 C.3     1  UNL1        0.0087
     32 C           2.1164   -0.2783   20.8803 C.3     1  UNL1        0.0446
     33 C           2.1975    0.6896   22.0234 C.ar    1  UNL1       -0.0183
     34 C           3.0162    1.9394   21.8913 C.ar    1  UNL1       -0.0017
     35 C           3.0973    2.9073   23.0345 C.ar    1  UNL1        0.0293
     36 C           2.3597    2.6252   24.3098 C.ar    1  UNL1        0.1401
     37 F           2.4407    3.5929   25.4529 F       1  UNL1       -0.2042
     38 C           1.5409    1.3752   24.4419 C.ar    1  UNL1        0.0293
     39 C           1.4599    0.4075   23.2987 C.ar    1  UNL1       -0.0017
     40 C           3.1640   -1.3399   20.7206 C.ar    1  UNL1       -0.0183
     41 C           3.5005   -1.8622   19.3554 C.ar    1  UNL1       -0.0017
     42 C           4.5481   -2.9238   19.1958 C.ar    1  UNL1        0.0293
     43 C           5.2592   -3.4631   20.4014 C.ar    1  UNL1        0.1401
     44 F           6.3069   -4.5247   20.2417 F       1  UNL1       -0.2042
     45 C           4.9227   -2.9407   21.7667 C.ar    1  UNL1        0.0293
     46 C           3.8751   -1.8791   21.9263 C.ar    1  UNL1       -0.0017
@<TRIPOS>BOND
     1    26    27    1
     2    27    12    1
     3    12    13   ar
     4    13    18    1
     5    18    19    1
     6    18    20    1
     7    18    21    1
     8    13    14   ar
     9    14    15   ar
    10    15     1    1
    11     1     2    2
    12     1     3   am
    13     3     4    1
    14     4     5    1
    15     5     6    1
    16     6     7   am
    17     7     8    2
    18     7    28    1
    19    28    29    1
    20    29    30    1
    21    30    31    1
    22    31    32    1
    23    32    33    1
    24    33    34   ar
    25    34    35   ar
    26    35    36   ar
    27    36    37    1
    28    36    38   ar
    29    38    39   ar
    30    32    40    1
    31    40    41   ar
    32    41    42   ar
    33    42    43   ar
    34    43    44    1
    35    43    45   ar
    36    45    46   ar
    37     6     9    1
    38     9    10    1
    39    10    11    1
    40    15    16   ar
    41    16    17   ar
    42    17    22    1
    43    22    23    1
    44    22    24    1
    45    22    25    1
    46    17    12   ar
    47    10     3    1
    48    39    33   ar
    49    46    40   ar
@<TRIPOS>MOLECULE
*****
 46 49 0 0 0
SMALL
GASTEIGER

@<TRIPOS>ATOM
      1 C          -2.9415    3.5889   25.7733 C.2     1  UNL1        0.2490
      2 O          -4.3455    3.5859   26.3013 O.2     1  UNL1       -0.2699
      3 N          -2.6967    3.6245   24.2938 N.am    1  UNL1       -0.2743
      4 C          -1.2927    3.6274   23.7658 C.3     1  UNL1        0.1152
      5 C          -1.0479    3.6630   22.2863 C.3     1  UNL1        0.1149
      6 N          -2.2071    3.6957   21.3349 N.am    1  UNL1       -0.2761
      7 C          -1.9622    3.7313   19.8554 C.2     1  UNL1        0.2257
      8 O          -3.1214    3.7640   18.9040 O.2     1  UNL1       -0.2749
      9 C          -3.6110    3.6928   21.8629 C.3     1  UNL1        0.1132
     10 C          -3.8559    3.6571   23.3424 C.3     1  UNL1        0.0955
     11 C          -5.2599    3.6542   23.8704 C.3     1  UNL1        0.0233
     12 C           0.5360    3.4908   28.6276 C.ar    1  UNL1        0.1306
     13 C          -0.0355    4.8056   28.1867 C.ar    1  UNL1        0.0110
     14 C          -1.1947    4.8383   27.2352 C.ar    1  UNL1        0.0032
     15 C          -1.7823    3.5562   26.7247 C.ar    1  UNL1        0.0532
     16 C          -1.2108    2.2413   27.1656 C.ar    1  UNL1        0.0032
     17 C          -0.0516    2.2086   28.1171 C.ar    1  UNL1        0.0110
     18 C           0.5522    6.0879   28.6972 C.3     1  UNL1        0.0218
     19 C           1.6223    6.0149   27.6487 C.3     1  UNL1        0.0045
     20 C          -0.5180    6.1608   29.7457 C.3     1  UNL1        0.0045
     21 C           1.1397    7.3701   29.2077 C.3     1  UNL1        0.0045
     22 C           0.5199    0.8936   28.5580 C.3     1  UNL1        0.0218
     23 C          -0.6451    0.6973   29.4822 C.3     1  UNL1        0.0045
     24 C           1.6848    1.0900   27.6337 C.3     1  UNL1        0.0045
     25 C           1.0913   -0.4212   28.9989 C.3     1  UNL1        0.0045
     26 C           1.4516    3.3348   31.0539 C.3     1  UNL1        0.2524
     27 O           1.6952    3.4581   29.5790 O.3     1  UNL1       -0.4721
     28 C          -0.5583    3.7342   19.3274 C.3     1  UNL1        0.0853
     29 C          -0.2140    2.9316   18.1079 C.3     1  UNL1        0.0096
     30 C           0.6502    1.7118   18.2321 C.3     1  UNL1        0.0012
     31 C           0.6090    0.8879   19.4849 C.3     1  UNL1        0.0087
     32 C           1.8803    0.5669   20.2134 C.3     1  UNL1        0.0446
     33 C           2.8568   -0.4075   19.6243 C.ar    1  UNL1       -0.0183
     34 C           2.7859   -1.8587   19.9972 C.ar    1  UNL1       -0.0017
     35 C           3.7625   -2.8331   19.4081 C.ar    1  UNL1        0.0293
     36 C           4.8099   -2.3562   18.4460 C.ar    1  UNL1        0.1401
     37 F           5.7864   -3.3306   17.8569 F       1  UNL1       -0.2042
     38 C           4.8807   -0.9050   18.0730 C.ar    1  UNL1        0.0293
     39 C           3.9042    0.0693   18.6622 C.ar    1  UNL1       -0.0017
     40 C           2.1751    1.2202   21.5311 C.ar    1  UNL1       -0.0183
     41 C           2.2481    0.3917   22.7793 C.ar    1  UNL1       -0.0017
     42 C           2.5429    1.0450   24.0970 C.ar    1  UNL1        0.0293
     43 C           2.7647    2.5268   24.1664 C.ar    1  UNL1        0.1401
     44 F           3.0595    3.1802   25.4841 F       1  UNL1       -0.2042
     45 C           2.6917    3.3555   22.9181 C.ar    1  UNL1        0.0293
     46 C           2.3969    2.7021   21.6005 C.ar    1  UNL1       -0.0017
@<TRIPOS>BOND
     1    26    27    1
     2    27    12    1
     3    12    13   ar
     4    13    18    1
     5    18    19    1
     6    18    20    1
     7    18    21    1
     8    13    14   ar
     9    14    15   ar
    10    15     1    1
    11     1     2    2
    12     1     3   am
    13     3     4    1
    14     4     5    1
    15     5     6    1
    16     6     7   am
    17     7     8    2
    18     7    28    1
    19    28    29    1
    20    29    30    1
    21    30    31    1
    22    31    32    1
    23    32    33    1
    24    33    34   ar
    25    34    35   ar
    26    35    36   ar
    27    36    37    1
    28    36    38   ar
    29    38    39   ar
    30    32    40    1
    31    40    41   ar
    32    41    42   ar
    33    42    43   ar
    34    43    44    1
    35    43    45   ar
    36    45    46   ar
    37     6     9    1
    38     9    10    1
    39    10    11    1
    40    15    16   ar
    41    16    17   ar
    42    17    22    1
    43    22    23    1
    44    22    24    1
    45    22    25    1
    46    17    12   ar
    47    10     3    1
    48    39    33   ar
    49    46    40   ar
@<TRIPOS>MOLECULE
*****
 46 49 0 0 0
SMALL
GASTEIGER

@<TRIPOS>ATOM
      1 C           4.8790   -0.9843   28.3214 C.2     1  UNL1        0.2490
      2 O           5.4200   -1.4457   29.6422 O.2     1  UNL1       -0.2699
      3 N           5.2370   -1.7220   27.0654 N.am    1  UNL1       -0.2743
      4 C           4.6960   -1.2606   25.7446 C.3     1  UNL1        0.1152
      5 C           5.0539   -1.9982   24.4885 C.3     1  UNL1        0.1149
      6 N           5.9529   -3.1973   24.5532 N.am    1  UNL1       -0.2761
      7 C           6.3108   -3.9349   23.2971 C.2     1  UNL1        0.2257
      8 O           7.2098   -5.1340   23.3618 O.2     1  UNL1       -0.2749
      9 C           6.4939   -3.6587   25.8739 C.3     1  UNL1        0.1132
     10 C           6.1359   -2.9210   27.1301 C.3     1  UNL1        0.0955
     11 C           6.6769   -3.3824   28.4508 C.3     1  UNL1        0.0233
     12 C           2.1822    2.6128   28.1274 C.ar    1  UNL1        0.1306
     13 C           1.5929    1.2400   28.2613 C.ar    1  UNL1        0.0110
     14 C           2.4918    0.0409   28.3260 C.ar    1  UNL1        0.0032
     15 C           3.9801    0.2147   28.2567 C.ar    1  UNL1        0.0532
     16 C           4.5694    1.5876   28.1228 C.ar    1  UNL1        0.0032
     17 C           3.6704    2.7866   28.0581 C.ar    1  UNL1        0.0110
     18 C           0.1045    1.0661   28.3306 C.3     1  UNL1        0.0218
     19 C           0.1755    1.0553   29.8289 C.3     1  UNL1        0.0045
     20 C           0.0336    1.0770   26.8324 C.3     1  UNL1        0.0045
     21 C          -1.3837    0.8923   28.3998 C.3     1  UNL1        0.0045
     22 C           4.2598    4.1595   27.9241 C.3     1  UNL1        0.0218
     23 C           4.4840    4.2078   29.4065 C.3     1  UNL1        0.0045
     24 C           4.0356    4.1112   26.4418 C.3     1  UNL1        0.0045
     25 C           4.8492    5.5323   27.7902 C.3     1  UNL1        0.0045
     26 C           0.8871    4.5211   29.3236 C.3     1  UNL1        0.2524
     27 O           1.2832    3.8119   28.0627 O.3     1  UNL1       -0.4721
     28 C           5.7698   -3.4735   21.9763 C.3     1  UNL1        0.0853
     29 C           4.4724   -4.0246   21.4635 C.3     1  UNL1        0.0096
     30 C           4.2351   -4.1329   19.9863 C.3     1  UNL1        0.0012
     31 C           3.3348   -3.1508   19.2973 C.3     1  UNL1        0.0087
     32 C           3.5654   -1.6780   19.4626 C.3     1  UNL1        0.0446
     33 C           4.6699   -1.0021   18.7053 C.ar    1  UNL1       -0.0183
     34 C           6.0756   -1.0511   19.2261 C.ar    1  UNL1       -0.0017
     35 C           7.1801   -0.3752   18.4687 C.ar    1  UNL1        0.0293
     36 C           6.8786    0.3496   17.1906 C.ar    1  UNL1        0.1401
     37 F           7.9830    1.0254   16.4332 F       1  UNL1       -0.2042
     38 C           5.4727    0.3985   16.6697 C.ar    1  UNL1        0.0293
     39 C           4.3684   -0.2773   17.4271 C.ar    1  UNL1       -0.0017
     40 C           2.6917   -0.8809   20.3853 C.ar    1  UNL1       -0.0183
     41 C           3.1777   -0.5277   21.7597 C.ar    1  UNL1       -0.0017
     42 C           2.3040    0.2694   22.6823 C.ar    1  UNL1        0.0293
     43 C           0.9443    0.7133   22.2306 C.ar    1  UNL1        0.1401
     44 F           0.0706    1.5104   23.1532 F       1  UNL1       -0.2042
     45 C           0.4582    0.3601   20.8561 C.ar    1  UNL1        0.0293
     46 C           1.3319   -0.4370   19.9335 C.ar    1  UNL1       -0.0017
@<TRIPOS>BOND
     1    26    27    1
     2    27    12    1
     3    12    13   ar
     4    13    18    1
     5    18    19    1
     6    18    20    1
     7    18    21    1
     8    13    14   ar
     9    14    15   ar
    10    15     1    1
    11     1     2    2
    12     1     3   am
    13     3     4    1
    14     4     5    1
    15     5     6    1
    16     6     7   am
    17     7     8    2
    18     7    28    1
    19    28    29    1
    20    29    30    1
    21    30    31    1
    22    31    32    1
    23    32    33    1
    24    33    34   ar
    25    34    35   ar
    26    35    36   ar
    27    36    37    1
    28    36    38   ar
    29    38    39   ar
    30    32    40    1
    31    40    41   ar
    32    41    42   ar
    33    42    43   ar
    34    43    44    1
    35    43    45   ar
    36    45    46   ar
    37     6     9    1
    38     9    10    1
    39    10    11    1
    40    15    16   ar
    41    16    17   ar
    42    17    22    1
    43    22    23    1
    44    22    24    1
    45    22    25    1
    46    17    12   ar
    47    10     3    1
    48    39    33   ar
    49    46    40   ar
