@<TRIPOS>MOLECULE
*****
 22 24 0 0 0
SMALL
GASTEIGER

@<TRIPOS>ATOM
      1 C          -5.6581  -14.8449   25.9633 C.3     1  UNL1        0.0310
      2 C          -5.7548  -15.8363   24.8418 C.ar    1  UNL1       -0.0222
      3 C          -4.5279  -16.5612   24.3737 C.ar    1  UNL1       -0.0043
      4 C          -4.6246  -17.5526   23.2522 C.ar    1  UNL1       -0.0009
      5 C          -5.9482  -17.8191   22.5988 C.ar    1  UNL1       -0.0079
      6 C          -7.1751  -17.0943   23.0670 C.ar    1  UNL1       -0.0187
      7 C          -7.0784  -16.1028   24.1885 C.ar    1  UNL1       -0.0082
      8 C          -8.3343  -17.5610   22.2371 C.3     1  UNL1        0.0480
      9 C          -7.8237  -18.5743   21.2560 C.2     1  UNL1       -0.0420
     10 C          -6.3490  -18.7338   21.4796 C.2     1  UNL1       -0.0242
     11 C          -5.4356  -19.6477   20.7177 C.3     1  UNL1        0.0681
     12 C          -5.8662  -21.0506   20.4075 C.3     1  UNL1        0.0116
     13 C          -4.0914  -19.1586   20.2661 C.ar    1  UNL1        0.0919
     14 N          -3.8394  -18.1087   19.2248 N.ar    1  UNL1       -0.2408
     15 C          -2.3556  -17.9347   19.0915 C.ar    1  UNL1        0.1061
     16 C          -1.6904  -18.8772   20.0504 C.ar    1  UNL1        0.0572
     17 S          -2.7632  -19.6335   20.7763 S.2     1  UNL1       -0.0699
     18 C          -8.6438  -19.3006   20.2313 C.3     1  UNL1        0.0394
     19 C         -10.0632  -18.8878   19.9768 C.3     1  UNL1        0.0765
     20 N         -11.0849  -19.0022   21.0691 N.3     1  UNL1       -0.2700
     21 C         -11.0532  -20.1731   22.0061 C.3     1  UNL1        0.0897
     22 C         -12.1381  -17.9456   21.2245 C.3     1  UNL1        0.0897
@<TRIPOS>BOND
     1     1     2    1
     2     2     3   ar
     3     3     4   ar
     4     4     5   ar
     5     5     6   ar
     6     6     7   ar
     7     6     8    1
     8     8     9    1
     9     9    18    1
    10    18    19    1
    11    19    20    1
    12    20    21    1
    13    20    22    1
    14     9    10    2
    15    10    11    1
    16    11    12    1
    17    11    13    1
    18    13    14   ar
    19    14    15   ar
    20    15    16   ar
    21    16    17   ar
    22     7     2   ar
    23    17    13   ar
    24    10     5    1
@<TRIPOS>MOLECULE
*****
 22 24 0 0 0
SMALL
GASTEIGER

@<TRIPOS>ATOM
      1 C           0.2506    2.3793   18.9923 C.3     1  UNL1        0.0310
      2 C           1.1765    1.2053   19.1115 C.ar    1  UNL1       -0.0222
      3 C           0.8406    0.0764   20.0403 C.ar    1  UNL1       -0.0043
      4 C           1.7665   -1.0977   20.1594 C.ar    1  UNL1       -0.0009
      5 C           3.0284   -1.1429   19.3498 C.ar    1  UNL1       -0.0079
      6 C           3.3643   -0.0140   18.4210 C.ar    1  UNL1       -0.0187
      7 C           2.4384    1.1601   18.3018 C.ar    1  UNL1       -0.0082
      8 C           4.6695   -0.3346   17.7547 C.3     1  UNL1        0.0480
      9 C           5.1402   -1.6616   18.2718 C.2     1  UNL1       -0.0420
     10 C           4.1259   -2.1612   19.2576 C.2     1  UNL1       -0.0242
     11 C           4.1967   -3.4523   20.0178 C.3     1  UNL1        0.0681
     12 C           3.6120   -4.7021   19.4295 C.3     1  UNL1        0.0116
     13 C           4.8523   -3.4938   21.3663 C.ar    1  UNL1        0.0919
     14 N           6.0627   -4.2999   21.7338 N.ar    1  UNL1       -0.2408
     15 C           6.3711   -4.0409   23.1787 C.ar    1  UNL1        0.1061
     16 C           5.3512   -3.0745   23.7043 C.ar    1  UNL1        0.0572
     17 S           4.4126   -2.7364   22.5842 S.2     1  UNL1       -0.0699
     18 C           6.4034   -2.3656   17.8731 C.3     1  UNL1        0.0394
     19 C           7.6375   -2.2255   18.7142 C.3     1  UNL1        0.0765
     20 N           7.8526   -0.9851   19.5296 N.3     1  UNL1       -0.2700
     21 C           8.2890    0.2852   18.8618 C.3     1  UNL1        0.0897
     22 C           7.6312   -1.0149   21.0129 C.3     1  UNL1        0.0897
@<TRIPOS>BOND
     1     1     2    1
     2     2     3   ar
     3     3     4   ar
     4     4     5   ar
     5     5     6   ar
     6     6     7   ar
     7     6     8    1
     8     8     9    1
     9     9    18    1
    10    18    19    1
    11    19    20    1
    12    20    21    1
    13    20    22    1
    14     9    10    2
    15    10    11    1
    16    11    12    1
    17    11    13    1
    18    13    14   ar
    19    14    15   ar
    20    15    16   ar
    21    16    17   ar
    22     7     2   ar
    23    17    13   ar
    24    10     5    1
@<TRIPOS>MOLECULE
*****
 22 24 0 0 0
SMALL
GASTEIGER

@<TRIPOS>ATOM
      1 C           4.9958   -1.7391   26.7704 C.3     1  UNL1        0.0310
      2 C           4.4860   -1.5586   25.3712 C.ar    1  UNL1       -0.0222
      3 C           3.5813   -0.4075   25.0453 C.ar    1  UNL1       -0.0043
      4 C           3.0715   -0.2270   23.6462 C.ar    1  UNL1       -0.0009
      5 C           3.4666   -1.1976   22.5729 C.ar    1  UNL1       -0.0079
      6 C           4.3714   -2.3487   22.8989 C.ar    1  UNL1       -0.0187
      7 C           4.8811   -2.5292   24.2980 C.ar    1  UNL1       -0.0082
      8 C           4.5880   -3.1383   21.6420 C.3     1  UNL1        0.0480
      9 C           3.8171   -2.4752   20.5393 C.2     1  UNL1       -0.0420
     10 C           3.1240   -1.2757   21.1147 C.2     1  UNL1       -0.0242
     11 C           2.2431   -0.3219   20.3636 C.3     1  UNL1        0.0681
     12 C           0.7692   -0.5822   20.2640 C.3     1  UNL1        0.0116
     13 C           2.8359    0.8922   19.7122 C.ar    1  UNL1        0.0919
     14 N           2.1577    1.7717   18.7039 N.ar    1  UNL1       -0.2408
     15 C           3.1135    2.8630   18.3231 C.ar    1  UNL1        0.1061
     16 C           4.3827    2.6582   19.0961 C.ar    1  UNL1        0.0572
     17 S           4.2111    1.4402   19.9545 S.2     1  UNL1       -0.0699
     18 C           3.7509   -2.9314   19.1119 C.3     1  UNL1        0.0394
     19 C           4.9100   -2.6866   18.1918 C.3     1  UNL1        0.0765
     20 N           5.0322   -1.3766   17.4714 N.3     1  UNL1       -0.2700
     21 C           3.8624   -0.8275   16.7100 C.3     1  UNL1        0.0897
     22 C           6.3243   -0.6158   17.5125 C.3     1  UNL1        0.0897
@<TRIPOS>BOND
     1     1     2    1
     2     2     3   ar
     3     3     4   ar
     4     4     5   ar
     5     5     6   ar
     6     6     7   ar
     7     6     8    1
     8     8     9    1
     9     9    18    1
    10    18    19    1
    11    19    20    1
    12    20    21    1
    13    20    22    1
    14     9    10    2
    15    10    11    1
    16    11    12    1
    17    11    13    1
    18    13    14   ar
    19    14    15   ar
    20    15    16   ar
    21    16    17   ar
    22     7     2   ar
    23    17    13   ar
    24    10     5    1
@<TRIPOS>MOLECULE
*****
 22 24 0 0 0
SMALL
GASTEIGER

@<TRIPOS>ATOM
      1 C          -9.2714   -6.9291   18.4595 C.3     1  UNL1        0.0310
      2 C         -10.7639   -6.7833   18.4280 C.ar    1  UNL1       -0.0222
      3 C         -11.5819   -7.6402   17.5079 C.ar    1  UNL1       -0.0043
      4 C         -13.0745   -7.4945   17.4765 C.ar    1  UNL1       -0.0009
      5 C         -13.7491   -6.4918   18.3650 C.ar    1  UNL1       -0.0079
      6 C         -12.9311   -5.6349   19.2850 C.ar    1  UNL1       -0.0187
      7 C         -11.4385   -5.7806   19.3165 C.ar    1  UNL1       -0.0082
      8 C         -13.8682   -4.7394   20.0400 C.3     1  UNL1        0.0480
      9 C         -15.2654   -5.0430   19.5866 C.2     1  UNL1       -0.0420
     10 C         -15.1918   -6.1260   18.5513 C.2     1  UNL1       -0.0242
     11 C         -16.3564   -6.7361   17.8292 C.3     1  UNL1        0.0681
     12 C         -17.0208   -5.9886   16.7113 C.3     1  UNL1        0.0116
     13 C         -16.8566   -8.0937   18.2250 C.ar    1  UNL1        0.0919
     14 N         -17.7173   -8.9943   17.3894 N.ar    1  UNL1       -0.2408
     15 C         -17.9767  -10.2463   18.1736 C.ar    1  UNL1        0.1061
     16 C         -17.2763  -10.1195   19.4941 C.ar    1  UNL1        0.0572
     17 S         -16.5841   -8.7892   19.5258 S.2     1  UNL1       -0.0699
     18 C         -16.5167   -4.3799   20.0814 C.3     1  UNL1        0.0394
     19 C         -17.0575   -3.1742   19.3717 C.3     1  UNL1        0.0765
     20 N         -16.1180   -2.1335   18.8385 N.3     1  UNL1       -0.2700
     21 C         -15.5774   -1.0729   19.7511 C.3     1  UNL1        0.0897
     22 C         -15.7191   -2.1535   17.3927 C.3     1  UNL1        0.0897
@<TRIPOS>BOND
     1     1     2    1
     2     2     3   ar
     3     3     4   ar
     4     4     5   ar
     5     5     6   ar
     6     6     7   ar
     7     6     8    1
     8     8     9    1
     9     9    18    1
    10    18    19    1
    11    19    20    1
    12    20    21    1
    13    20    22    1
    14     9    10    2
    15    10    11    1
    16    11    12    1
    17    11    13    1
    18    13    14   ar
    19    14    15   ar
    20    15    16   ar
    21    16    17   ar
    22     7     2   ar
    23    17    13   ar
    24    10     5    1
@<TRIPOS>MOLECULE
*****
 22 24 0 0 0
SMALL
GASTEIGER

@<TRIPOS>ATOM
      1 C          -5.8331  -14.3134   27.0430 C.3     1  UNL1        0.0310
      2 C          -6.5947  -15.1488   26.0571 C.ar    1  UNL1       -0.0222
      3 C          -6.1905  -15.1593   24.6126 C.ar    1  UNL1       -0.0043
      4 C          -6.9521  -15.9946   23.6267 C.ar    1  UNL1       -0.0009
      5 C          -8.1180  -16.8195   24.0852 C.ar    1  UNL1       -0.0079
      6 C          -8.5222  -16.8090   25.5296 C.ar    1  UNL1       -0.0187
      7 C          -7.7606  -15.9737   26.5155 C.ar    1  UNL1       -0.0082
      8 C          -9.7056  -17.7174   25.6864 C.3     1  UNL1        0.0480
      9 C         -10.0327  -18.2893   24.3388 C.2     1  UNL1       -0.0420
     10 C          -9.0515  -17.7344   23.3492 C.2     1  UNL1       -0.0242
     11 C          -9.0109  -18.0405   21.8814 C.3     1  UNL1        0.0681
     12 C         -10.0972  -17.5344   20.9793 C.3     1  UNL1        0.0116
     13 C          -7.8840  -18.8528   21.3155 C.ar    1  UNL1        0.0919
     14 N          -7.3968  -18.8172   19.8973 N.ar    1  UNL1       -0.2408
     15 C          -6.2582  -19.7856   19.7736 C.ar    1  UNL1        0.1061
     16 C          -6.0415  -20.4200   21.1156 C.ar    1  UNL1        0.0572
     17 S          -7.0463  -19.8435   22.0685 S.2     1  UNL1       -0.0699
     18 C         -11.1456  -19.2479   24.0343 C.3     1  UNL1        0.0394
     19 C         -12.4756  -19.0920   24.7100 C.3     1  UNL1        0.0765
     20 N         -13.5422  -18.2459   24.0804 N.3     1  UNL1       -0.2700
     21 C         -13.2000  -17.3337   22.9398 C.3     1  UNL1        0.0897
     22 C         -14.9509  -18.3119   24.5913 C.3     1  UNL1        0.0897
@<TRIPOS>BOND
     1     1     2    1
     2     2     3   ar
     3     3     4   ar
     4     4     5   ar
     5     5     6   ar
     6     6     7   ar
     7     6     8    1
     8     8     9    1
     9     9    18    1
    10    18    19    1
    11    19    20    1
    12    20    21    1
    13    20    22    1
    14     9    10    2
    15    10    11    1
    16    11    12    1
    17    11    13    1
    18    13    14   ar
    19    14    15   ar
    20    15    16   ar
    21    16    17   ar
    22     7     2   ar
    23    17    13   ar
    24    10     5    1
@<TRIPOS>MOLECULE
*****
 22 24 0 0 0
SMALL
GASTEIGER

@<TRIPOS>ATOM
      1 C          -9.2563   -7.7331   18.6856 C.3     1  UNL1        0.0310
      2 C         -10.2381   -6.6014   18.7591 C.ar    1  UNL1       -0.0222
      3 C         -11.6880   -6.8821   19.0216 C.ar    1  UNL1       -0.0043
      4 C         -12.6697   -5.7503   19.0951 C.ar    1  UNL1       -0.0009
      5 C         -12.2015   -4.3379   18.9061 C.ar    1  UNL1       -0.0079
      6 C         -10.7516   -4.0572   18.6436 C.ar    1  UNL1       -0.0187
      7 C          -9.7699   -5.1889   18.5701 C.ar    1  UNL1       -0.0082
      8 C         -10.5855   -2.5734   18.4990 C.3     1  UNL1        0.0480
      9 C         -11.9327   -1.9371   18.6722 C.2     1  UNL1       -0.0420
     10 C         -12.9315   -3.0276   18.9238 C.2     1  UNL1       -0.0242
     11 C         -14.4020   -2.8407   19.1528 C.3     1  UNL1        0.0681
     12 C         -14.8981   -2.3535   20.4819 C.3     1  UNL1        0.0116
     13 C         -15.3766   -3.1411   18.0528 C.ar    1  UNL1        0.0919
     14 N         -15.8122   -2.1908   16.9770 N.ar    1  UNL1       -0.2408
     15 C         -16.7915   -2.9067   16.0948 C.ar    1  UNL1        0.1061
     16 C         -16.9612   -4.2995   16.6253 C.ar    1  UNL1        0.0572
     17 S         -16.0868   -4.4443   17.8354 S.2     1  UNL1       -0.0699
     18 C         -12.2292   -0.4682   18.6055 C.3     1  UNL1        0.0394
     19 C         -12.8362    0.1189   17.3657 C.3     1  UNL1        0.0765
     20 N         -14.1544    0.8307   17.4407 N.3     1  UNL1       -0.2700
     21 C         -14.7878    1.3698   16.1925 C.3     1  UNL1        0.0897
     22 C         -14.8392    1.0034   18.7640 C.3     1  UNL1        0.0897
@<TRIPOS>BOND
     1     1     2    1
     2     2     3   ar
     3     3     4   ar
     4     4     5   ar
     5     5     6   ar
     6     6     7   ar
     7     6     8    1
     8     8     9    1
     9     9    18    1
    10    18    19    1
    11    19    20    1
    12    20    21    1
    13    20    22    1
    14     9    10    2
    15    10    11    1
    16    11    12    1
    17    11    13    1
    18    13    14   ar
    19    14    15   ar
    20    15    16   ar
    21    16    17   ar
    22     7     2   ar
    23    17    13   ar
    24    10     5    1
@<TRIPOS>MOLECULE
*****
 22 24 0 0 0
SMALL
GASTEIGER

@<TRIPOS>ATOM
      1 C           3.6063   -0.5633   26.6325 C.3     1  UNL1        0.0310
      2 C           3.6380   -0.9245   25.1770 C.ar    1  UNL1       -0.0222
      3 C           4.5120   -2.0469   24.7016 C.ar    1  UNL1       -0.0043
      4 C           4.5437   -2.4081   23.2461 C.ar    1  UNL1       -0.0009
      5 C           3.7013   -1.6469   22.2659 C.ar    1  UNL1       -0.0079
      6 C           2.8272   -0.5244   22.7413 C.ar    1  UNL1       -0.0187
      7 C           2.7956   -0.1632   24.1968 C.ar    1  UNL1       -0.0082
      8 C           2.1119    0.0422   21.5507 C.3     1  UNL1        0.0480
      9 C           2.5439   -0.7301   20.3396 C.2     1  UNL1       -0.0420
     10 C           3.5262   -1.7740   20.7816 C.2     1  UNL1       -0.0242
     11 C           4.2129   -2.7702   19.8950 C.3     1  UNL1        0.0681
     12 C           3.4230   -3.8708   19.2510 C.3     1  UNL1        0.0116
     13 C           5.6894   -2.6659   19.6524 C.ar    1  UNL1        0.0919
     14 N           6.7695   -3.2070   20.5416 N.ar    1  UNL1       -0.2408
     15 C           8.0927   -2.8777   19.9168 C.ar    1  UNL1        0.1061
     16 C           7.8306   -2.1330   18.6413 C.ar    1  UNL1        0.0572
     17 S           6.3453   -2.0021   18.4779 S.2     1  UNL1       -0.0699
     18 C           2.0758   -0.4991   18.9333 C.3     1  UNL1        0.0394
     19 C           2.9370    0.2656   17.9723 C.3     1  UNL1        0.0765
     20 N           3.5769    1.5532   18.3996 N.3     1  UNL1       -0.2700
     21 C           2.7591    2.8084   18.4746 C.3     1  UNL1        0.0897
     22 C           5.0345    1.5856   18.7521 C.3     1  UNL1        0.0897
@<TRIPOS>BOND
     1     1     2    1
     2     2     3   ar
     3     3     4   ar
     4     4     5   ar
     5     5     6   ar
     6     6     7   ar
     7     6     8    1
     8     8     9    1
     9     9    18    1
    10    18    19    1
    11    19    20    1
    12    20    21    1
    13    20    22    1
    14     9    10    2
    15    10    11    1
    16    11    12    1
    17    11    13    1
    18    13    14   ar
    19    14    15   ar
    20    15    16   ar
    21    16    17   ar
    22     7     2   ar
    23    17    13   ar
    24    10     5    1
@<TRIPOS>MOLECULE
*****
 22 24 0 0 0
SMALL
GASTEIGER

@<TRIPOS>ATOM
      1 C           0.1737    2.0925   23.8815 C.3     1  UNL1        0.0310
      2 C           1.1508    1.0915   23.3400 C.ar    1  UNL1       -0.0222
      3 C           2.2810    0.6064   24.1986 C.ar    1  UNL1       -0.0043
      4 C           3.2582   -0.3946   23.6571 C.ar    1  UNL1       -0.0009
      5 C           3.1051   -0.9105   22.2570 C.ar    1  UNL1       -0.0079
      6 C           1.9749   -0.4254   21.3984 C.ar    1  UNL1       -0.0187
      7 C           0.9978    0.5756   21.9399 C.ar    1  UNL1       -0.0082
      8 C           2.0780   -1.1084   20.0668 C.3     1  UNL1        0.0480
      9 C           3.2720   -2.0156   20.1026 C.2     1  UNL1       -0.0420
     10 C           3.9068   -1.8933   21.4562 C.2     1  UNL1       -0.0242
     11 C           5.1287   -2.6253   21.9264 C.3     1  UNL1        0.0681
     12 C           4.9863   -3.8931   22.7153 C.3     1  UNL1        0.0116
     13 C           6.4930   -2.0896   21.6077 C.ar    1  UNL1        0.0919
     14 N           7.7725   -2.8724   21.6195 N.ar    1  UNL1       -0.2408
     15 C           8.8877   -1.9437   21.2404 C.ar    1  UNL1        0.1061
     16 C           8.2975   -0.5868   20.9943 C.ar    1  UNL1        0.0572
     17 S           6.8175   -0.6769   21.2213 S.2     1  UNL1       -0.0699
     18 C           3.7478   -2.8915   18.9816 C.3     1  UNL1        0.0394
     19 C           5.0042   -2.5437   18.2396 C.3     1  UNL1        0.0765
     20 N           5.0896   -1.2590   17.4700 N.3     1  UNL1       -0.2700
     21 C           6.3681   -0.4747   17.4594 C.3     1  UNL1        0.0897
     22 C           3.8964   -0.7587   16.7111 C.3     1  UNL1        0.0897
@<TRIPOS>BOND
     1     1     2    1
     2     2     3   ar
     3     3     4   ar
     4     4     5   ar
     5     5     6   ar
     6     6     7   ar
     7     6     8    1
     8     8     9    1
     9     9    18    1
    10    18    19    1
    11    19    20    1
    12    20    21    1
    13    20    22    1
    14     9    10    2
    15    10    11    1
    16    11    12    1
    17    11    13    1
    18    13    14   ar
    19    14    15   ar
    20    15    16   ar
    21    16    17   ar
    22     7     2   ar
    23    17    13   ar
    24    10     5    1
@<TRIPOS>MOLECULE
*****
 22 24 0 0 0
SMALL
GASTEIGER

@<TRIPOS>ATOM
      1 C           6.8544   -3.6251   26.0944 C.3     1  UNL1        0.0310
      2 C           6.1550   -3.3108   24.8053 C.ar    1  UNL1       -0.0222
      3 C           6.5540   -4.0175   23.5438 C.ar    1  UNL1       -0.0043
      4 C           5.8545   -3.7032   22.2546 C.ar    1  UNL1       -0.0009
      5 C           4.7561   -2.6822   22.2269 C.ar    1  UNL1       -0.0079
      6 C           4.3570   -1.9755   23.4883 C.ar    1  UNL1       -0.0187
      7 C           5.0565   -2.2898   24.7775 C.ar    1  UNL1       -0.0082
      8 C           3.2464   -1.0238   23.1551 C.3     1  UNL1        0.0480
      9 C           2.9591   -1.1424   21.6877 C.2     1  UNL1       -0.0420
     10 C           3.8921   -2.1673   21.1140 C.2     1  UNL1       -0.0242
     11 C           3.9509   -2.6012   19.6794 C.3     1  UNL1        0.0681
     12 C           3.4164   -3.9446   19.2796 C.3     1  UNL1        0.0116
     13 C           4.5440   -1.6919   18.6444 C.ar    1  UNL1        0.0919
     14 N           3.7817   -0.9147   17.6125 N.ar    1  UNL1       -0.2408
     15 C           4.7700   -0.1425   16.7899 C.ar    1  UNL1        0.1061
     16 C           6.1434   -0.4424   17.3134 C.ar    1  UNL1        0.0572
     17 S           6.0037   -1.3999   18.4595 S.2     1  UNL1       -0.0699
     18 C           1.9211   -0.3714   20.9273 C.3     1  UNL1        0.0394
     19 C           2.0113    1.1234   20.8403 C.3     1  UNL1        0.0765
     20 N           2.9018    1.7627   19.8164 N.3     1  UNL1       -0.2700
     21 C           4.3825    1.8290   20.0469 C.3     1  UNL1        0.0897
     22 C           2.3116    2.3356   18.5621 C.3     1  UNL1        0.0897
@<TRIPOS>BOND
     1     1     2    1
     2     2     3   ar
     3     3     4   ar
     4     4     5   ar
     5     5     6   ar
     6     6     7   ar
     7     6     8    1
     8     8     9    1
     9     9    18    1
    10    18    19    1
    11    19    20    1
    12    20    21    1
    13    20    22    1
    14     9    10    2
    15    10    11    1
    16    11    12    1
    17    11    13    1
    18    13    14   ar
    19    14    15   ar
    20    15    16   ar
    21    16    17   ar
    22     7     2   ar
    23    17    13   ar
    24    10     5    1
