@<TRIPOS>MOLECULE
*****
 23 25 0 0 0
SMALL
GASTEIGER

@<TRIPOS>ATOM
      1 C          -7.6151  -16.9510   22.5887 C.3     1  UNL1        0.1959
      2 C          -7.0187  -18.1363   21.8890 C.ar    1  UNL1        0.0513
      3 C          -7.8326  -18.9063   20.8918 C.ar    1  UNL1        0.0022
      4 C          -7.2361  -20.0915   20.1921 C.ar    1  UNL1       -0.0000
      5 C          -5.8257  -20.5066   20.4898 C.ar    1  UNL1        0.0031
      6 C          -5.0118  -19.7366   21.4870 C.ar    1  UNL1        0.0367
      7 C          -5.6083  -18.5514   22.1866 C.ar    1  UNL1        0.1379
      8 O          -4.7944  -17.7813   23.1839 O.3     1  UNL1       -0.4755
      9 C          -5.3909  -16.5961   23.8836 C.3     1  UNL1        0.2106
     10 C          -6.8012  -16.1810   23.5860 C.3     1  UNL1        0.1038
     11 O          -9.0255  -16.5359   22.2911 O.3     1  UNL1       -0.4748
     12 C         -11.5687  -17.0419   22.4521 C.ar    1  UNL1        0.0118
     13 C         -12.7139  -17.7436   23.1201 C.ar    1  UNL1       -0.0013
     14 C         -12.4610  -18.6410   24.2951 C.ar    1  UNL1       -0.0001
     15 C         -11.0629  -18.8367   24.8022 C.ar    1  UNL1        0.0031
     16 C          -9.9177  -18.1350   24.1342 C.ar    1  UNL1        0.0366
     17 C         -10.1706  -17.2376   22.9591 C.ar    1  UNL1        0.1348
     18 C         -11.5344  -16.6298   19.8871 C.3     1  UNL1        0.0051
     19 C         -11.8216  -16.1445   21.2771 C.3     1  UNL1        0.0294
     20 C          -7.3977  -14.9957   24.2857 C.3     1  UNL1        0.0763
     21 N          -7.2894  -14.8722   25.7766 N.3     1  UNL1       -0.2961
     22 C          -8.1432  -15.7286   26.6640 C.3     1  UNL1        0.0859
     23 H          -7.5043  -13.9023   26.0081 H       1  UNL1        0.1233
@<TRIPOS>BOND
     1    18    19    1
     2    19    12    1
     3    12    13   ar
     4    13    14   ar
     5    14    15   ar
     6    15    16   ar
     7    16    17   ar
     8    17    11    1
     9     1    11    1
    10     1     2    1
    11     2     3   ar
    12     3     4   ar
    13     4     5   ar
    14     5     6   ar
    15     6     7   ar
    16     7     8    1
    17     8     9    1
    18     9    10    1
    19    10    20    1
    20    20    21    1
    21    21    22    1
    22    17    12   ar
    23    10     1    1
    24     7     2   ar
    25    21    23    1
@<TRIPOS>MOLECULE
*****
 23 25 0 0 0
SMALL
GASTEIGER

@<TRIPOS>ATOM
      1 C          -7.4917  -17.8032   21.9199 C.3     1  UNL1        0.1959
      2 C          -6.9580  -16.8920   22.9853 C.ar    1  UNL1        0.0513
      3 C          -7.8261  -15.8052   23.5466 C.ar    1  UNL1        0.0022
      4 C          -7.2924  -14.8941   24.6120 C.ar    1  UNL1       -0.0000
      5 C          -5.8906  -15.0698   25.1160 C.ar    1  UNL1        0.0031
      6 C          -5.0225  -16.1566   24.5546 C.ar    1  UNL1        0.0367
      7 C          -5.5562  -17.0677   23.4893 C.ar    1  UNL1        0.1379
      8 O          -4.6880  -18.1546   22.9279 O.3     1  UNL1       -0.4755
      9 C          -5.2217  -19.0657   21.8626 C.3     1  UNL1        0.2106
     10 C          -6.6235  -18.8900   21.3586 C.3     1  UNL1        0.1038
     11 O          -8.8935  -17.6275   21.4159 O.3     1  UNL1       -0.4748
     12 C         -11.3117  -17.1134   22.2145 C.ar    1  UNL1        0.0118
     13 C         -12.4749  -17.4146   23.1125 C.ar    1  UNL1       -0.0013
     14 C         -12.3829  -18.5312   24.1098 C.ar    1  UNL1       -0.0001
     15 C         -11.1278  -19.3466   24.2092 C.ar    1  UNL1        0.0031
     16 C          -9.9647  -19.0454   23.3112 C.ar    1  UNL1        0.0366
     17 C         -10.0566  -17.9288   22.3138 C.ar    1  UNL1        0.1348
     18 C         -11.6555  -16.3022   19.7704 C.3     1  UNL1        0.0051
     19 C         -11.4037  -15.9967   21.2172 C.3     1  UNL1        0.0294
     20 C          -7.1572  -19.8012   20.2932 C.3     1  UNL1        0.0763
     21 N          -8.1014  -19.2700   19.2558 N.3     1  UNL1       -0.2961
     22 C          -9.3633  -20.0160   18.9379 C.3     1  UNL1        0.0859
     23 H          -7.5738  -19.1998   18.3857 H       1  UNL1        0.1233
@<TRIPOS>BOND
     1    18    19    1
     2    19    12    1
     3    12    13   ar
     4    13    14   ar
     5    14    15   ar
     6    15    16   ar
     7    16    17   ar
     8    17    11    1
     9     1    11    1
    10     1     2    1
    11     2     3   ar
    12     3     4   ar
    13     4     5   ar
    14     5     6   ar
    15     6     7   ar
    16     7     8    1
    17     8     9    1
    18     9    10    1
    19    10    20    1
    20    20    21    1
    21    21    22    1
    22    17    12   ar
    23    10     1    1
    24     7     2   ar
    25    21    23    1
@<TRIPOS>MOLECULE
*****
 23 25 0 0 0
SMALL
GASTEIGER

@<TRIPOS>ATOM
      1 C          -6.5266  -18.8961   21.2985 C.3     1  UNL1        0.1959
      2 C          -5.1708  -18.6644   21.8972 C.ar    1  UNL1        0.0513
      3 C          -4.9915  -17.6324   22.9708 C.ar    1  UNL1        0.0022
      4 C          -3.6359  -17.4007   23.5695 C.ar    1  UNL1       -0.0000
      5 C          -2.4595  -18.2011   23.0946 C.ar    1  UNL1        0.0031
      6 C          -2.6388  -19.2331   22.0210 C.ar    1  UNL1        0.0367
      7 C          -3.9945  -19.4648   21.4223 C.ar    1  UNL1        0.1379
      8 O          -4.1738  -20.4969   20.3486 O.3     1  UNL1       -0.4755
      9 C          -5.5295  -20.7286   19.7499 C.3     1  UNL1        0.2106
     10 C          -6.7058  -19.9282   20.2249 C.3     1  UNL1        0.1038
     11 O          -7.7029  -18.0958   21.7734 O.3     1  UNL1       -0.4748
     12 C          -9.1547  -17.6222   23.8753 C.ar    1  UNL1        0.0118
     13 C          -9.9903  -18.1219   25.0165 C.ar    1  UNL1       -0.0013
     14 C         -10.2097  -19.5947   25.1967 C.ar    1  UNL1       -0.0001
     15 C          -9.5935  -20.5679   24.2359 C.ar    1  UNL1        0.0031
     16 C          -8.7579  -20.0683   23.0948 C.ar    1  UNL1        0.0366
     17 C          -8.5385  -18.5954   22.9145 C.ar    1  UNL1        0.1348
     18 C          -7.7542  -15.4830   24.3362 C.3     1  UNL1        0.0051
     19 C          -8.9352  -16.1493   23.6951 C.3     1  UNL1        0.0294
     20 C          -8.0616  -20.1599   19.6261 C.3     1  UNL1        0.0763
     21 N          -8.9632  -18.9962   19.3383 N.3     1  UNL1       -0.2961
     22 C         -10.4240  -19.0798   19.6680 C.3     1  UNL1        0.0859
     23 H          -8.8973  -18.8134   18.3369 H       1  UNL1        0.1233
@<TRIPOS>BOND
     1    18    19    1
     2    19    12    1
     3    12    13   ar
     4    13    14   ar
     5    14    15   ar
     6    15    16   ar
     7    16    17   ar
     8    17    11    1
     9     1    11    1
    10     1     2    1
    11     2     3   ar
    12     3     4   ar
    13     4     5   ar
    14     5     6   ar
    15     6     7   ar
    16     7     8    1
    17     8     9    1
    18     9    10    1
    19    10    20    1
    20    20    21    1
    21    21    22    1
    22    17    12   ar
    23    10     1    1
    24     7     2   ar
    25    21    23    1
@<TRIPOS>MOLECULE
*****
 23 25 0 0 0
SMALL
GASTEIGER

@<TRIPOS>ATOM
      1 C          -9.1625  -17.6307   21.7595 C.3     1  UNL1        0.1959
      2 C          -7.7549  -18.1485   21.7843 C.ar    1  UNL1        0.0513
      3 C          -6.7485  -17.5407   22.7158 C.ar    1  UNL1        0.0022
      4 C          -5.3409  -18.0585   22.7406 C.ar    1  UNL1       -0.0000
      5 C          -4.9398  -19.1841   21.8339 C.ar    1  UNL1        0.0031
      6 C          -5.9461  -19.7919   20.9024 C.ar    1  UNL1        0.0367
      7 C          -7.3537  -19.2741   20.8776 C.ar    1  UNL1        0.1379
      8 O          -8.3602  -19.8819   19.9461 O.3     1  UNL1       -0.4755
      9 C          -9.7677  -19.3642   19.9213 C.3     1  UNL1        0.2106
     10 C         -10.1689  -18.2386   20.8280 C.3     1  UNL1        0.1038
     11 O          -9.5637  -16.5051   22.6662 O.3     1  UNL1       -0.4748
     12 C          -9.6354  -17.6792   24.9828 C.ar    1  UNL1        0.0118
     13 C          -9.2571  -17.7137   26.4339 C.ar    1  UNL1       -0.0013
     14 C          -8.4287  -16.6088   27.0195 C.ar    1  UNL1       -0.0001
     15 C          -7.9786  -15.4693   26.1540 C.ar    1  UNL1        0.0031
     16 C          -8.3569  -15.4348   24.7029 C.ar    1  UNL1        0.0366
     17 C          -9.1854  -16.5397   24.1173 C.ar    1  UNL1        0.1348
     18 C          -9.9703  -20.1996   24.4489 C.3     1  UNL1        0.0051
     19 C         -10.4638  -18.7841   24.3972 C.3     1  UNL1        0.0294
     20 C         -11.5765  -17.7208   20.8032 C.3     1  UNL1        0.0763
     21 N         -11.8330  -16.2537   20.6252 N.3     1  UNL1       -0.2961
     22 C         -11.6946  -15.6273   19.2693 C.3     1  UNL1        0.0859
     23 H         -11.1854  -15.7644   21.2430 H       1  UNL1        0.1233
@<TRIPOS>BOND
     1    18    19    1
     2    19    12    1
     3    12    13   ar
     4    13    14   ar
     5    14    15   ar
     6    15    16   ar
     7    16    17   ar
     8    17    11    1
     9     1    11    1
    10     1     2    1
    11     2     3   ar
    12     3     4   ar
    13     4     5   ar
    14     5     6   ar
    15     6     7   ar
    16     7     8    1
    17     8     9    1
    18     9    10    1
    19    10    20    1
    20    20    21    1
    21    21    22    1
    22    17    12   ar
    23    10     1    1
    24     7     2   ar
    25    21    23    1
@<TRIPOS>MOLECULE
*****
 23 25 0 0 0
SMALL
GASTEIGER

@<TRIPOS>ATOM
      1 C          -8.2044  -17.5994   23.1839 C.3     1  UNL1        0.1959
      2 C          -7.2301  -16.7443   23.9386 C.ar    1  UNL1        0.0513
      3 C          -7.7253  -15.7769   24.9725 C.ar    1  UNL1        0.0022
      4 C          -6.7510  -14.9219   25.7271 C.ar    1  UNL1       -0.0000
      5 C          -5.2815  -15.0342   25.4480 C.ar    1  UNL1        0.0031
      6 C          -4.7863  -16.0016   24.4141 C.ar    1  UNL1        0.0367
      7 C          -5.7606  -16.8567   23.6595 C.ar    1  UNL1        0.1379
      8 O          -5.2654  -17.8241   22.6256 O.3     1  UNL1       -0.4755
      9 C          -6.2397  -18.6792   21.8709 C.3     1  UNL1        0.2106
     10 C          -7.7092  -18.5668   22.1500 C.3     1  UNL1        0.1038
     11 O          -9.6739  -17.4871   23.4630 O.3     1  UNL1       -0.4748
     12 C         -12.0480  -17.4365   22.4091 C.ar    1  UNL1        0.0118
     13 C         -12.9821  -16.9668   21.3333 C.ar    1  UNL1       -0.0013
     14 C         -12.4759  -16.0783   20.2360 C.ar    1  UNL1       -0.0001
     15 C         -11.0358  -15.6593   20.2143 C.ar    1  UNL1        0.0031
     16 C         -10.1018  -16.1289   21.2899 C.ar    1  UNL1        0.0366
     17 C         -10.6079  -17.0175   22.3874 C.ar    1  UNL1        0.1348
     18 C         -13.8974  -18.0660   24.1218 C.3     1  UNL1        0.0051
     19 C         -12.5542  -18.3250   23.5064 C.3     1  UNL1        0.0294
     20 C          -8.6835  -19.4219   21.3953 C.3     1  UNL1        0.0763
     21 N          -8.9810  -19.1274   19.9549 N.3     1  UNL1       -0.2961
     22 C         -10.3607  -19.3549   19.4124 C.3     1  UNL1        0.0859
     23 H          -8.3477  -19.7028   19.3998 H       1  UNL1        0.1233
@<TRIPOS>BOND
     1    18    19    1
     2    19    12    1
     3    12    13   ar
     4    13    14   ar
     5    14    15   ar
     6    15    16   ar
     7    16    17   ar
     8    17    11    1
     9     1    11    1
    10     1     2    1
    11     2     3   ar
    12     3     4   ar
    13     4     5   ar
    14     5     6   ar
    15     6     7   ar
    16     7     8    1
    17     8     9    1
    18     9    10    1
    19    10    20    1
    20    20    21    1
    21    21    22    1
    22    17    12   ar
    23    10     1    1
    24     7     2   ar
    25    21    23    1
@<TRIPOS>MOLECULE
*****
 23 25 0 0 0
SMALL
GASTEIGER

@<TRIPOS>ATOM
      1 C          -8.3691  -17.4071   22.8224 C.3     1  UNL1        0.1959
      2 C          -7.6746  -16.6459   23.9126 C.ar    1  UNL1        0.0513
      3 C          -6.3614  -15.9746   23.6393 C.ar    1  UNL1        0.0022
      4 C          -5.6671  -15.2134   24.7294 C.ar    1  UNL1       -0.0000
      5 C          -6.2860  -15.1235   26.0928 C.ar    1  UNL1        0.0031
      6 C          -7.5992  -15.7948   26.3661 C.ar    1  UNL1        0.0367
      7 C          -8.2935  -16.5560   25.2760 C.ar    1  UNL1        0.1379
      8 O          -9.6068  -17.2274   25.5492 O.3     1  UNL1       -0.4755
      9 C         -10.3011  -17.9886   24.4591 C.3     1  UNL1        0.2106
     10 C          -9.6823  -18.0785   23.0957 C.3     1  UNL1        0.1038
     11 O          -7.7502  -17.4970   21.4590 O.3     1  UNL1       -0.4748
     12 C          -7.1966  -19.5990   20.0360 C.ar    1  UNL1        0.0118
     13 C          -6.2781  -20.7372   19.7028 C.ar    1  UNL1       -0.0013
     14 C          -4.9946  -20.9113   20.4594 C.ar    1  UNL1       -0.0001
     15 C          -4.6297  -19.9474   21.5492 C.ar    1  UNL1        0.0031
     16 C          -5.5482  -18.8093   21.8824 C.ar    1  UNL1        0.0366
     17 C          -6.8317  -18.6351   21.1258 C.ar    1  UNL1        0.1348
     18 C          -9.0309  -20.5584   18.4660 C.3     1  UNL1        0.0051
     19 C          -8.4800  -19.4249   19.2794 C.3     1  UNL1        0.0294
     20 C         -10.3767  -18.8397   22.0055 C.3     1  UNL1        0.0763
     21 N         -11.2901  -18.1237   21.0554 N.3     1  UNL1       -0.2961
     22 C         -12.6543  -17.6937   21.5070 C.3     1  UNL1        0.0859
     23 H         -11.4260  -18.7417   20.2554 H       1  UNL1        0.1233
@<TRIPOS>BOND
     1    18    19    1
     2    19    12    1
     3    12    13   ar
     4    13    14   ar
     5    14    15   ar
     6    15    16   ar
     7    16    17   ar
     8    17    11    1
     9     1    11    1
    10     1     2    1
    11     2     3   ar
    12     3     4   ar
    13     4     5   ar
    14     5     6   ar
    15     6     7   ar
    16     7     8    1
    17     8     9    1
    18     9    10    1
    19    10    20    1
    20    20    21    1
    21    21    22    1
    22    17    12   ar
    23    10     1    1
    24     7     2   ar
    25    21    23    1
@<TRIPOS>MOLECULE
*****
 23 25 0 0 0
SMALL
GASTEIGER

@<TRIPOS>ATOM
      1 C          -9.3615  -17.1057   23.8374 C.3     1  UNL1        0.1959
      2 C          -8.2132  -16.4361   24.5324 C.ar    1  UNL1        0.0513
      3 C          -7.3182  -15.5023   23.7727 C.ar    1  UNL1        0.0022
      4 C          -6.1699  -14.8327   24.4677 C.ar    1  UNL1       -0.0000
      5 C          -5.9166  -15.0969   25.9224 C.ar    1  UNL1        0.0031
      6 C          -6.8115  -16.0306   26.6821 C.ar    1  UNL1        0.0367
      7 C          -7.9598  -16.7002   25.9871 C.ar    1  UNL1        0.1379
      8 O          -8.8548  -17.6340   26.7468 O.3     1  UNL1       -0.4755
      9 C         -10.0031  -18.3036   26.0518 C.3     1  UNL1        0.2106
     10 C         -10.2565  -18.0395   24.5971 C.3     1  UNL1        0.1038
     11 O          -9.6149  -16.8416   22.3828 O.3     1  UNL1       -0.4748
     12 C         -10.1843  -18.2244   20.2583 C.ar    1  UNL1        0.0118
     13 C          -9.7972  -19.2473   19.2317 C.ar    1  UNL1       -0.0013
     14 C          -8.4536  -19.9104   19.3032 C.ar    1  UNL1       -0.0001
     15 C          -7.4971  -19.5506   20.4012 C.ar    1  UNL1        0.0031
     16 C          -7.8842  -18.5277   21.4277 C.ar    1  UNL1        0.0366
     17 C          -9.2278  -17.8645   21.3563 C.ar    1  UNL1        0.1348
     18 C         -11.6437  -16.1541   19.6805 C.3     1  UNL1        0.0051
     19 C         -11.5278  -17.5613   20.1868 C.3     1  UNL1        0.0294
     20 C         -11.4048  -18.7091   23.9022 C.3     1  UNL1        0.0763
     21 N         -12.5740  -17.8958   23.4316 N.3     1  UNL1       -0.2961
     22 C         -13.9073  -18.0409   24.1031 C.3     1  UNL1        0.0859
     23 H         -12.7138  -18.1233   22.4471 H       1  UNL1        0.1233
@<TRIPOS>BOND
     1    18    19    1
     2    19    12    1
     3    12    13   ar
     4    13    14   ar
     5    14    15   ar
     6    15    16   ar
     7    16    17   ar
     8    17    11    1
     9     1    11    1
    10     1     2    1
    11     2     3   ar
    12     3     4   ar
    13     4     5   ar
    14     5     6   ar
    15     6     7   ar
    16     7     8    1
    17     8     9    1
    18     9    10    1
    19    10    20    1
    20    20    21    1
    21    21    22    1
    22    17    12   ar
    23    10     1    1
    24     7     2   ar
    25    21    23    1
@<TRIPOS>MOLECULE
*****
 23 25 0 0 0
SMALL
GASTEIGER

@<TRIPOS>ATOM
      1 C          -8.3897  -16.9408   22.2029 C.3     1  UNL1        0.1959
      2 C          -9.8505  -17.2633   22.0926 C.ar    1  UNL1        0.0513
      3 C         -10.3838  -17.9110   20.8493 C.ar    1  UNL1        0.0022
      4 C         -11.8445  -18.2334   20.7390 C.ar    1  UNL1       -0.0000
      5 C         -12.7720  -17.9081   21.8721 C.ar    1  UNL1        0.0031
      6 C         -12.2387  -17.2603   23.1155 C.ar    1  UNL1        0.0367
      7 C         -10.7780  -16.9379   23.2257 C.ar    1  UNL1        0.1379
      8 O         -10.2446  -16.2901   24.4691 O.3     1  UNL1       -0.4755
      9 C          -8.7839  -15.9677   24.5794 C.3     1  UNL1        0.2106
     10 C          -7.8564  -16.2931   23.4463 C.3     1  UNL1        0.1038
     11 O          -7.4622  -17.2662   21.0699 O.3     1  UNL1       -0.4748
     12 C          -7.1321  -19.6305   20.0447 C.ar    1  UNL1        0.0118
     13 C          -6.4122  -20.9463   20.0189 C.ar    1  UNL1       -0.0013
     14 C          -5.3027  -21.2135   20.9923 C.ar    1  UNL1       -0.0001
     15 C          -4.9130  -20.1649   21.9916 C.ar    1  UNL1        0.0031
     16 C          -5.6328  -18.8491   22.0175 C.ar    1  UNL1        0.0366
     17 C          -6.7424  -18.5819   21.0440 C.ar    1  UNL1        0.1348
     18 C          -9.0516  -20.5022   18.5263 C.3     1  UNL1        0.0051
     19 C          -8.2416  -19.3634   19.0713 C.3     1  UNL1        0.0294
     20 C          -6.3956  -15.9706   23.5566 C.3     1  UNL1        0.0763
     21 N          -5.9402  -14.8463   24.4389 N.3     1  UNL1       -0.2961
     22 C          -5.4129  -15.1374   25.8127 C.3     1  UNL1        0.0859
     23 H          -6.7384  -14.2221   24.5560 H       1  UNL1        0.1233
@<TRIPOS>BOND
     1    18    19    1
     2    19    12    1
     3    12    13   ar
     4    13    14   ar
     5    14    15   ar
     6    15    16   ar
     7    16    17   ar
     8    17    11    1
     9     1    11    1
    10     1     2    1
    11     2     3   ar
    12     3     4   ar
    13     4     5   ar
    14     5     6   ar
    15     6     7   ar
    16     7     8    1
    17     8     9    1
    18     9    10    1
    19    10    20    1
    20    20    21    1
    21    21    22    1
    22    17    12   ar
    23    10     1    1
    24     7     2   ar
    25    21    23    1
@<TRIPOS>MOLECULE
*****
 23 25 0 0 0
SMALL
GASTEIGER

@<TRIPOS>ATOM
      1 C          -8.3519  -19.0893   21.6865 C.3     1  UNL1        0.1959
      2 C          -9.7254  -18.8139   22.2231 C.ar    1  UNL1        0.0513
      3 C          -9.9237  -18.5783   23.6911 C.ar    1  UNL1        0.0022
      4 C         -11.2970  -18.3029   24.2277 C.ar    1  UNL1       -0.0000
      5 C         -12.4721  -18.2633   23.2963 C.ar    1  UNL1        0.0031
      6 C         -12.2739  -18.4990   21.8283 C.ar    1  UNL1        0.0367
      7 C         -10.9005  -18.7743   21.2917 C.ar    1  UNL1        0.1379
      8 O         -10.7021  -19.0100   19.8236 O.3     1  UNL1       -0.4755
      9 C          -9.3287  -19.2853   19.2870 C.3     1  UNL1        0.2106
     10 C          -8.1536  -19.3250   20.2185 C.3     1  UNL1        0.1038
     11 O          -7.1768  -19.1289   22.6179 O.3     1  UNL1       -0.4748
     12 C          -4.9887  -17.8127   23.0973 C.ar    1  UNL1        0.0118
     13 C          -4.2973  -16.5399   23.4871 C.ar    1  UNL1       -0.0013
     14 C          -5.1026  -15.3105   23.7871 C.ar    1  UNL1       -0.0001
     15 C          -6.5993  -15.3539   23.6975 C.ar    1  UNL1        0.0031
     16 C          -7.2907  -16.6267   23.3078 C.ar    1  UNL1        0.0366
     17 C          -6.4854  -17.8562   23.0077 C.ar    1  UNL1        0.1348
     18 C          -2.7466  -18.9155   22.3855 C.3     1  UNL1        0.0051
     19 C          -4.1834  -19.0421   22.7972 C.3     1  UNL1        0.0294
     20 C          -6.7802  -19.6003   19.6818 C.3     1  UNL1        0.0763
     21 N          -5.7543  -18.5065   19.6497 N.3     1  UNL1       -0.2961
     22 C          -4.3290  -18.8249   19.3078 C.3     1  UNL1        0.0859
     23 H          -5.7470  -18.0823   20.5773 H       1  UNL1        0.1233
@<TRIPOS>BOND
     1    18    19    1
     2    19    12    1
     3    12    13   ar
     4    13    14   ar
     5    14    15   ar
     6    15    16   ar
     7    16    17   ar
     8    17    11    1
     9     1    11    1
    10     1     2    1
    11     2     3   ar
    12     3     4   ar
    13     4     5   ar
    14     5     6   ar
    15     6     7   ar
    16     7     8    1
    17     8     9    1
    18     9    10    1
    19    10    20    1
    20    20    21    1
    21    21    22    1
    22    17    12   ar
    23    10     1    1
    24     7     2   ar
    25    21    23    1
