@<TRIPOS>MOLECULE
*****
 37 41 0 0 0
SMALL
GASTEIGER

@<TRIPOS>ATOM
      1 C           4.6661   -2.4788   33.6157 C.3     1  UNL1        0.1065
      2 C           6.3761   -3.2153   31.8036 C.2     1  UNL1        0.2475
      3 O           7.4850   -2.5877   32.5949 O.2     1  UNL1       -0.2701
      4 N           4.9666   -3.1609   32.3140 N.am    1  UNL1       -0.2999
      5 H           4.2387   -3.5728   31.7946 H       1  UNL1        0.1498
      6 C           7.2774   -5.2614   27.8983 C.ar    1  UNL1        0.0863
      7 C           7.4163   -6.0135   29.1886 C.ar    1  UNL1        0.0308
      8 C           7.1158   -5.3315   30.4904 C.ar    1  UNL1        0.0643
      9 CL          7.2547   -6.0837   31.7808 Cl      1  UNL1       -0.0820
     10 C           6.6765   -3.8973   30.5018 C.ar    1  UNL1        0.0745
     11 C           6.5376   -3.1451   29.2114 C.ar    1  UNL1        0.0643
     12 CL          6.0983   -1.7110   29.2228 Cl      1  UNL1       -0.0820
     13 C           6.8380   -3.8272   27.9097 C.ar    1  UNL1        0.0308
     14 C           8.7555   -6.1192   22.9023 C.3     1  UNL1        0.0756
     15 C           8.2572   -6.3377   24.3001 C.ar    1  UNL1        0.1613
     16 N           7.8230   -7.6483   24.8865 N.ar    1  UNL1       -0.2073
     17 C           7.4031   -7.4046   26.3058 C.ar    1  UNL1        0.2013
     18 N           7.5778   -5.9434   26.5965 N.ar    1  UNL1       -0.2083
     19 N           8.1057   -5.2841   25.3570 N.ar    1  UNL1       -0.1487
     20 C           4.4092   -1.0014   33.6465 C.3     1  UNL1        0.1537
     21 C           3.5376   -0.3697   32.6018 C.2     1  UNL1        0.3564
     22 N           3.0082    1.0335   32.6259 N.2     1  UNL1       -0.0347
     23 C           2.1858    1.2401   31.3886 C.2     1  UNL1        0.2318
     24 C           1.4205    2.4249   30.8783 C.2     1  UNL1        0.0507
     25 C           0.6762    2.3340   29.5792 C.2     1  UNL1        0.0114
     26 C           0.6973    1.0584   28.7904 C.2     1  UNL1        0.0440
     27 CL         -0.0471    0.9676   27.4912 Cl      1  UNL1       -0.0864
     28 C           1.4626   -0.1264   29.3006 C.3     1  UNL1        0.1155
     29 C           2.2069   -0.0356   30.5998 C.2     1  UNL1        0.2183
     30 N           3.0423   -1.0305   31.3496 N.2     1  UNL1       -0.0385
     31 C           5.0238   -0.1555   34.7220 C.ar    1  UNL1       -0.0068
     32 C           6.3086    0.5733   34.4607 C.ar    1  UNL1       -0.0035
     33 C           6.9232    1.4192   35.5362 C.ar    1  UNL1        0.0020
     34 C           6.2531    1.5362   36.8731 C.ar    1  UNL1        0.0296
     35 C           4.9684    0.8075   37.1344 C.ar    1  UNL1        0.1398
     36 F           4.2983    0.9245   38.4713 F       1  UNL1       -0.2042
     37 C           4.3537   -0.0384   36.0589 C.ar    1  UNL1        0.0260
@<TRIPOS>BOND
     1    14    15    1
     2    15    16   ar
     3    16    17   ar
     4    17    18   ar
     5    18     6    1
     6     6     7   ar
     7     7     8   ar
     8     8     9    1
     9     8    10   ar
    10    10     2    1
    11     2     3    2
    12     2     4   am
    13     4     1    1
    14    20     1    1
    15    20    31    1
    16    31    32   ar
    17    32    33   ar
    18    33    34   ar
    19    34    35   ar
    20    35    36    1
    21    35    37   ar
    22    20    21    1
    23    21    22    2
    24    22    23    1
    25    23    24    2
    26    24    25    1
    27    25    26    2
    28    26    27    1
    29    26    28    1
    30    28    29    1
    31    29    30    2
    32    10    11   ar
    33    11    12    1
    34    11    13   ar
    35    18    19   ar
    36    19    15   ar
    37    13     6   ar
    38    37    31   ar
    39    30    21    1
    40    29    23    1
    41     4     5    1
@<TRIPOS>MOLECULE
*****
 37 41 0 0 0
SMALL
GASTEIGER

@<TRIPOS>ATOM
      1 C           5.0504   -2.0215   23.7752 C.3     1  UNL1        0.1065
      2 C           3.9626   -0.0936   22.4151 C.2     1  UNL1        0.2475
      3 O           5.3243    0.4422   22.0853 O.2     1  UNL1       -0.2701
      4 N           3.8257   -1.3254   23.2600 N.am    1  UNL1       -0.2999
      5 H           2.9319   -1.6771   23.4764 H       1  UNL1        0.1498
      6 C           0.2883    1.9946   20.8695 C.ar    1  UNL1        0.0863
      7 C           0.7430    0.7117   20.2390 C.ar    1  UNL1        0.0308
      8 C           1.9678    0.0157   20.7542 C.ar    1  UNL1        0.0643
      9 CL          2.4224   -1.2672   20.1237 Cl      1  UNL1       -0.0820
     10 C           2.7378    0.6025   21.8999 C.ar    1  UNL1        0.0745
     11 C           2.2832    1.8854   22.5304 C.ar    1  UNL1        0.0643
     12 CL          3.0533    2.4722   23.6761 Cl      1  UNL1       -0.0820
     13 C           1.0584    2.5814   22.0152 C.ar    1  UNL1        0.0308
     14 C          -4.7055    3.6171   20.3124 C.3     1  UNL1        0.0756
     15 C          -3.2319    3.4365   20.0982 C.ar    1  UNL1        0.1613
     16 N          -2.4106    4.0871   19.0248 N.ar    1  UNL1       -0.2073
     17 C          -0.9920    3.6261   19.1831 C.ar    1  UNL1        0.2013
     18 N          -0.9365    2.6906   20.3543 N.ar    1  UNL1       -0.2083
     19 N          -2.3208    2.5734   20.9199 N.ar    1  UNL1       -0.1487
     20 C           5.6388   -3.1692   23.0094 C.3     1  UNL1        0.1537
     21 C           6.4322   -4.2211   23.7265 C.2     1  UNL1        0.3564
     22 N           7.2743   -5.2822   23.0825 N.2     1  UNL1       -0.0347
     23 C           7.8853   -6.1135   24.1714 C.2     1  UNL1        0.2318
     24 C           8.8047   -7.2981   24.1338 C.2     1  UNL1        0.0507
     25 C           9.2594   -7.9353   25.4133 C.2     1  UNL1        0.0114
     26 C           8.7949   -7.3879   26.7303 C.2     1  UNL1        0.0440
     27 CL          9.2497   -8.0252   28.0098 Cl      1  UNL1       -0.0864
     28 C           7.8755   -6.2033   26.7679 C.3     1  UNL1        0.1155
     29 C           7.4208   -5.5661   25.4884 C.2     1  UNL1        0.2183
     30 N           6.5227   -4.3966   25.2134 N.2     1  UNL1       -0.0385
     31 C           5.4338   -3.2651   21.5266 C.ar    1  UNL1       -0.0068
     32 C           6.3699   -2.5569   20.5927 C.ar    1  UNL1       -0.0035
     33 C           6.1649   -2.6528   19.1099 C.ar    1  UNL1        0.0020
     34 C           5.0238   -3.4569   18.5610 C.ar    1  UNL1        0.0296
     35 C           4.0877   -4.1651   19.4948 C.ar    1  UNL1        0.1398
     36 F           2.9466   -4.9692   18.9459 F       1  UNL1       -0.2042
     37 C           4.2927   -4.0692   20.9777 C.ar    1  UNL1        0.0260
@<TRIPOS>BOND
     1    14    15    1
     2    15    16   ar
     3    16    17   ar
     4    17    18   ar
     5    18     6    1
     6     6     7   ar
     7     7     8   ar
     8     8     9    1
     9     8    10   ar
    10    10     2    1
    11     2     3    2
    12     2     4   am
    13     4     1    1
    14    20     1    1
    15    20    31    1
    16    31    32   ar
    17    32    33   ar
    18    33    34   ar
    19    34    35   ar
    20    35    36    1
    21    35    37   ar
    22    20    21    1
    23    21    22    2
    24    22    23    1
    25    23    24    2
    26    24    25    1
    27    25    26    2
    28    26    27    1
    29    26    28    1
    30    28    29    1
    31    29    30    2
    32    10    11   ar
    33    11    12    1
    34    11    13   ar
    35    18    19   ar
    36    19    15   ar
    37    13     6   ar
    38    37    31   ar
    39    30    21    1
    40    29    23    1
    41     4     5    1
@<TRIPOS>MOLECULE
*****
 37 41 0 0 0
SMALL
GASTEIGER

@<TRIPOS>ATOM
      1 C           6.0380   -2.7761   25.6964 C.3     1  UNL1        0.1065
      2 C           4.6525   -0.6029   25.3678 C.2     1  UNL1        0.2475
      3 O           5.8778    0.1025   24.8668 O.2     1  UNL1       -0.2701
      4 N           4.7326   -2.0422   25.7826 N.am    1  UNL1       -0.2999
      5 H           3.9284   -2.5052   26.1114 H       1  UNL1        0.1498
      6 C           0.7364    1.5987   25.6266 C.ar    1  UNL1        0.0863
      7 C           1.1256    0.9075   24.3535 C.ar    1  UNL1        0.0308
      8 C           2.4309    0.1737   24.2672 C.ar    1  UNL1        0.0643
      9 CL          2.8200   -0.5176   22.9941 Cl      1  UNL1       -0.0820
     10 C           3.3472    0.1310   25.4541 C.ar    1  UNL1        0.0745
     11 C           2.9581    0.8222   26.7272 C.ar    1  UNL1        0.0643
     12 CL          3.8743    0.7795   27.9141 Cl      1  UNL1       -0.0820
     13 C           1.6527    1.5561   26.8135 C.ar    1  UNL1        0.0308
     14 C          -3.6275    4.2572   24.2961 C.3     1  UNL1        0.0756
     15 C          -2.5748    3.5546   25.1013 C.ar    1  UNL1        0.1613
     16 N          -2.5806    3.3693   26.5898 N.ar    1  UNL1       -0.2073
     17 C          -1.3409    2.6141   26.9677 C.ar    1  UNL1        0.2013
     18 N          -0.5689    2.3326   25.7128 N.ar    1  UNL1       -0.2083
     19 N          -1.3315    2.9138   24.5593 N.ar    1  UNL1       -0.1487
     20 C           6.2810   -3.7453   24.5777 C.3     1  UNL1        0.1537
     21 C           5.8472   -3.4048   23.1827 C.2     1  UNL1        0.3564
     22 N           4.9148   -4.2108   22.3278 N.2     1  UNL1       -0.0347
     23 C           4.7610   -3.5026   21.0145 C.2     1  UNL1        0.2318
     24 C           3.9667   -3.8295   19.7848 C.2     1  UNL1        0.0507
     25 C           4.0098   -2.9127   18.5984 C.2     1  UNL1        0.0114
     26 C           4.8472   -1.6690   18.6417 C.2     1  UNL1        0.0440
     27 CL          4.8902   -0.7522   17.4552 Cl      1  UNL1       -0.0864
     28 C           5.6415   -1.3420   19.8713 C.3     1  UNL1        0.1155
     29 C           5.5984   -2.2588   21.0577 C.2     1  UNL1        0.2183
     30 N           6.2697   -2.1984   22.3978 N.2     1  UNL1       -0.0385
     31 C           6.9577   -5.0551   24.8540 C.ar    1  UNL1       -0.0068
     32 C           6.8148   -5.7043   26.1987 C.ar    1  UNL1       -0.0035
     33 C           7.4915   -7.0141   26.4750 C.ar    1  UNL1        0.0020
     34 C           8.3113   -7.6748   25.4066 C.ar    1  UNL1        0.0296
     35 C           8.4542   -7.0257   24.0619 C.ar    1  UNL1        0.1398
     36 F           9.2740   -7.6865   22.9935 F       1  UNL1       -0.2042
     37 C           7.7775   -5.7159   23.7856 C.ar    1  UNL1        0.0260
@<TRIPOS>BOND
     1    14    15    1
     2    15    16   ar
     3    16    17   ar
     4    17    18   ar
     5    18     6    1
     6     6     7   ar
     7     7     8   ar
     8     8     9    1
     9     8    10   ar
    10    10     2    1
    11     2     3    2
    12     2     4   am
    13     4     1    1
    14    20     1    1
    15    20    31    1
    16    31    32   ar
    17    32    33   ar
    18    33    34   ar
    19    34    35   ar
    20    35    36    1
    21    35    37   ar
    22    20    21    1
    23    21    22    2
    24    22    23    1
    25    23    24    2
    26    24    25    1
    27    25    26    2
    28    26    27    1
    29    26    28    1
    30    28    29    1
    31    29    30    2
    32    10    11   ar
    33    11    12    1
    34    11    13   ar
    35    18    19   ar
    36    19    15   ar
    37    13     6   ar
    38    37    31   ar
    39    30    21    1
    40    29    23    1
    41     4     5    1
@<TRIPOS>MOLECULE
*****
 37 41 0 0 0
SMALL
GASTEIGER

@<TRIPOS>ATOM
      1 C           2.1897    2.4234   33.7450 C.3     1  UNL1        0.1065
      2 C           4.2304    1.0402   32.9252 C.2     1  UNL1        0.2475
      3 O           5.1343    2.2015   33.2157 O.2     1  UNL1       -0.2701
      4 N           2.7581    1.1512   33.1898 N.am    1  UNL1       -0.2999
      5 H           2.1648    0.3890   32.9991 H       1  UNL1        0.1498
      6 C           5.9357   -2.7766   31.2595 C.ar    1  UNL1        0.0863
      7 C           5.5446   -2.6981   32.7055 C.ar    1  UNL1        0.0308
      8 C           4.9762   -1.4258   33.2607 C.ar    1  UNL1        0.0643
      9 CL          4.5851   -1.3473   34.7067 Cl      1  UNL1       -0.0820
     10 C           4.7988   -0.2321   32.3699 C.ar    1  UNL1        0.0745
     11 C           5.1899   -0.3105   30.9239 C.ar    1  UNL1        0.0643
     12 CL          5.0126    0.8832   30.0332 Cl      1  UNL1       -0.0820
     13 C           5.7583   -1.5828   30.3687 C.ar    1  UNL1        0.0308
     14 C           7.6886   -6.4428   27.8880 C.3     1  UNL1        0.0756
     15 C           7.3098   -5.7340   29.1546 C.ar    1  UNL1        0.1613
     16 N           7.4477   -6.2793   30.5452 N.ar    1  UNL1       -0.2073
     17 C           6.9497   -5.2378   31.5029 C.ar    1  UNL1        0.2013
     18 N           6.5041   -4.0488   30.7043 N.ar    1  UNL1       -0.2083
     19 N           6.7266   -4.3556   29.2530 N.ar    1  UNL1       -0.1487
     20 C           1.2138    3.2249   32.9356 C.3     1  UNL1        0.1537
     21 C           0.8797    2.8067   31.5344 C.2     1  UNL1        0.3564
     22 N           0.2712    1.4977   31.1263 N.2     1  UNL1       -0.0347
     23 C           0.1109    1.5060   29.6349 C.2     1  UNL1        0.2318
     24 C          -0.4332    0.4868   28.6783 C.2     1  UNL1        0.0507
     25 C          -0.4678    0.7816   27.2080 C.2     1  UNL1        0.0114
     26 C           0.0415    2.0956   26.6943 C.2     1  UNL1        0.0440
     27 CL          0.0068    2.3904   25.2239 Cl      1  UNL1       -0.0864
     28 C           0.5855    3.1148   27.6509 C.3     1  UNL1        0.1155
     29 C           0.6202    2.8200   29.1212 C.2     1  UNL1        0.2183
     30 N           1.0953    3.6239   30.2952 N.2     1  UNL1       -0.0385
     31 C           0.5720    4.4447   33.5274 C.ar    1  UNL1       -0.0068
     32 C           1.1926    5.1168   34.7162 C.ar    1  UNL1       -0.0035
     33 C           0.5508    6.3365   35.3080 C.ar    1  UNL1        0.0020
     34 C          -0.7116    6.8842   34.7111 C.ar    1  UNL1        0.0296
     35 C          -1.3322    6.2122   33.5223 C.ar    1  UNL1        0.1398
     36 F          -2.5946    6.7599   32.9254 F       1  UNL1       -0.2042
     37 C          -0.6904    4.9924   32.9305 C.ar    1  UNL1        0.0260
@<TRIPOS>BOND
     1    14    15    1
     2    15    16   ar
     3    16    17   ar
     4    17    18   ar
     5    18     6    1
     6     6     7   ar
     7     7     8   ar
     8     8     9    1
     9     8    10   ar
    10    10     2    1
    11     2     3    2
    12     2     4   am
    13     4     1    1
    14    20     1    1
    15    20    31    1
    16    31    32   ar
    17    32    33   ar
    18    33    34   ar
    19    34    35   ar
    20    35    36    1
    21    35    37   ar
    22    20    21    1
    23    21    22    2
    24    22    23    1
    25    23    24    2
    26    24    25    1
    27    25    26    2
    28    26    27    1
    29    26    28    1
    30    28    29    1
    31    29    30    2
    32    10    11   ar
    33    11    12    1
    34    11    13   ar
    35    18    19   ar
    36    19    15   ar
    37    13     6   ar
    38    37    31   ar
    39    30    21    1
    40    29    23    1
    41     4     5    1
@<TRIPOS>MOLECULE
*****
 37 41 0 0 0
SMALL
GASTEIGER

@<TRIPOS>ATOM
      1 C           5.5943   -1.8202   23.5630 C.3     1  UNL1        0.1065
      2 C           6.1710   -1.0867   25.9878 C.2     1  UNL1        0.2475
      3 O           7.2869   -0.2322   25.4640 O.2     1  UNL1       -0.2701
      4 N           5.3246   -1.8807   25.0373 N.am    1  UNL1       -0.2999
      5 H           4.5922   -2.4415   25.3811 H       1  UNL1        0.1498
      6 C           5.3618   -1.2682   30.4107 C.ar    1  UNL1        0.0863
      7 C           6.5145   -2.0303   29.8273 C.ar    1  UNL1        0.0308
      8 C           6.7843   -1.9697   28.3530 C.ar    1  UNL1        0.0643
      9 CL          7.9371   -2.7318   27.7695 Cl      1  UNL1       -0.0820
     10 C           5.9012   -1.1472   27.4621 C.ar    1  UNL1        0.0745
     11 C           4.7484   -0.3851   28.0456 C.ar    1  UNL1        0.0643
     12 CL          3.8654    0.4374   27.1547 Cl      1  UNL1       -0.0820
     13 C           4.4787   -0.4457   29.5199 C.ar    1  UNL1        0.0308
     14 C           5.6575   -0.3956   35.6100 C.3     1  UNL1        0.0756
     15 C           5.2280   -0.9277   34.2749 C.ar    1  UNL1        0.1613
     16 N           4.1261   -1.9161   34.0327 N.ar    1  UNL1       -0.2073
     17 C           4.0421   -2.1640   32.5557 C.ar    1  UNL1        0.2013
     18 N           5.0921   -1.3288   31.8850 N.ar    1  UNL1       -0.2083
     19 N           5.8250   -0.5647   32.9476 N.ar    1  UNL1       -0.1487
     20 C           5.9678   -3.0668   22.8171 C.3     1  UNL1        0.1537
     21 C           6.6639   -4.1876   23.5306 C.2     1  UNL1        0.3564
     22 N           7.5651   -5.2085   22.9015 N.2     1  UNL1       -0.0347
     23 C           8.0392   -6.1362   23.9806 C.2     1  UNL1        0.2318
     24 C           8.9460   -7.3306   23.9505 C.2     1  UNL1        0.0507
     25 C           9.2448   -8.0775   25.2165 C.2     1  UNL1        0.0114
     26 C           8.6367   -7.6301   26.5126 C.2     1  UNL1        0.0440
     27 CL          8.9354   -8.3771   27.7787 Cl      1  UNL1       -0.0864
     28 C           7.7298   -6.4357   26.5427 C.3     1  UNL1        0.1155
     29 C           7.4310   -5.6888   25.2768 C.2     1  UNL1        0.2183
     30 N           6.5811   -4.4845   24.9986 N.2     1  UNL1       -0.0385
     31 C           5.6452   -3.1925   21.3576 C.ar    1  UNL1       -0.0068
     32 C           6.5705   -2.6078   20.3319 C.ar    1  UNL1       -0.0035
     33 C           6.2479   -2.7336   18.8724 C.ar    1  UNL1        0.0020
     34 C           5.0001   -3.4440   18.4386 C.ar    1  UNL1        0.0296
     35 C           4.0748   -4.0287   19.4643 C.ar    1  UNL1        0.1398
     36 F           2.8270   -4.7392   19.0305 F       1  UNL1       -0.2042
     37 C           4.3974   -3.9030   20.9238 C.ar    1  UNL1        0.0260
@<TRIPOS>BOND
     1    14    15    1
     2    15    16   ar
     3    16    17   ar
     4    17    18   ar
     5    18     6    1
     6     6     7   ar
     7     7     8   ar
     8     8     9    1
     9     8    10   ar
    10    10     2    1
    11     2     3    2
    12     2     4   am
    13     4     1    1
    14    20     1    1
    15    20    31    1
    16    31    32   ar
    17    32    33   ar
    18    33    34   ar
    19    34    35   ar
    20    35    36    1
    21    35    37   ar
    22    20    21    1
    23    21    22    2
    24    22    23    1
    25    23    24    2
    26    24    25    1
    27    25    26    2
    28    26    27    1
    29    26    28    1
    30    28    29    1
    31    29    30    2
    32    10    11   ar
    33    11    12    1
    34    11    13   ar
    35    18    19   ar
    36    19    15   ar
    37    13     6   ar
    38    37    31   ar
    39    30    21    1
    40    29    23    1
    41     4     5    1
@<TRIPOS>MOLECULE
*****
 37 41 0 0 0
SMALL
GASTEIGER

@<TRIPOS>ATOM
      1 C           3.7764   -0.3551   29.7634 C.3     1  UNL1        0.1065
      2 C           4.3524   -0.1961   27.2349 C.2     1  UNL1        0.2475
      3 O           5.1125    1.0720   27.4879 O.2     1  UNL1       -0.2701
      4 N           3.6843   -0.9097   28.3727 N.am    1  UNL1       -0.2999
      5 H           3.1855   -1.7421   28.2067 H       1  UNL1        0.1498
      6 C           4.0762   -1.8599   23.0629 C.ar    1  UNL1        0.0863
      7 C           3.1606   -0.7513   23.4904 C.ar    1  UNL1        0.0308
      8 C           3.2527   -0.1967   24.8811 C.ar    1  UNL1        0.0643
      9 CL          2.3371    0.9119   25.3086 Cl      1  UNL1       -0.0820
     10 C           4.2603   -0.7507   25.8443 C.ar    1  UNL1        0.0745
     11 C           5.1760   -1.8593   25.4168 C.ar    1  UNL1        0.0643
     12 CL          6.1836   -2.4133   26.3800 Cl      1  UNL1       -0.0820
     13 C           5.0839   -2.4139   24.0261 C.ar    1  UNL1        0.0308
     14 C           4.5918   -5.0427   18.8815 C.3     1  UNL1        0.0756
     15 C           4.2211   -3.8774   19.7502 C.ar    1  UNL1        0.1613
     16 N           3.4637   -2.6583   19.3142 N.ar    1  UNL1       -0.2073
     17 C           3.3172   -1.7542   20.5021 C.ar    1  UNL1        0.2013
     18 N           3.9841   -2.4144   21.6723 N.ar    1  UNL1       -0.2083
     19 N           4.5427   -3.7267   21.2076 N.ar    1  UNL1       -0.1487
     20 C           2.6569    0.4771   30.3146 C.3     1  UNL1        0.1537
     21 C           2.7442    1.0228   31.7091 C.2     1  UNL1        0.3564
     22 N           3.6093    0.4891   32.8122 N.2     1  UNL1       -0.0347
     23 C           3.3815    1.3344   34.0302 C.2     1  UNL1        0.2318
     24 C           3.9601    1.2789   35.4130 C.2     1  UNL1        0.0507
     25 C           3.5328    2.2795   36.4455 C.2     1  UNL1        0.0114
     26 C           2.5269    3.3357   36.0952 C.2     1  UNL1        0.0440
     27 CL          2.0996    4.3363   37.1278 Cl      1  UNL1       -0.0864
     28 C           1.9483    3.3912   34.7124 C.3     1  UNL1        0.1155
     29 C           2.3756    2.3906   33.6799 C.2     1  UNL1        0.2183
     30 N           1.9818    2.1979   32.2454 N.2     1  UNL1       -0.0385
     31 C           1.4499    0.7637   29.4713 C.ar    1  UNL1       -0.0068
     32 C           1.4082    1.9948   28.6153 C.ar    1  UNL1       -0.0035
     33 C           0.2013    2.2813   27.7720 C.ar    1  UNL1        0.0020
     34 C          -0.9639    1.3369   27.7847 C.ar    1  UNL1        0.0296
     35 C          -0.9223    0.1058   28.6407 C.ar    1  UNL1        0.1398
     36 F          -2.0875   -0.8386   28.6534 F       1  UNL1       -0.2042
     37 C           0.2847   -0.1808   29.4840 C.ar    1  UNL1        0.0260
@<TRIPOS>BOND
     1    14    15    1
     2    15    16   ar
     3    16    17   ar
     4    17    18   ar
     5    18     6    1
     6     6     7   ar
     7     7     8   ar
     8     8     9    1
     9     8    10   ar
    10    10     2    1
    11     2     3    2
    12     2     4   am
    13     4     1    1
    14    20     1    1
    15    20    31    1
    16    31    32   ar
    17    32    33   ar
    18    33    34   ar
    19    34    35   ar
    20    35    36    1
    21    35    37   ar
    22    20    21    1
    23    21    22    2
    24    22    23    1
    25    23    24    2
    26    24    25    1
    27    25    26    2
    28    26    27    1
    29    26    28    1
    30    28    29    1
    31    29    30    2
    32    10    11   ar
    33    11    12    1
    34    11    13   ar
    35    18    19   ar
    36    19    15   ar
    37    13     6   ar
    38    37    31   ar
    39    30    21    1
    40    29    23    1
    41     4     5    1
@<TRIPOS>MOLECULE
*****
 37 41 0 0 0
SMALL
GASTEIGER

@<TRIPOS>ATOM
      1 C           3.3232   -0.3618   29.8004 C.3     1  UNL1        0.1065
      2 C           4.0243   -0.1509   27.3075 C.2     1  UNL1        0.2475
      3 O           4.7781    1.1061   27.6259 O.2     1  UNL1       -0.2701
      4 N           3.2968   -0.8849   28.3948 N.am    1  UNL1       -0.2999
      5 H           2.8020   -1.7100   28.1859 H       1  UNL1        0.1498
      6 C           3.9450   -1.7204   23.0909 C.ar    1  UNL1        0.0863
      7 C           2.9671   -0.6659   23.5171 C.ar    1  UNL1        0.0308
      8 C           2.9936   -0.1428   24.9227 C.ar    1  UNL1        0.0643
      9 CL          2.0156    0.9118   25.3490 Cl      1  UNL1       -0.0820
     10 C           3.9979   -0.6741   25.9020 C.ar    1  UNL1        0.0745
     11 C           4.9758   -1.7286   25.4757 C.ar    1  UNL1        0.0643
     12 CL          5.9801   -2.2600   26.4550 Cl      1  UNL1       -0.0820
     13 C           4.9494   -2.2518   24.0702 C.ar    1  UNL1        0.0308
     14 C           4.4781   -4.8896   18.9012 C.3     1  UNL1        0.0756
     15 C           4.1636   -3.7003   19.7595 C.ar    1  UNL1        0.1613
     16 N           3.5923   -2.3970   19.2852 N.ar    1  UNL1       -0.2073
     17 C           3.4408   -1.4967   20.4754 C.ar    1  UNL1        0.2013
     18 N           3.9186   -2.2436   21.6853 N.ar    1  UNL1       -0.2083
     19 N           4.3653   -3.6054   21.2429 N.ar    1  UNL1       -0.1487
     20 C           2.2991    0.6388   30.2476 C.3     1  UNL1        0.1537
     21 C           2.3846    1.2371   31.6205 C.2     1  UNL1        0.3564
     22 N           3.1915    0.7026   32.7665 N.2     1  UNL1       -0.0347
     23 C           2.9839    1.6101   33.9426 C.2     1  UNL1        0.2318
     24 C           3.5255    1.5806   35.3411 C.2     1  UNL1        0.0507
     25 C           3.1320    2.6464   36.3204 C.2     1  UNL1        0.0114
     26 C           2.1969    3.7418   35.9013 C.2     1  UNL1        0.0440
     27 CL          1.8034    4.8076   36.8807 Cl      1  UNL1       -0.0864
     28 C           1.6552    3.7713   34.5028 C.3     1  UNL1        0.1155
     29 C           2.0487    2.7055   33.5235 C.2     1  UNL1        0.2183
     30 N           1.6784    2.4749   32.0884 N.2     1  UNL1       -0.0385
     31 C           1.1894    1.0410   29.3220 C.ar    1  UNL1       -0.0068
     32 C           0.0218    0.1239   29.1078 C.ar    1  UNL1       -0.0035
     33 C          -1.0879    0.5261   28.1822 C.ar    1  UNL1        0.0020
     34 C          -1.0300    1.8454   27.4707 C.ar    1  UNL1        0.0296
     35 C           0.1375    2.7624   27.6849 C.ar    1  UNL1        0.1398
     36 F           0.1953    4.0817   26.9734 F       1  UNL1       -0.2042
     37 C           1.2472    2.3602   28.6105 C.ar    1  UNL1        0.0260
@<TRIPOS>BOND
     1    14    15    1
     2    15    16   ar
     3    16    17   ar
     4    17    18   ar
     5    18     6    1
     6     6     7   ar
     7     7     8   ar
     8     8     9    1
     9     8    10   ar
    10    10     2    1
    11     2     3    2
    12     2     4   am
    13     4     1    1
    14    20     1    1
    15    20    31    1
    16    31    32   ar
    17    32    33   ar
    18    33    34   ar
    19    34    35   ar
    20    35    36    1
    21    35    37   ar
    22    20    21    1
    23    21    22    2
    24    22    23    1
    25    23    24    2
    26    24    25    1
    27    25    26    2
    28    26    27    1
    29    26    28    1
    30    28    29    1
    31    29    30    2
    32    10    11   ar
    33    11    12    1
    34    11    13   ar
    35    18    19   ar
    36    19    15   ar
    37    13     6   ar
    38    37    31   ar
    39    30    21    1
    40    29    23    1
    41     4     5    1
@<TRIPOS>MOLECULE
*****
 37 41 0 0 0
SMALL
GASTEIGER

@<TRIPOS>ATOM
      1 C          -1.4845    4.6467   21.4871 C.3     1  UNL1        0.1065
      2 C          -1.6953    3.4153   23.7651 C.2     1  UNL1        0.2475
      3 O          -3.1600    3.2076   23.5173 O.2     1  UNL1       -0.2701
      4 N          -0.8575    4.1349   22.7500 N.am    1  UNL1       -0.2999
      5 H           0.1039    4.2712   22.9126 H       1  UNL1        0.1498
      6 C           0.1857    1.8798   27.5538 C.ar    1  UNL1        0.0863
      7 C          -0.8492    2.9638   27.6161 C.ar    1  UNL1        0.0308
      8 C          -1.4761    3.4757   26.3532 C.ar    1  UNL1        0.0643
      9 CL         -2.5111    4.5597   26.4156 Cl      1  UNL1       -0.0820
     10 C          -1.0683    2.9035   25.0280 C.ar    1  UNL1        0.0745
     11 C          -0.0333    1.8194   24.9657 C.ar    1  UNL1        0.0643
     12 CL          0.3745    1.2472   23.6405 Cl      1  UNL1       -0.0820
     13 C           0.5937    1.3076   26.2286 C.ar    1  UNL1        0.0308
     14 C           2.2369    1.6695   32.4148 C.3     1  UNL1        0.0756
     15 C           1.7556    1.2713   31.0511 C.ar    1  UNL1        0.1613
     16 N           1.7996   -0.1105   30.4692 N.ar    1  UNL1       -0.2073
     17 C           1.2169   -0.0507   29.0883 C.ar    1  UNL1        0.2013
     18 N           0.8127    1.3680   28.8167 N.ar    1  UNL1       -0.2083
     19 N           1.1456    2.1851   30.0298 N.ar    1  UNL1       -0.1487
     20 C          -1.6204    3.7431   20.2975 C.3     1  UNL1        0.1537
     21 C          -0.5632    2.7188   20.0090 C.2     1  UNL1        0.3564
     22 N           0.5503    2.8573   19.0135 N.2     1  UNL1       -0.0347
     23 C           1.3678    1.6003   19.0546 C.2     1  UNL1        0.2318
     24 C           2.5875    1.1710   18.2943 C.2     1  UNL1        0.0507
     25 C           3.1989   -0.1737   18.5549 C.2     1  UNL1        0.0114
     26 C           2.5907   -1.0890   19.5759 C.2     1  UNL1        0.0440
     27 CL          3.2022   -2.4338   19.8364 Cl      1  UNL1       -0.0864
     28 C           1.3710   -0.6597   20.3361 C.3     1  UNL1        0.1155
     29 C           0.7596    0.6850   20.0755 C.2     1  UNL1        0.2183
     30 N          -0.4338    1.3763   20.6654 N.2     1  UNL1       -0.0385
     31 C          -2.8135    3.8638   19.3965 C.ar    1  UNL1       -0.0068
     32 C          -2.6356    4.2908   17.9695 C.ar    1  UNL1       -0.0035
     33 C          -3.8287    4.4114   17.0685 C.ar    1  UNL1        0.0020
     34 C          -5.1997    4.1052   17.5943 C.ar    1  UNL1        0.0296
     35 C          -5.3776    3.6782   19.0212 C.ar    1  UNL1        0.1398
     36 F          -6.7486    3.3720   19.5470 F       1  UNL1       -0.2042
     37 C          -4.1845    3.5575   19.9223 C.ar    1  UNL1        0.0260
@<TRIPOS>BOND
     1    14    15    1
     2    15    16   ar
     3    16    17   ar
     4    17    18   ar
     5    18     6    1
     6     6     7   ar
     7     7     8   ar
     8     8     9    1
     9     8    10   ar
    10    10     2    1
    11     2     3    2
    12     2     4   am
    13     4     1    1
    14    20     1    1
    15    20    31    1
    16    31    32   ar
    17    32    33   ar
    18    33    34   ar
    19    34    35   ar
    20    35    36    1
    21    35    37   ar
    22    20    21    1
    23    21    22    2
    24    22    23    1
    25    23    24    2
    26    24    25    1
    27    25    26    2
    28    26    27    1
    29    26    28    1
    30    28    29    1
    31    29    30    2
    32    10    11   ar
    33    11    12    1
    34    11    13   ar
    35    18    19   ar
    36    19    15   ar
    37    13     6   ar
    38    37    31   ar
    39    30    21    1
    40    29    23    1
    41     4     5    1
@<TRIPOS>MOLECULE
*****
 37 41 0 0 0
SMALL
GASTEIGER

@<TRIPOS>ATOM
      1 C          -0.6289    4.6561   22.9901 C.3     1  UNL1        0.1065
      2 C          -0.2480    2.5776   21.4786 C.2     1  UNL1        0.2475
      3 O          -1.7058    2.5671   21.1255 O.2     1  UNL1       -0.2701
      4 N           0.2904    3.6221   22.4109 N.am    1  UNL1       -0.2999
      5 H           1.2473    3.6289   22.6427 H       1  UNL1        0.1498
      6 C           2.5102   -0.5246   19.7410 C.ar    1  UNL1        0.0863
      7 C           1.8151    0.4511   18.8383 C.ar    1  UNL1        0.0308
      8 C           0.8957    1.4851   19.4175 C.ar    1  UNL1        0.0643
      9 CL          0.2006    2.4608   18.5146 Cl      1  UNL1       -0.0820
     10 C           0.6714    1.5435   20.8994 C.ar    1  UNL1        0.0745
     11 C           1.3665    0.5679   21.8022 C.ar    1  UNL1        0.0643
     12 CL          1.1421    0.6263   23.2842 Cl      1  UNL1       -0.0820
     13 C           2.2858   -0.4662   21.2230 C.ar    1  UNL1        0.0308
     14 C           4.8383   -5.1426   18.6757 C.3     1  UNL1        0.0756
     15 C           4.4997   -3.6813   18.6721 C.ar    1  UNL1        0.1613
     16 N           5.1890   -2.6185   17.8689 N.ar    1  UNL1       -0.2073
     17 C           4.5276   -1.3066   18.1715 C.ar    1  UNL1        0.2013
     18 N           3.4296   -1.5586   19.1618 N.ar    1  UNL1       -0.2083
     19 N           3.4123   -3.0263   19.4712 N.ar    1  UNL1       -0.1487
     20 C          -1.4733    4.3242   24.1846 C.3     1  UNL1        0.1537
     21 C          -2.9571    4.5390   24.1373 C.2     1  UNL1        0.3564
     22 N          -3.9093    3.9046   23.1674 N.2     1  UNL1       -0.0347
     23 C          -5.2899    4.3994   23.4821 C.2     1  UNL1        0.2318
     24 C          -6.6244    4.1153   22.8589 C.2     1  UNL1        0.0507
     25 C          -7.8598    4.7715   23.4001 C.2     1  UNL1        0.0114
     26 C          -7.7609    5.7118   24.5645 C.2     1  UNL1        0.0440
     27 CL         -8.9964    6.3681   25.1057 Cl      1  UNL1       -0.0864
     28 C          -6.4264    5.9960   25.1878 C.3     1  UNL1        0.1155
     29 C          -5.1910    5.3398   24.6466 C.2     1  UNL1        0.2183
     30 N          -3.7492    5.4261   25.0514 N.2     1  UNL1       -0.0385
     31 C          -0.8339    3.7776   25.4265 C.ar    1  UNL1       -0.0068
     32 C           0.1246    4.6235   26.2113 C.ar    1  UNL1       -0.0035
     33 C           0.7640    4.0768   27.4531 C.ar    1  UNL1        0.0020
     34 C           0.4450    2.6843   27.9103 C.ar    1  UNL1        0.0296
     35 C          -0.5134    1.8384   27.1256 C.ar    1  UNL1        0.1398
     36 F          -0.8325    0.4458   27.5827 F       1  UNL1       -0.2042
     37 C          -1.1529    2.3850   25.8836 C.ar    1  UNL1        0.0260
@<TRIPOS>BOND
     1    14    15    1
     2    15    16   ar
     3    16    17   ar
     4    17    18   ar
     5    18     6    1
     6     6     7   ar
     7     7     8   ar
     8     8     9    1
     9     8    10   ar
    10    10     2    1
    11     2     3    2
    12     2     4   am
    13     4     1    1
    14    20     1    1
    15    20    31    1
    16    31    32   ar
    17    32    33   ar
    18    33    34   ar
    19    34    35   ar
    20    35    36    1
    21    35    37   ar
    22    20    21    1
    23    21    22    2
    24    22    23    1
    25    23    24    2
    26    24    25    1
    27    25    26    2
    28    26    27    1
    29    26    28    1
    30    28    29    1
    31    29    30    2
    32    10    11   ar
    33    11    12    1
    34    11    13   ar
    35    18    19   ar
    36    19    15   ar
    37    13     6   ar
    38    37    31   ar
    39    30    21    1
    40    29    23    1
    41     4     5    1
