@<TRIPOS>MOLECULE
*****
 42 45 0 0 0
SMALL
GASTEIGER

@<TRIPOS>ATOM
      1 C           0.7052    2.9035   24.5577 C.3     1  UNL1        0.0777
      2 C          -0.2549    2.6956   25.6912 C.3     1  UNL1        0.0412
      3 C          -1.7195    2.9488   25.4895 C.3     1  UNL1        0.0951
      4 N          -2.2240    3.4098   24.1543 N.am    1  UNL1       -0.2782
      5 C          -3.6887    3.6630   23.9526 C.2     1  UNL1        0.2420
      6 O          -4.1932    4.1240   22.6173 O.2     1  UNL1       -0.2734
      7 C          -1.2639    3.6177   23.0207 C.3     1  UNL1        0.0964
      8 C           0.2007    3.3645   23.2224 C.3     1  UNL1        0.0539
      9 N           4.1973    1.0258   24.7308 N.am    1  UNL1       -0.2485
     10 C           2.7327    1.2791   24.5291 C.2     1  UNL1        0.3058
     11 O           1.8308    0.1610   24.0972 O.2     1  UNL1       -0.2524
     12 N           2.1700    2.6503   24.7594 N.am    1  UNL1       -0.2901
     13 H           4.7893    1.7597   25.0143 H       1  UNL1        0.1583
     14 H           2.7619    3.3841   25.0429 H       1  UNL1        0.1509
     15 C           5.4210   -2.4187   23.4257 C.ar    1  UNL1        0.0803
     16 S           4.7590   -1.0919   23.1994 S.2     1  UNL1       -0.0488
     17 C           4.7601   -0.3454   24.5005 C.ar    1  UNL1        0.1664
     18 N           5.4228   -1.2109   25.5309 N.ar    1  UNL1       -0.2282
     19 C           5.8312   -2.4923   24.8666 C.ar    1  UNL1        0.0701
     20 C           6.5276   -3.6449   25.5273 C.3     1  UNL1        0.0528
     21 C           6.9821   -3.6502   21.7535 C.3     1  UNL1        0.0779
     22 C           5.6351   -3.4848   22.3924 C.2     1  UNL1        0.1807
     23 O           4.5023   -4.3854   21.9981 O.2     1  UNL1       -0.2908
     24 C          -4.6488    3.4551   25.0861 C.3     1  UNL1        0.1587
     25 N          -5.3071    4.6352   25.7375 N.3     1  UNL1       -0.2626
     26 C          -4.7817    5.1630   27.0395 C.3     1  UNL1        0.0900
     27 C          -6.4908    5.2874   25.0867 C.3     1  UNL1        0.0900
     28 C           1.1609    3.5723   22.0889 C.3     1  UNL1        0.0754
     29 N           1.1385    2.6478   20.9079 N.3     1  UNL1       -0.2726
     30 C           0.6226    3.1327   19.5855 C.3     1  UNL1        0.0721
     31 C           0.6001    2.2082   18.4045 C.3     1  UNL1        0.0174
     32 C           1.0936    0.7987   18.5460 C.3     1  UNL1        0.0031
     33 C           1.6094    0.3138   19.8683 C.3     1  UNL1        0.0204
     34 C           1.6319    1.2384   21.0493 C.3     1  UNL1        0.0724
     35 C           2.1029   -1.0957   20.0098 C.3     1  UNL1        0.0277
     36 C           3.4648   -1.4679   19.5032 C.ar    1  UNL1       -0.0220
     37 C           4.5686   -0.4521   19.5034 C.ar    1  UNL1       -0.0020
     38 C           5.9305   -0.8244   18.9968 C.ar    1  UNL1        0.0293
     39 C           6.1885   -2.2124   18.4898 C.ar    1  UNL1        0.1401
     40 F           7.5504   -2.5846   17.9832 F       1  UNL1       -0.2042
     41 C           5.0848   -3.2281   18.4896 C.ar    1  UNL1        0.0293
     42 C           3.7229   -2.8558   18.9963 C.ar    1  UNL1       -0.0020
@<TRIPOS>BOND
     1    21    22    1
     2    22    23    2
     3    22    15    1
     4    15    16   ar
     5    16    17   ar
     6    17     9    1
     7     9    10   am
     8    10    11    2
     9    10    12   am
    10     1    12    1
    11     1     2    1
    12     2     3    1
    13     3     4    1
    14     4     5   am
    15     5     6    2
    16     5    24    1
    17    24    25    1
    18    25    26    1
    19    25    27    1
    20     4     7    1
    21     7     8    1
    22     8    28    1
    23    28    29    1
    24    29    30    1
    25    30    31    1
    26    31    32    1
    27    32    33    1
    28    33    35    1
    29    35    36    1
    30    36    37   ar
    31    37    38   ar
    32    38    39   ar
    33    39    40    1
    34    39    41   ar
    35    41    42   ar
    36    33    34    1
    37    17    18   ar
    38    18    19   ar
    39    19    20    1
    40    19    15   ar
    41     8     1    1
    42    34    29    1
    43    42    36   ar
    44     9    13    1
    45    12    14    1
@<TRIPOS>MOLECULE
*****
 42 45 0 0 0
SMALL
GASTEIGER

@<TRIPOS>ATOM
      1 C           2.9600    1.0905   21.5967 C.3     1  UNL1        0.0777
      2 C           4.4520    0.9877   21.7124 C.3     1  UNL1        0.0412
      3 C           5.2279    0.1817   20.7133 C.3     1  UNL1        0.0951
      4 N           4.5119   -0.5215   19.5985 N.am    1  UNL1       -0.2782
      5 C           5.2879   -1.3275   18.5994 C.2     1  UNL1        0.2420
      6 O           4.5718   -2.0307   17.4846 O.2     1  UNL1       -0.2734
      7 C           3.0199   -0.4187   19.4828 C.3     1  UNL1        0.0964
      8 C           2.2440    0.3873   20.4819 C.3     1  UNL1        0.0539
      9 N           1.0835    2.1201   24.9387 N.am    1  UNL1       -0.2485
     10 C           1.8594    1.3142   23.9396 C.2     1  UNL1        0.3058
     11 O           2.3108   -0.0742   24.2841 O.2     1  UNL1       -0.2524
     12 N           2.1840    1.8966   22.5959 N.am    1  UNL1       -0.2901
     13 H           0.7872    3.0314   24.7126 H       1  UNL1        0.1583
     14 H           1.8878    2.8078   22.3698 H       1  UNL1        0.1509
     15 C           0.9565    0.7902   28.5830 C.ar    1  UNL1        0.0803
     16 S           1.6962    1.4360   27.4490 S.2     1  UNL1       -0.0488
     17 C           0.7588    1.5377   26.2823 C.ar    1  UNL1        0.1664
     18 N          -0.5601    0.9549   26.6953 N.ar    1  UNL1       -0.2282
     19 C          -0.4380    0.4929   28.1172 C.ar    1  UNL1        0.0701
     20 C          -1.5203   -0.1531   28.9304 C.3     1  UNL1        0.0528
     21 C           2.5135   -0.6102   30.1207 C.3     1  UNL1        0.0779
     22 C           1.5136    0.4939   29.9438 C.2     1  UNL1        0.1807
     23 O           1.0708    1.3014   31.1276 O.2     1  UNL1       -0.2908
     24 C           6.7798   -1.4303   18.7151 C.3     1  UNL1        0.1587
     25 N           7.3966   -2.5668   19.4754 N.3     1  UNL1       -0.2626
     26 C           8.8862   -2.7423   19.4845 C.3     1  UNL1        0.0900
     27 C           6.5236   -3.5279   20.2267 C.3     1  UNL1        0.0900
     28 C           0.7519    0.4902   20.3663 C.3     1  UNL1        0.0754
     29 N           0.1276    1.7284   19.7943 N.3     1  UNL1       -0.2726
     30 C           0.5068    2.1930   18.4194 C.3     1  UNL1        0.0721
     31 C          -0.1175    3.4312   17.8474 C.3     1  UNL1        0.0174
     32 C          -1.1210    4.2048   18.6505 C.3     1  UNL1        0.0031
     33 C          -1.5000    3.7402   20.0254 C.3     1  UNL1        0.0204
     34 C          -0.8757    2.5020   20.5973 C.3     1  UNL1        0.0724
     35 C          -2.5034    4.5138   20.8284 C.3     1  UNL1        0.0277
     36 C          -2.6706    4.2317   22.2922 C.ar    1  UNL1       -0.0220
     37 C          -1.5871    4.6112   23.2576 C.ar    1  UNL1       -0.0020
     38 C          -1.7542    4.3291   24.7213 C.ar    1  UNL1        0.0293
     39 C          -3.0050    3.6676   25.2196 C.ar    1  UNL1        0.1401
     40 F          -3.1721    3.3855   26.6833 F       1  UNL1       -0.2042
     41 C          -4.0884    3.2882   24.2542 C.ar    1  UNL1        0.0293
     42 C          -3.9212    3.5702   22.7904 C.ar    1  UNL1       -0.0020
@<TRIPOS>BOND
     1    21    22    1
     2    22    23    2
     3    22    15    1
     4    15    16   ar
     5    16    17   ar
     6    17     9    1
     7     9    10   am
     8    10    11    2
     9    10    12   am
    10     1    12    1
    11     1     2    1
    12     2     3    1
    13     3     4    1
    14     4     5   am
    15     5     6    2
    16     5    24    1
    17    24    25    1
    18    25    26    1
    19    25    27    1
    20     4     7    1
    21     7     8    1
    22     8    28    1
    23    28    29    1
    24    29    30    1
    25    30    31    1
    26    31    32    1
    27    32    33    1
    28    33    35    1
    29    35    36    1
    30    36    37   ar
    31    37    38   ar
    32    38    39   ar
    33    39    40    1
    34    39    41   ar
    35    41    42   ar
    36    33    34    1
    37    17    18   ar
    38    18    19   ar
    39    19    20    1
    40    19    15   ar
    41     8     1    1
    42    34    29    1
    43    42    36   ar
    44     9    13    1
    45    12    14    1
@<TRIPOS>MOLECULE
*****
 42 45 0 0 0
SMALL
GASTEIGER

@<TRIPOS>ATOM
      1 C           6.8097   -2.8222   26.1409 C.3     1  UNL1        0.0777
      2 C           7.1267   -1.8327   25.0590 C.3     1  UNL1        0.0412
      3 C           7.5552   -2.3141   23.7046 C.3     1  UNL1        0.0951
      4 N           7.6667   -3.7849   23.4320 N.am    1  UNL1       -0.2782
      5 C           8.0952   -4.2663   22.0774 C.2     1  UNL1        0.2420
      6 O           8.2067   -5.7371   21.8048 O.2     1  UNL1       -0.2734
      7 C           7.3497   -4.7744   24.5139 C.3     1  UNL1        0.0964
      8 C           6.9212   -4.2930   25.8683 C.3     1  UNL1        0.0539
      9 N           4.6152   -1.2031   29.0241 N.am    1  UNL1       -0.2485
     10 C           5.0437   -1.6845   27.6696 C.2     1  UNL1        0.3058
     11 O           4.1347   -1.5095   26.4892 O.2     1  UNL1       -0.2524
     12 N           6.3812   -2.3408   27.4955 N.am    1  UNL1       -0.2901
     13 H           5.2118   -1.3180   29.7988 H       1  UNL1        0.1583
     14 H           6.9778   -2.4557   28.2701 H       1  UNL1        0.1509
     15 C           1.5385    1.0047   29.8756 C.ar    1  UNL1        0.0803
     16 S           3.0077    0.7151   29.9630 S.2     1  UNL1       -0.0488
     17 C           3.2777   -0.5468   29.1983 C.ar    1  UNL1        0.1664
     18 N           1.9754   -1.0371   28.6383 N.ar    1  UNL1       -0.2282
     19 C           0.9005   -0.0782   29.0569 C.ar    1  UNL1        0.0701
     20 C          -0.5566   -0.1838   28.7166 C.3     1  UNL1        0.0528
     21 C           0.9525    3.5357   29.8846 C.3     1  UNL1        0.0779
     22 C           0.8315    2.1722   30.4978 C.2     1  UNL1        0.1807
     23 O           0.0035    1.9761   31.7330 O.2     1  UNL1       -0.2908
     24 C           8.4122   -3.2769   20.9955 C.3     1  UNL1        0.1587
     25 N           7.3520   -2.8736   20.0139 N.3     1  UNL1       -0.2626
     26 C           7.7410   -2.3085   18.6800 C.3     1  UNL1        0.0900
     27 C           5.9030   -3.0353   20.3663 C.3     1  UNL1        0.0900
     28 C           6.6042   -5.2824   26.9503 C.3     1  UNL1        0.0754
     29 N           7.3345   -5.2221   28.2591 N.3     1  UNL1       -0.2726
     30 C           8.8050   -5.5138   28.3117 C.3     1  UNL1        0.0721
     31 C           9.5353   -5.4535   29.6205 C.3     1  UNL1        0.0174
     32 C           8.7951   -5.1016   30.8768 C.3     1  UNL1        0.0031
     33 C           7.3247   -4.8099   30.8243 C.3     1  UNL1        0.0204
     34 C           6.5944   -4.8702   29.5154 C.3     1  UNL1        0.0724
     35 C           6.5844   -4.4579   32.0806 C.3     1  UNL1        0.0277
     36 C           6.1563   -3.0416   32.3270 C.ar    1  UNL1       -0.0220
     37 C           7.0608   -1.9075   31.9452 C.ar    1  UNL1       -0.0020
     38 C           6.6327   -0.4911   32.1916 C.ar    1  UNL1        0.0293
     39 C           5.3002   -0.2089   32.8199 C.ar    1  UNL1        0.1401
     40 F           4.8721    1.2074   33.0664 F       1  UNL1       -0.2042
     41 C           4.3958   -1.3430   33.2018 C.ar    1  UNL1        0.0293
     42 C           4.8239   -2.7594   32.9553 C.ar    1  UNL1       -0.0020
@<TRIPOS>BOND
     1    21    22    1
     2    22    23    2
     3    22    15    1
     4    15    16   ar
     5    16    17   ar
     6    17     9    1
     7     9    10   am
     8    10    11    2
     9    10    12   am
    10     1    12    1
    11     1     2    1
    12     2     3    1
    13     3     4    1
    14     4     5   am
    15     5     6    2
    16     5    24    1
    17    24    25    1
    18    25    26    1
    19    25    27    1
    20     4     7    1
    21     7     8    1
    22     8    28    1
    23    28    29    1
    24    29    30    1
    25    30    31    1
    26    31    32    1
    27    32    33    1
    28    33    35    1
    29    35    36    1
    30    36    37   ar
    31    37    38   ar
    32    38    39   ar
    33    39    40    1
    34    39    41   ar
    35    41    42   ar
    36    33    34    1
    37    17    18   ar
    38    18    19   ar
    39    19    20    1
    40    19    15   ar
    41     8     1    1
    42    34    29    1
    43    42    36   ar
    44     9    13    1
    45    12    14    1
@<TRIPOS>MOLECULE
*****
 42 45 0 0 0
SMALL
GASTEIGER

@<TRIPOS>ATOM
      1 C           2.4178    1.6833   19.4026 C.3     1  UNL1        0.0777
      2 C           2.4780    0.4803   18.5087 C.3     1  UNL1        0.0412
      3 C           3.4751   -0.6068   18.7805 C.3     1  UNL1        0.0951
      4 N           4.4121   -0.4909   19.9461 N.am    1  UNL1       -0.2782
      5 C           5.4092   -1.5780   20.2178 C.2     1  UNL1        0.2420
      6 O           6.3461   -1.4621   21.3835 O.2     1  UNL1       -0.2734
      7 C           4.3518    0.7121   20.8400 C.3     1  UNL1        0.0964
      8 C           3.3547    1.7992   20.5683 C.3     1  UNL1        0.0539
      9 N          -0.9605    3.7658   19.4306 N.am    1  UNL1       -0.2485
     10 C           0.0367    2.6787   19.7022 C.2     1  UNL1        0.3058
     11 O          -0.3500    1.4998   20.5453 O.2     1  UNL1       -0.2524
     12 N           1.4206    2.7705   19.1309 N.am    1  UNL1       -0.2901
     13 H          -0.7067    4.5396   18.8773 H       1  UNL1        0.1583
     14 H           1.6744    3.5442   18.5776 H       1  UNL1        0.1509
     15 C          -4.7594    3.7623   20.2265 C.ar    1  UNL1        0.0803
     16 S          -3.6196    3.9915   19.2787 S.2     1  UNL1       -0.0488
     17 C          -2.3444    3.6740   20.0019 C.ar    1  UNL1        0.1664
     18 N          -2.6961    3.2487   21.3966 N.ar    1  UNL1       -0.2282
     19 C          -4.1886    3.3032   21.5355 C.ar    1  UNL1        0.0701
     20 C          -4.9727    2.9591   22.7671 C.3     1  UNL1        0.0528
     21 C          -6.8250    3.2894   18.7234 C.3     1  UNL1        0.0779
     22 C          -6.2146    3.9580   19.9193 C.2     1  UNL1        0.1807
     23 O          -7.0591    4.8221   20.8080 O.2     1  UNL1       -0.2908
     24 C           5.4695   -2.7810   19.3239 C.3     1  UNL1        0.1587
     25 N           4.7832   -4.0518   19.7293 N.3     1  UNL1       -0.2626
     26 C           4.2599   -4.2089   21.1262 C.3     1  UNL1        0.0900
     27 C           4.6203   -5.1654   18.7377 C.3     1  UNL1        0.0900
     28 C           3.2944    3.0023   21.4623 C.3     1  UNL1        0.0754
     29 N           2.1227    3.1981   22.3781 N.3     1  UNL1       -0.2726
     30 C           1.3690    4.4951   22.3650 C.3     1  UNL1        0.0721
     31 C           0.1974    4.6909   23.2809 C.3     1  UNL1        0.0174
     32 C          -0.2206    3.5898   24.2099 C.3     1  UNL1        0.0031
     33 C           0.5330    2.2930   24.2230 C.3     1  UNL1        0.0204
     34 C           1.7047    2.0972   23.3071 C.3     1  UNL1        0.0724
     35 C           0.1150    1.1920   25.1520 C.3     1  UNL1        0.0277
     36 C           0.2682    1.3628   26.6344 C.ar    1  UNL1       -0.0220
     37 C           1.3881    2.1976   27.1814 C.ar    1  UNL1       -0.0020
     38 C           1.5413    2.3684   28.6637 C.ar    1  UNL1        0.0293
     39 C           0.5746    1.7045   29.5991 C.ar    1  UNL1        0.1401
     40 F           0.7278    1.8753   31.0814 F       1  UNL1       -0.2042
     41 C          -0.5452    0.8698   29.0521 C.ar    1  UNL1        0.0293
     42 C          -0.6984    0.6989   27.5697 C.ar    1  UNL1       -0.0020
@<TRIPOS>BOND
     1    21    22    1
     2    22    23    2
     3    22    15    1
     4    15    16   ar
     5    16    17   ar
     6    17     9    1
     7     9    10   am
     8    10    11    2
     9    10    12   am
    10     1    12    1
    11     1     2    1
    12     2     3    1
    13     3     4    1
    14     4     5   am
    15     5     6    2
    16     5    24    1
    17    24    25    1
    18    25    26    1
    19    25    27    1
    20     4     7    1
    21     7     8    1
    22     8    28    1
    23    28    29    1
    24    29    30    1
    25    30    31    1
    26    31    32    1
    27    32    33    1
    28    33    35    1
    29    35    36    1
    30    36    37   ar
    31    37    38   ar
    32    38    39   ar
    33    39    40    1
    34    39    41   ar
    35    41    42   ar
    36    33    34    1
    37    17    18   ar
    38    18    19   ar
    39    19    20    1
    40    19    15   ar
    41     8     1    1
    42    34    29    1
    43    42    36   ar
    44     9    13    1
    45    12    14    1
@<TRIPOS>MOLECULE
*****
 42 45 0 0 0
SMALL
GASTEIGER

@<TRIPOS>ATOM
      1 C           1.0742    0.6151   20.8885 C.3     1  UNL1        0.0777
      2 C           1.2839   -0.5663   19.9882 C.3     1  UNL1        0.0412
      3 C           2.6721   -1.0651   19.7166 C.3     1  UNL1        0.0951
      4 N           3.8507   -0.3826   20.3452 N.am    1  UNL1       -0.2782
      5 C           5.2391   -0.8814   20.0736 C.2     1  UNL1        0.2420
      6 O           6.4176   -0.1989   20.7022 O.2     1  UNL1       -0.2734
      7 C           3.6410    0.7988   21.2455 C.3     1  UNL1        0.0964
      8 C           2.2527    1.2976   21.5171 C.3     1  UNL1        0.0539
      9 N          -2.2439    2.7805   20.6615 N.am    1  UNL1       -0.2485
     10 C          -0.8556    2.2816   20.3899 C.2     1  UNL1        0.3058
     11 O          -0.0087    2.9505   19.3479 O.2     1  UNL1       -0.2524
     12 N          -0.3142    1.1139   21.1601 N.am    1  UNL1       -0.2901
     13 H          -2.7997    2.3415   21.3453 H       1  UNL1        0.1583
     14 H          -0.8700    0.6750   21.8439 H       1  UNL1        0.1509
     15 C          -4.1263    5.2971   18.3834 C.ar    1  UNL1        0.0803
     16 S          -3.9251    3.9096   18.9168 S.2     1  UNL1       -0.0488
     17 C          -2.7853    3.9482   19.8912 C.ar    1  UNL1        0.1664
     18 N          -2.2821    5.3596   19.9601 N.ar    1  UNL1       -0.2282
     19 C          -3.1108    6.1932   19.0283 C.ar    1  UNL1        0.0701
     20 C          -2.9520    7.6647   18.7841 C.3     1  UNL1        0.0528
     21 C          -5.1119    5.1749   15.9828 C.3     1  UNL1        0.0779
     22 C          -5.1612    5.7150   17.3813 C.2     1  UNL1        0.1807
     23 O          -6.2452    6.6728   17.7776 O.2     1  UNL1       -0.2908
     24 C           5.4488   -2.0628   19.1734 C.3     1  UNL1        0.1587
     25 N           5.3649   -3.4535   19.7291 N.3     1  UNL1       -0.2626
     26 C           5.9538   -3.7605   21.0741 C.3     1  UNL1        0.0900
     27 C           4.6921   -4.5372   18.9399 C.3     1  UNL1        0.0900
     28 C           2.0429    2.4789   22.4174 C.3     1  UNL1        0.0754
     29 N           1.0262    2.4118   23.5181 N.3     1  UNL1       -0.2726
     30 C           1.0545    1.2756   24.4971 C.3     1  UNL1        0.0721
     31 C           0.0378    1.2085   25.5978 C.3     1  UNL1        0.0174
     32 C          -1.0074    2.2776   25.7196 C.3     1  UNL1        0.0031
     33 C          -1.0357    3.4138   24.7407 C.3     1  UNL1        0.0204
     34 C          -0.0189    3.4809   23.6400 C.3     1  UNL1        0.0724
     35 C          -2.0808    4.4829   24.8625 C.3     1  UNL1        0.0277
     36 C          -3.2818    4.4635   23.9640 C.ar    1  UNL1       -0.0220
     37 C          -4.0213    3.1800   23.7281 C.ar    1  UNL1       -0.0020
     38 C          -5.2223    3.1606   22.8295 C.ar    1  UNL1        0.0293
     39 C          -5.6836    4.4248   22.1669 C.ar    1  UNL1        0.1401
     40 F          -6.8846    4.4055   21.2684 F       1  UNL1       -0.2042
     41 C          -4.9441    5.7083   22.4028 C.ar    1  UNL1        0.0293
     42 C          -3.7431    5.7276   23.3014 C.ar    1  UNL1       -0.0020
@<TRIPOS>BOND
     1    21    22    1
     2    22    23    2
     3    22    15    1
     4    15    16   ar
     5    16    17   ar
     6    17     9    1
     7     9    10   am
     8    10    11    2
     9    10    12   am
    10     1    12    1
    11     1     2    1
    12     2     3    1
    13     3     4    1
    14     4     5   am
    15     5     6    2
    16     5    24    1
    17    24    25    1
    18    25    26    1
    19    25    27    1
    20     4     7    1
    21     7     8    1
    22     8    28    1
    23    28    29    1
    24    29    30    1
    25    30    31    1
    26    31    32    1
    27    32    33    1
    28    33    35    1
    29    35    36    1
    30    36    37   ar
    31    37    38   ar
    32    38    39   ar
    33    39    40    1
    34    39    41   ar
    35    41    42   ar
    36    33    34    1
    37    17    18   ar
    38    18    19   ar
    39    19    20    1
    40    19    15   ar
    41     8     1    1
    42    34    29    1
    43    42    36   ar
    44     9    13    1
    45    12    14    1
@<TRIPOS>MOLECULE
*****
 42 45 0 0 0
SMALL
GASTEIGER

@<TRIPOS>ATOM
      1 C           6.2727   -1.6041   30.4342 C.3     1  UNL1        0.0777
      2 C           7.1492   -1.8741   29.2473 C.3     1  UNL1        0.0412
      3 C           7.9011   -3.1683   29.1492 C.3     1  UNL1        0.0951
      4 N           7.7765   -4.1924   30.2381 N.am    1  UNL1       -0.2782
      5 C           8.5285   -5.4867   30.1400 C.2     1  UNL1        0.2420
      6 O           8.4040   -6.5108   31.2289 O.2     1  UNL1       -0.2734
      7 C           6.9001   -3.9224   31.4250 C.3     1  UNL1        0.0964
      8 C           6.1482   -2.6282   31.5231 C.3     1  UNL1        0.0539
      9 N           3.4022    1.1056   30.0240 N.am    1  UNL1       -0.2485
     10 C           4.1542   -0.1886   29.9259 C.2     1  UNL1        0.3058
     11 O           3.5395   -1.3617   29.2214 O.2     1  UNL1       -0.2524
     12 N           5.5208   -0.3098   30.5323 N.am    1  UNL1       -0.2901
     13 H           3.8056    1.8754   30.4864 H       1  UNL1        0.1583
     14 H           5.9242    0.4601   30.9947 H       1  UNL1        0.1509
     15 C           0.1732    1.9793   28.0553 C.ar    1  UNL1        0.0803
     16 S           1.6217    2.2138   28.3667 S.2     1  UNL1       -0.0488
     17 C           2.0356    1.2268   29.4176 C.ar    1  UNL1        0.1664
     18 N           0.8430    0.3822   29.7556 N.ar    1  UNL1       -0.2282
     19 C          -0.3080    0.8472   28.9136 C.ar    1  UNL1        0.0701
     20 C          -1.6965    0.2799   28.9276 C.3     1  UNL1        0.0528
     21 C          -0.9267    4.2008   27.2775 C.3     1  UNL1        0.0779
     22 C          -0.6495    2.7428   27.0601 C.2     1  UNL1        0.1807
     23 O          -1.1949    2.0482   25.8477 O.2     1  UNL1       -0.2908
     24 C           9.4049   -5.7568   28.9530 C.3     1  UNL1        0.1587
     25 N           8.9000   -6.6084   27.8261 N.3     1  UNL1       -0.2626
     26 C           8.7951   -8.0948   27.9980 C.3     1  UNL1        0.0900
     27 C           8.4999   -5.9735   26.5273 C.3     1  UNL1        0.0900
     28 C           5.2717   -2.3580   32.7101 C.3     1  UNL1        0.0754
     29 N           5.7066   -1.3736   33.7549 N.3     1  UNL1       -0.2726
     30 C           7.0802   -0.7737   33.6948 C.3     1  UNL1        0.0721
     31 C           7.5151    0.2107   34.7396 C.3     1  UNL1        0.0174
     32 C           6.5764    0.5953   35.8447 C.3     1  UNL1        0.0031
     33 C           5.2029   -0.0045   35.9048 C.3     1  UNL1        0.0204
     34 C           4.7680   -0.9890   34.8599 C.3     1  UNL1        0.0724
     35 C           4.2642    0.3801   37.0098 C.3     1  UNL1        0.0277
     36 C           3.4077    1.6040   36.8743 C.ar    1  UNL1       -0.0220
     37 C           2.6880    2.1520   38.0709 C.ar    1  UNL1       -0.0020
     38 C           1.8314    3.3760   37.9354 C.ar    1  UNL1        0.0293
     39 C           1.6947    4.0519   36.6033 C.ar    1  UNL1        0.1401
     40 F           0.8381    5.2758   36.4678 F       1  UNL1       -0.2042
     41 C           2.4143    3.5039   35.4068 C.ar    1  UNL1        0.0293
     42 C           3.2709    2.2800   35.5423 C.ar    1  UNL1       -0.0020
@<TRIPOS>BOND
     1    21    22    1
     2    22    23    2
     3    22    15    1
     4    15    16   ar
     5    16    17   ar
     6    17     9    1
     7     9    10   am
     8    10    11    2
     9    10    12   am
    10     1    12    1
    11     1     2    1
    12     2     3    1
    13     3     4    1
    14     4     5   am
    15     5     6    2
    16     5    24    1
    17    24    25    1
    18    25    26    1
    19    25    27    1
    20     4     7    1
    21     7     8    1
    22     8    28    1
    23    28    29    1
    24    29    30    1
    25    30    31    1
    26    31    32    1
    27    32    33    1
    28    33    35    1
    29    35    36    1
    30    36    37   ar
    31    37    38   ar
    32    38    39   ar
    33    39    40    1
    34    39    41   ar
    35    41    42   ar
    36    33    34    1
    37    17    18   ar
    38    18    19   ar
    39    19    20    1
    40    19    15   ar
    41     8     1    1
    42    34    29    1
    43    42    36   ar
    44     9    13    1
    45    12    14    1
@<TRIPOS>MOLECULE
*****
 42 45 0 0 0
SMALL
GASTEIGER

@<TRIPOS>ATOM
      1 C           3.6876   -0.6156   26.3012 C.3     1  UNL1        0.0777
      2 C           4.4804   -1.8742   26.4950 C.3     1  UNL1        0.0412
      3 C           5.3604   -2.0281   27.6999 C.3     1  UNL1        0.0951
      4 N           5.4476   -0.9236   28.7110 N.am    1  UNL1       -0.2782
      5 C           6.3277   -1.0776   29.9159 C.2     1  UNL1        0.2420
      6 O           6.4149    0.0269   30.9271 O.2     1  UNL1       -0.2734
      7 C           4.6548    0.3349   28.5172 C.3     1  UNL1        0.0964
      8 C           3.7748    0.4889   27.3123 C.3     1  UNL1        0.0539
      9 N           2.5384   -0.1943   22.5260 N.am    1  UNL1       -0.2485
     10 C           3.4184   -0.3483   23.7309 C.2     1  UNL1        0.3058
     11 O           4.9093   -0.3890   23.5706 O.2     1  UNL1       -0.2524
     12 N           2.8075   -0.4616   25.0962 N.am    1  UNL1       -0.2901
     13 H           1.5599   -0.1675   22.6313 H       1  UNL1        0.1583
     14 H           1.8290   -0.4349   25.2015 H       1  UNL1        0.1509
     15 C           4.0412   -0.6504   18.9765 C.ar    1  UNL1        0.0803
     16 S           3.4307   -1.2178   20.2236 S.2     1  UNL1       -0.0488
     17 C           3.1492   -0.0809   21.1607 C.ar    1  UNL1        0.1664
     18 N           3.5859    1.1892   20.4928 N.ar    1  UNL1       -0.2282
     19 C           4.1372    0.8373   19.1429 C.ar    1  UNL1        0.0701
     20 C           4.6877    1.8034   18.1362 C.3     1  UNL1        0.0528
     21 C           5.4543   -2.5623   17.9288 C.3     1  UNL1        0.0779
     22 C           4.4790   -1.4331   17.7742 C.2     1  UNL1        0.1807
     23 O           3.9416   -1.0868   16.4174 O.2     1  UNL1       -0.2908
     24 C           7.1204   -2.3361   30.1097 C.3     1  UNL1        0.1587
     25 N           7.3273   -2.8873   31.4894 N.3     1  UNL1       -0.2626
     26 C           8.7155   -3.0332   32.0384 C.3     1  UNL1        0.0900
     27 C           6.1458   -3.2927   32.3200 C.3     1  UNL1        0.0900
     28 C           2.9820    1.7475   27.1185 C.3     1  UNL1        0.0754
     29 N           1.4988    1.7414   27.3422 N.3     1  UNL1       -0.2726
     30 C           0.8424    0.5570   27.9875 C.3     1  UNL1        0.0721
     31 C          -0.6408    0.5509   28.2112 C.3     1  UNL1        0.0174
     32 C          -1.4677    1.7294   27.7896 C.3     1  UNL1        0.0031
     33 C          -0.8113    2.9138   27.1444 C.3     1  UNL1        0.0204
     34 C           0.6719    2.9198   26.9207 C.3     1  UNL1        0.0724
     35 C          -1.6382    4.0922   26.7229 C.3     1  UNL1        0.0277
     36 C          -2.7467    3.9133   25.7283 C.ar    1  UNL1       -0.0220
     37 C          -4.1759    3.9616   26.1814 C.ar    1  UNL1       -0.0020
     38 C          -5.2844    3.7826   25.1868 C.ar    1  UNL1        0.0293
     39 C          -4.9637    3.5554   23.7391 C.ar    1  UNL1        0.1401
     40 F          -6.0722    3.3765   22.7445 F       1  UNL1       -0.2042
     41 C          -3.5346    3.5072   23.2861 C.ar    1  UNL1        0.0293
     42 C          -2.4261    3.6861   24.2807 C.ar    1  UNL1       -0.0020
@<TRIPOS>BOND
     1    21    22    1
     2    22    23    2
     3    22    15    1
     4    15    16   ar
     5    16    17   ar
     6    17     9    1
     7     9    10   am
     8    10    11    2
     9    10    12   am
    10     1    12    1
    11     1     2    1
    12     2     3    1
    13     3     4    1
    14     4     5   am
    15     5     6    2
    16     5    24    1
    17    24    25    1
    18    25    26    1
    19    25    27    1
    20     4     7    1
    21     7     8    1
    22     8    28    1
    23    28    29    1
    24    29    30    1
    25    30    31    1
    26    31    32    1
    27    32    33    1
    28    33    35    1
    29    35    36    1
    30    36    37   ar
    31    37    38   ar
    32    38    39   ar
    33    39    40    1
    34    39    41   ar
    35    41    42   ar
    36    33    34    1
    37    17    18   ar
    38    18    19   ar
    39    19    20    1
    40    19    15   ar
    41     8     1    1
    42    34    29    1
    43    42    36   ar
    44     9    13    1
    45    12    14    1
@<TRIPOS>MOLECULE
*****
 42 45 0 0 0
SMALL
GASTEIGER

@<TRIPOS>ATOM
      1 C           4.8727    0.4766   27.9814 C.3     1  UNL1        0.0777
      2 C           5.7338   -0.7112   28.2941 C.3     1  UNL1        0.0412
      3 C           5.6356   -1.3765   29.6349 C.3     1  UNL1        0.0951
      4 N           4.6763   -0.8540   30.6630 N.am    1  UNL1       -0.2782
      5 C           4.5782   -1.5194   32.0038 C.2     1  UNL1        0.2420
      6 O           3.6189   -0.9970   33.0318 O.2     1  UNL1       -0.2734
      7 C           3.8153    0.3337   30.3503 C.3     1  UNL1        0.0964
      8 C           3.9135    0.9990   29.0095 C.3     1  UNL1        0.0539
      9 N           4.3845    1.2019   24.1103 N.am    1  UNL1       -0.2485
     10 C           4.2863    0.5366   25.4511 C.2     1  UNL1        0.3058
     11 O           3.5036   -0.7340   25.6024 O.2     1  UNL1       -0.2524
     12 N           4.9709    1.1419   26.6406 N.am    1  UNL1       -0.2901
     13 H           4.8982    2.0359   24.0110 H       1  UNL1        0.1583
     14 H           5.4846    1.9759   26.5414 H       1  UNL1        0.1509
     15 C           2.1544    0.2311   21.0854 C.ar    1  UNL1        0.0803
     16 S           2.5013    1.1566   22.2138 S.2     1  UNL1       -0.0488
     17 C           3.6999    0.5966   22.9208 C.ar    1  UNL1        0.1664
     18 N           4.0937   -0.6749   22.2294 N.ar    1  UNL1       -0.2282
     19 C           3.1385   -0.9008   21.0951 C.ar    1  UNL1        0.0701
     20 C           3.1632   -2.0559   20.1384 C.3     1  UNL1        0.0528
     21 C           1.3076    0.7061   18.6756 C.3     1  UNL1        0.0779
     22 C           1.0221    0.4068   20.1174 C.2     1  UNL1        0.1807
     23 O          -0.3957    0.2832   20.5912 O.2     1  UNL1       -0.2908
     24 C           5.4392   -2.7072   32.3165 C.3     1  UNL1        0.1587
     25 N           6.9251   -2.5441   32.4421 N.3     1  UNL1       -0.2626
     26 C           7.4913   -1.3480   33.1481 C.3     1  UNL1        0.0900
     27 C           7.8447   -3.5773   31.8616 C.3     1  UNL1        0.0900
     28 C           3.0524    2.1868   28.6968 C.3     1  UNL1        0.0754
     29 N           1.6167    1.9910   28.3088 N.3     1  UNL1       -0.2726
     30 C           0.9958    0.6282   28.3946 C.3     1  UNL1        0.0721
     31 C          -0.4399    0.4324   28.0067 C.3     1  UNL1        0.0174
     32 C          -1.2546    1.5994   27.5329 C.3     1  UNL1        0.0031
     33 C          -0.6337    2.9621   27.4471 C.3     1  UNL1        0.0204
     34 C           0.8020    3.1579   27.8350 C.3     1  UNL1        0.0724
     35 C          -1.4484    4.1291   26.9733 C.3     1  UNL1        0.0277
     36 C          -2.5241    3.9258   25.9478 C.ar    1  UNL1       -0.0220
     37 C          -2.1570    3.6854   24.5134 C.ar    1  UNL1       -0.0020
     38 C          -3.2326    3.4821   23.4879 C.ar    1  UNL1        0.0293
     39 C          -4.6754    3.5193   23.8968 C.ar    1  UNL1        0.1401
     40 F          -5.7511    3.3160   22.8714 F       1  UNL1       -0.2042
     41 C          -5.0424    3.7597   25.3312 C.ar    1  UNL1        0.0293
     42 C          -3.9667    3.9630   26.3567 C.ar    1  UNL1       -0.0020
@<TRIPOS>BOND
     1    21    22    1
     2    22    23    2
     3    22    15    1
     4    15    16   ar
     5    16    17   ar
     6    17     9    1
     7     9    10   am
     8    10    11    2
     9    10    12   am
    10     1    12    1
    11     1     2    1
    12     2     3    1
    13     3     4    1
    14     4     5   am
    15     5     6    2
    16     5    24    1
    17    24    25    1
    18    25    26    1
    19    25    27    1
    20     4     7    1
    21     7     8    1
    22     8    28    1
    23    28    29    1
    24    29    30    1
    25    30    31    1
    26    31    32    1
    27    32    33    1
    28    33    35    1
    29    35    36    1
    30    36    37   ar
    31    37    38   ar
    32    38    39   ar
    33    39    40    1
    34    39    41   ar
    35    41    42   ar
    36    33    34    1
    37    17    18   ar
    38    18    19   ar
    39    19    20    1
    40    19    15   ar
    41     8     1    1
    42    34    29    1
    43    42    36   ar
    44     9    13    1
    45    12    14    1
@<TRIPOS>MOLECULE
*****
 42 45 0 0 0
SMALL
GASTEIGER

@<TRIPOS>ATOM
      1 C          -0.1410    2.1310   25.7531 C.3     1  UNL1        0.0777
      2 C          -1.4511    2.3639   26.4455 C.3     1  UNL1        0.0412
      3 C          -2.2619    3.5846   26.1254 C.3     1  UNL1        0.0951
      4 N          -1.7626    4.5724   25.1130 N.am    1  UNL1       -0.2782
      5 C          -2.5735    5.7931   24.7929 C.2     1  UNL1        0.2420
      6 O          -2.0742    6.7809   23.7805 O.2     1  UNL1       -0.2734
      7 C          -0.4525    4.3395   24.4206 C.3     1  UNL1        0.0964
      8 C           0.3583    3.1188   24.7407 C.3     1  UNL1        0.0539
      9 N           2.3254   -0.3460   27.6323 N.am    1  UNL1       -0.2485
     10 C           1.5146    0.8746   27.3122 C.2     1  UNL1        0.3058
     11 O           1.5484    2.0597   28.2312 O.2     1  UNL1       -0.2524
     12 N           0.6699    0.9103   26.0732 N.am    1  UNL1       -0.2901
     13 H           2.3032   -1.1238   27.0291 H       1  UNL1        0.1583
     14 H           0.6477    0.1325   25.4700 H       1  UNL1        0.1509
     15 C           3.8580   -0.5671   31.1915 C.ar    1  UNL1        0.0803
     16 S           2.6765   -0.6140   30.2686 S.2     1  UNL1       -0.0488
     17 C           3.1701   -0.3817   28.8713 C.ar    1  UNL1        0.1664
     18 N           4.6568   -0.1912   28.9307 N.ar    1  UNL1       -0.2282
     19 C           5.0819   -0.3059   30.3646 C.ar    1  UNL1        0.0701
     20 C           6.4847   -0.1811   30.8809 C.3     1  UNL1        0.0528
     21 C           3.8181    0.4486   33.5824 C.3     1  UNL1        0.0779
     22 C           3.8219   -0.7495   32.6799 C.2     1  UNL1        0.1807
     23 O           3.7897   -2.1299   33.2658 O.2     1  UNL1       -0.2908
     24 C          -3.8835    6.0260   25.4853 C.3     1  UNL1        0.1587
     25 N          -5.1679    5.6561   24.8044 N.3     1  UNL1       -0.2626
     26 C          -5.9456    6.6962   24.0540 C.3     1  UNL1        0.0900
     27 C          -5.6745    4.2459   24.8739 C.3     1  UNL1        0.0900
     28 C           1.6684    2.8858   24.0483 C.3     1  UNL1        0.0754
     29 N           1.7721    1.8502   22.9681 N.3     1  UNL1       -0.2726
     30 C           0.5497    1.4426   22.2001 C.3     1  UNL1        0.0721
     31 C           0.6534    0.4070   21.1199 C.3     1  UNL1        0.0174
     32 C           1.9794   -0.2209   20.8077 C.3     1  UNL1        0.0031
     33 C           3.2017    0.1867   21.5756 C.3     1  UNL1        0.0204
     34 C           3.0980    1.2223   22.6558 C.3     1  UNL1        0.0724
     35 C           4.5278   -0.4412   21.2634 C.3     1  UNL1        0.0277
     36 C           4.5854   -1.7338   20.5046 C.ar    1  UNL1       -0.0220
     37 C           4.2005   -3.0172   21.1790 C.ar    1  UNL1       -0.0020
     38 C           4.2581   -4.3098   20.4202 C.ar    1  UNL1        0.0293
     39 C           4.7006   -4.3190   18.9869 C.ar    1  UNL1        0.1401
     40 F           4.7582   -5.6117   18.2281 F       1  UNL1       -0.2042
     41 C           5.0855   -3.0357   18.3126 C.ar    1  UNL1        0.0293
     42 C           5.0279   -1.7431   19.0714 C.ar    1  UNL1       -0.0020
@<TRIPOS>BOND
     1    21    22    1
     2    22    23    2
     3    22    15    1
     4    15    16   ar
     5    16    17   ar
     6    17     9    1
     7     9    10   am
     8    10    11    2
     9    10    12   am
    10     1    12    1
    11     1     2    1
    12     2     3    1
    13     3     4    1
    14     4     5   am
    15     5     6    2
    16     5    24    1
    17    24    25    1
    18    25    26    1
    19    25    27    1
    20     4     7    1
    21     7     8    1
    22     8    28    1
    23    28    29    1
    24    29    30    1
    25    30    31    1
    26    31    32    1
    27    32    33    1
    28    33    35    1
    29    35    36    1
    30    36    37   ar
    31    37    38   ar
    32    38    39   ar
    33    39    40    1
    34    39    41   ar
    35    41    42   ar
    36    33    34    1
    37    17    18   ar
    38    18    19   ar
    39    19    20    1
    40    19    15   ar
    41     8     1    1
    42    34    29    1
    43    42    36   ar
    44     9    13    1
    45    12    14    1
