@<TRIPOS>MOLECULE
*****
 43 46 0 0 0
SMALL
GASTEIGER

@<TRIPOS>ATOM
      1 C           5.5241    1.6418   23.0486 C.3     1  UNL1        0.0038
      2 C           6.5604    0.5576   23.0297 C.3     1  UNL1        0.0473
      3 C           7.8823    0.7718   23.7056 C.3     1  UNL1        0.2054
      4 O           8.0120    0.5572   25.1845 O.3     1  UNL1       -0.4755
      5 C           7.2626   -0.5595   25.8488 C.ar    1  UNL1        0.1386
      6 C           6.1875   -0.2509   26.8482 C.ar    1  UNL1        0.0369
      7 C           5.4381   -1.3677   27.5126 C.ar    1  UNL1        0.0031
      8 C           5.7639   -2.7930   27.1775 C.ar    1  UNL1        0.0002
      9 C           6.8391   -3.1016   26.1781 C.ar    1  UNL1        0.0031
     10 C           7.5884   -1.9849   25.5138 C.ar    1  UNL1        0.0369
     11 C           7.1648   -4.5270   25.8431 C.ar    1  UNL1        0.0032
     12 C           6.7395   -5.6304   26.7659 C.ar    1  UNL1        0.0207
     13 C           7.0653   -7.0557   26.4308 C.ar    1  UNL1        0.0989
     14 N           7.8164   -7.3776   25.1729 N.ar    1  UNL1       -0.2423
     15 C           8.2418   -6.2742   24.2501 C.ar    1  UNL1        0.0989
     16 C           7.9160   -4.8489   24.5852 C.ar    1  UNL1        0.0207
     17 C           4.3629   -1.0591   28.5120 C.ar    1  UNL1        0.0032
     18 C           4.6901   -1.0125   29.9752 C.ar    1  UNL1        0.0207
     19 C           3.6149   -0.7039   30.9746 C.ar    1  UNL1        0.0989
     20 N           2.2126   -0.4419   30.5107 N.ar    1  UNL1       -0.2423
     21 C           1.8856   -0.4884   29.0476 C.ar    1  UNL1        0.0989
     22 C           2.9607   -0.7970   28.0482 C.ar    1  UNL1        0.0207
     23 C           4.5487    1.7273   24.1849 C.3     1  UNL1        0.0005
     24 C           3.6804    0.5503   24.5182 C.3     1  UNL1        0.0047
     25 C           2.9609   -0.1839   23.4260 C.3     1  UNL1        0.0261
     26 C           4.1583   -2.7622   20.6567 C.ar    1  UNL1        0.1342
     27 C           4.8602   -3.7821   21.5035 C.ar    1  UNL1        0.0365
     28 C           4.9290   -3.6026   22.9912 C.ar    1  UNL1        0.0028
     29 C           4.2959   -2.4032   23.6320 C.ar    1  UNL1       -0.0044
     30 C           3.5940   -1.3834   22.7852 C.ar    1  UNL1       -0.0232
     31 C           3.5252   -1.5629   21.2975 C.ar    1  UNL1        0.0082
     32 C           2.8233   -0.5429   20.4507 C.3     1  UNL1        0.0350
     33 C           1.3826   -0.7381   20.0813 C.3     1  UNL1        0.0465
     34 C           0.5445    0.4400   19.6819 C.2     1  UNL1        0.0507
     35 O           0.6269    0.9799   18.2848 O.co2   1  UNL1       -0.5492
     36 O          -0.3761    1.0782   20.6795 O.co2   1  UNL1       -0.5492
     37 O           4.0895   -2.9417   19.1691 O.3     1  UNL1       -0.4758
     38 C           5.3329   -3.2635   18.3942 C.3     1  UNL1        0.2058
     39 C           6.2939   -2.1707   18.0305 C.3     1  UNL1        0.0532
     40 C           5.8575   -0.7369   18.0924 C.3     1  UNL1        0.0455
     41 O           5.6990    1.4286   19.5192 O.co2   1  UNL1       -0.5492
     42 C           6.4314    0.1774   19.1339 C.2     1  UNL1        0.0505
     43 O           7.7375   -0.1593   19.7901 O.co2   1  UNL1       -0.5492
@<TRIPOS>UNITY_ATOM_ATTR
35 1
charge -1
41 1
charge -1
@<TRIPOS>BOND
     1    41    42   ar
     2    42    43   ar
     3    42    40    1
     4    40    39    1
     5    39    38    1
     6    38    37    1
     7    37    26    1
     8    26    27   ar
     9    27    28   ar
    10    28    29   ar
    11    29    30   ar
    12    30    25    1
    13    25    24    1
    14    24    23    1
    15    23     1    1
    16     1     2    1
    17     2     3    1
    18     3     4    1
    19     4     5    1
    20     5     6   ar
    21     6     7   ar
    22     7    17    1
    23    17    18   ar
    24    18    19   ar
    25    19    20   ar
    26    20    21   ar
    27    21    22   ar
    28     7     8   ar
    29     8     9   ar
    30     9    11    1
    31    11    12   ar
    32    12    13   ar
    33    13    14   ar
    34    14    15   ar
    35    15    16   ar
    36     9    10   ar
    37    30    31   ar
    38    31    32    1
    39    32    33    1
    40    33    34    1
    41    34    35   ar
    42    34    36   ar
    43    31    26   ar
    44    10     5   ar
    45    22    17   ar
    46    16    11   ar
@<TRIPOS>MOLECULE
*****
 43 46 0 0 0
SMALL
GASTEIGER

@<TRIPOS>ATOM
      1 C           0.8665   -0.0271   19.8275 C.3     1  UNL1        0.0038
      2 C           0.5305    0.6310   21.1329 C.3     1  UNL1        0.0473
      3 C           0.0501    2.0519   21.1548 C.3     1  UNL1        0.2054
      4 O           0.3707    2.9340   22.3248 O.3     1  UNL1       -0.4755
      5 C          -0.5322    2.9488   23.5225 C.ar    1  UNL1        0.1386
      6 C          -0.0275    2.4616   24.8483 C.ar    1  UNL1        0.0369
      7 C          -0.9305    2.4764   26.0461 C.ar    1  UNL1        0.0031
      8 C          -2.3381    2.9784   25.9179 C.ar    1  UNL1        0.0002
      9 C          -2.8429    3.4656   24.5921 C.ar    1  UNL1        0.0031
     10 C          -1.9400    3.4508   23.3944 C.ar    1  UNL1        0.0369
     11 C          -4.2506    3.9676   24.4640 C.ar    1  UNL1        0.0032
     12 C          -5.0550    3.6408   23.2409 C.ar    1  UNL1        0.0207
     13 C          -6.4627    4.1428   23.1128 C.ar    1  UNL1        0.0989
     14 N          -7.0659    4.9717   24.2078 N.ar    1  UNL1       -0.2423
     15 C          -6.2615    5.2986   25.4309 C.ar    1  UNL1        0.0989
     16 C          -4.8538    4.7965   25.5590 C.ar    1  UNL1        0.0207
     17 C          -0.4258    1.9891   27.3719 C.ar    1  UNL1        0.0032
     18 C          -0.6241    0.5564   27.7694 C.ar    1  UNL1        0.0207
     19 C          -0.1194    0.0691   29.0952 C.ar    1  UNL1        0.0989
     20 N           0.5837    1.0147   30.0236 N.ar    1  UNL1       -0.2423
     21 C           0.7820    2.4473   29.6261 C.ar    1  UNL1        0.0989
     22 C           0.2773    2.9346   28.3002 C.ar    1  UNL1        0.0207
     23 C           1.2698    0.8080   18.6486 C.3     1  UNL1        0.0005
     24 C           2.6851    0.7720   18.1529 C.3     1  UNL1        0.0047
     25 C           3.2937   -0.5273   17.7153 C.3     1  UNL1        0.0261
     26 C           6.1755   -2.4139   19.6865 C.ar    1  UNL1        0.1342
     27 C           7.3880   -1.6974   19.1704 C.ar    1  UNL1        0.0365
     28 C           7.2357   -0.5908   18.1693 C.ar    1  UNL1        0.0028
     29 C           5.8710   -0.2007   17.6843 C.ar    1  UNL1       -0.0044
     30 C           4.6585   -0.9173   18.2004 C.ar    1  UNL1       -0.0232
     31 C           4.8108   -2.0239   19.2015 C.ar    1  UNL1        0.0082
     32 C           3.5982   -2.7405   19.7176 C.3     1  UNL1        0.0350
     33 C           3.1524   -4.0198   19.0737 C.3     1  UNL1        0.0465
     34 C           3.7369   -5.3273   19.5195 C.2     1  UNL1        0.0507
     35 O           3.1245   -6.0690   20.6705 O.co2   1  UNL1       -0.5492
     36 O           4.9338   -5.8930   18.8143 O.co2   1  UNL1       -0.5492
     37 O           6.3278   -3.5205   20.6876 O.3     1  UNL1       -0.4758
     38 C           6.2729   -3.2168   22.1555 C.3     1  UNL1        0.2058
     39 C           4.9994   -3.4309   22.9186 C.3     1  UNL1        0.0532
     40 C           4.3604   -2.2862   23.6477 C.3     1  UNL1        0.0455
     41 O           5.6276   -0.1356   24.3683 O.co2   1  UNL1       -0.5492
     42 C           4.7971   -0.8794   23.3646 C.2     1  UNL1        0.0505
     43 O           4.4034   -0.2163   22.0781 O.co2   1  UNL1       -0.5492
@<TRIPOS>UNITY_ATOM_ATTR
35 1
charge -1
41 1
charge -1
@<TRIPOS>BOND
     1    41    42   ar
     2    42    43   ar
     3    42    40    1
     4    40    39    1
     5    39    38    1
     6    38    37    1
     7    37    26    1
     8    26    27   ar
     9    27    28   ar
    10    28    29   ar
    11    29    30   ar
    12    30    25    1
    13    25    24    1
    14    24    23    1
    15    23     1    1
    16     1     2    1
    17     2     3    1
    18     3     4    1
    19     4     5    1
    20     5     6   ar
    21     6     7   ar
    22     7    17    1
    23    17    18   ar
    24    18    19   ar
    25    19    20   ar
    26    20    21   ar
    27    21    22   ar
    28     7     8   ar
    29     8     9   ar
    30     9    11    1
    31    11    12   ar
    32    12    13   ar
    33    13    14   ar
    34    14    15   ar
    35    15    16   ar
    36     9    10   ar
    37    30    31   ar
    38    31    32    1
    39    32    33    1
    40    33    34    1
    41    34    35   ar
    42    34    36   ar
    43    31    26   ar
    44    10     5   ar
    45    22    17   ar
    46    16    11   ar
@<TRIPOS>MOLECULE
*****
 43 46 0 0 0
SMALL
GASTEIGER

@<TRIPOS>ATOM
      1 C           4.2744   -4.4259   19.8363 C.3     1  UNL1        0.0038
      2 C           4.1906   -3.5927   18.5918 C.3     1  UNL1        0.0473
      3 C           5.3919   -2.8295   18.1179 C.3     1  UNL1        0.2054
      4 O           5.2227   -1.4744   17.4976 O.3     1  UNL1       -0.4755
      5 C           4.8951   -0.2909   18.3590 C.ar    1  UNL1        0.1386
      6 C           5.6542   -0.0562   19.6312 C.ar    1  UNL1        0.0369
      7 C           5.3266    1.1274   20.4926 C.ar    1  UNL1        0.0031
      8 C           4.2399    2.0761   20.0817 C.ar    1  UNL1        0.0002
      9 C           3.4808    1.8414   18.8095 C.ar    1  UNL1        0.0031
     10 C           3.8084    0.6579   17.9481 C.ar    1  UNL1        0.0369
     11 C           2.3940    2.7903   18.3986 C.ar    1  UNL1        0.0032
     12 C           0.9758    2.3110   18.3049 C.ar    1  UNL1        0.0207
     13 C          -0.1109    3.2598   17.8941 C.ar    1  UNL1        0.0989
     14 N           0.2207    4.6879   17.5770 N.ar    1  UNL1       -0.2423
     15 C           1.6389    5.1672   17.6707 C.ar    1  UNL1        0.0989
     16 C           2.7256    4.2184   18.0815 C.ar    1  UNL1        0.0207
     17 C           6.0857    1.3621   21.7649 C.ar    1  UNL1        0.0032
     18 C           7.0940    0.3551   22.2333 C.ar    1  UNL1        0.0207
     19 C           7.8531    0.5898   23.5055 C.ar    1  UNL1        0.0989
     20 N           7.6040    1.8315   24.3094 N.ar    1  UNL1       -0.2423
     21 C           6.5958    2.8385   23.8409 C.ar    1  UNL1        0.0989
     22 C           5.8366    2.6038   22.5687 C.ar    1  UNL1        0.0207
     23 C           5.0577   -3.9337   21.0170 C.3     1  UNL1        0.0005
     24 C           4.3414   -3.4211   22.2313 C.3     1  UNL1        0.0047
     25 C           4.3756   -1.9580   22.5603 C.3     1  UNL1        0.0261
     26 C           1.6591    0.9304   22.7272 C.ar    1  UNL1        0.1342
     27 C           0.8983    0.6776   21.4594 C.ar    1  UNL1        0.0365
     28 C           1.2966   -0.4537   20.5586 C.ar    1  UNL1        0.0028
     29 C           2.4557   -1.3322   20.9255 C.ar    1  UNL1       -0.0044
     30 C           3.2165   -1.0795   22.1933 C.ar    1  UNL1       -0.0232
     31 C           2.8181    0.0518   23.0941 C.ar    1  UNL1        0.0082
     32 C           3.5790    0.3045   24.3620 C.3     1  UNL1        0.0350
     33 C           3.1420   -0.3456   25.6412 C.3     1  UNL1        0.0465
     34 C           4.1248   -1.1325   26.4564 C.2     1  UNL1        0.0507
     35 O           5.5135   -1.3641   25.9387 O.co2   1  UNL1       -0.5492
     36 O           3.7189   -1.6880   27.7894 O.co2   1  UNL1       -0.5492
     37 O           1.2608    2.0616   23.6281 O.3     1  UNL1       -0.4758
     38 C          -0.1869    2.4218   23.7845 C.3     1  UNL1        0.2058
     39 C          -0.7955    2.5044   25.1530 C.3     1  UNL1        0.0532
     40 C          -0.3366    1.5729   26.2355 C.3     1  UNL1        0.0455
     41 O           0.0867    1.9651   28.7687 O.co2   1  UNL1       -0.5492
     42 C           0.5375    2.0826   27.3428 C.2     1  UNL1        0.0505
     43 O           1.8622    2.7099   27.0244 O.co2   1  UNL1       -0.5492
@<TRIPOS>UNITY_ATOM_ATTR
35 1
charge -1
41 1
charge -1
@<TRIPOS>BOND
     1    41    42   ar
     2    42    43   ar
     3    42    40    1
     4    40    39    1
     5    39    38    1
     6    38    37    1
     7    37    26    1
     8    26    27   ar
     9    27    28   ar
    10    28    29   ar
    11    29    30   ar
    12    30    25    1
    13    25    24    1
    14    24    23    1
    15    23     1    1
    16     1     2    1
    17     2     3    1
    18     3     4    1
    19     4     5    1
    20     5     6   ar
    21     6     7   ar
    22     7    17    1
    23    17    18   ar
    24    18    19   ar
    25    19    20   ar
    26    20    21   ar
    27    21    22   ar
    28     7     8   ar
    29     8     9   ar
    30     9    11    1
    31    11    12   ar
    32    12    13   ar
    33    13    14   ar
    34    14    15   ar
    35    15    16   ar
    36     9    10   ar
    37    30    31   ar
    38    31    32    1
    39    32    33    1
    40    33    34    1
    41    34    35   ar
    42    34    36   ar
    43    31    26   ar
    44    10     5   ar
    45    22    17   ar
    46    16    11   ar
@<TRIPOS>MOLECULE
*****
 43 46 0 0 0
SMALL
GASTEIGER

@<TRIPOS>ATOM
      1 C           4.3365   -4.3415   20.1860 C.3     1  UNL1        0.0038
      2 C           4.1050   -3.7061   18.8471 C.3     1  UNL1        0.0473
      3 C           5.2118   -2.9493   18.1745 C.3     1  UNL1        0.2054
      4 O           4.9265   -1.6342   17.5121 O.3     1  UNL1       -0.4755
      5 C           4.6870   -0.4107   18.3462 C.ar    1  UNL1        0.1386
      6 C           5.5396   -0.1460   19.5515 C.ar    1  UNL1        0.0369
      7 C           5.3001    1.0775   20.3856 C.ar    1  UNL1        0.0031
      8 C           4.2080    2.0363   20.0143 C.ar    1  UNL1        0.0002
      9 C           3.3553    1.7716   18.8089 C.ar    1  UNL1        0.0031
     10 C           3.5948    0.5482   17.9749 C.ar    1  UNL1        0.0369
     11 C           2.2631    2.7305   18.4376 C.ar    1  UNL1        0.0032
     12 C           2.5739    4.1863   18.2531 C.ar    1  UNL1        0.0207
     13 C           1.4817    5.1451   17.8818 C.ar    1  UNL1        0.0989
     14 N           0.0788    4.6481   17.6951 N.ar    1  UNL1       -0.2423
     15 C          -0.2319    3.1923   17.8796 C.ar    1  UNL1        0.0989
     16 C           0.8602    2.2335   18.2509 C.ar    1  UNL1        0.0207
     17 C           6.1527    1.3422   21.5910 C.ar    1  UNL1        0.0032
     18 C           7.2754    0.4087   21.9352 C.ar    1  UNL1        0.0207
     19 C           8.1280    0.6734   23.1406 C.ar    1  UNL1        0.0989
     20 N           7.8580    1.8716   24.0018 N.ar    1  UNL1       -0.2423
     21 C           6.7354    2.8050   23.6576 C.ar    1  UNL1        0.0989
     22 C           5.8828    2.5403   22.4522 C.ar    1  UNL1        0.0207
     23 C           5.1039   -3.6044   21.2432 C.3     1  UNL1        0.0005
     24 C           4.4038   -3.1216   22.4789 C.3     1  UNL1        0.0047
     25 C           4.2979   -1.6510   22.7548 C.3     1  UNL1        0.0261
     26 C           1.4033    1.0598   22.6033 C.ar    1  UNL1        0.1342
     27 C           0.6957    0.6490   21.3461 C.ar    1  UNL1        0.0365
     28 C           1.1889   -0.5285   20.5585 C.ar    1  UNL1        0.0028
     29 C           2.3896   -1.2952   21.0280 C.ar    1  UNL1       -0.0044
     30 C           3.0971   -0.8844   22.2852 C.ar    1  UNL1       -0.0232
     31 C           2.6040    0.2931   23.0728 C.ar    1  UNL1        0.0082
     32 C           3.3116    0.7039   24.3301 C.3     1  UNL1        0.0350
     33 C           2.8458    0.1829   25.6573 C.3     1  UNL1        0.0465
     34 C           3.8138   -0.5023   26.5757 C.2     1  UNL1        0.0507
     35 O           5.2098    0.0263   26.7236 O.co2   1  UNL1       -0.5492
     36 O           3.3859   -1.7160   27.3462 O.co2   1  UNL1       -0.5492
     37 O           0.9102    2.2372   23.3910 O.3     1  UNL1       -0.4758
     38 C          -0.3401    2.9509   22.9697 C.3     1  UNL1        0.2058
     39 C          -0.2796    4.0034   21.9026 C.3     1  UNL1        0.0532
     40 C          -1.5201    4.3769   21.1464 C.3     1  UNL1        0.0455
     41 O          -3.5094    4.6087   22.8015 O.co2   1  UNL1       -0.5492
     42 C          -2.8626    3.9208   21.6358 C.2     1  UNL1        0.0505
     43 O          -3.5585    2.7770   20.9596 O.co2   1  UNL1       -0.5492
@<TRIPOS>UNITY_ATOM_ATTR
35 1
charge -1
41 1
charge -1
@<TRIPOS>BOND
     1    41    42   ar
     2    42    43   ar
     3    42    40    1
     4    40    39    1
     5    39    38    1
     6    38    37    1
     7    37    26    1
     8    26    27   ar
     9    27    28   ar
    10    28    29   ar
    11    29    30   ar
    12    30    25    1
    13    25    24    1
    14    24    23    1
    15    23     1    1
    16     1     2    1
    17     2     3    1
    18     3     4    1
    19     4     5    1
    20     5     6   ar
    21     6     7   ar
    22     7    17    1
    23    17    18   ar
    24    18    19   ar
    25    19    20   ar
    26    20    21   ar
    27    21    22   ar
    28     7     8   ar
    29     8     9   ar
    30     9    11    1
    31    11    12   ar
    32    12    13   ar
    33    13    14   ar
    34    14    15   ar
    35    15    16   ar
    36     9    10   ar
    37    30    31   ar
    38    31    32    1
    39    32    33    1
    40    33    34    1
    41    34    35   ar
    42    34    36   ar
    43    31    26   ar
    44    10     5   ar
    45    22    17   ar
    46    16    11   ar
@<TRIPOS>MOLECULE
*****
 43 46 0 0 0
SMALL
GASTEIGER

@<TRIPOS>ATOM
      1 C           0.7952   -0.1829   20.1361 C.3     1  UNL1        0.0038
      2 C           0.3355    0.7212   21.2412 C.3     1  UNL1        0.0473
      3 C          -0.0436    2.1409   20.9401 C.3     1  UNL1        0.2054
      4 O           0.1341    3.2024   21.9849 O.3     1  UNL1       -0.4755
      5 C          -0.7637    3.2300   23.1862 C.ar    1  UNL1        0.1386
      6 C          -0.2230    2.8591   24.5353 C.ar    1  UNL1        0.0369
      7 C          -1.1210    2.8867   25.7366 C.ar    1  UNL1        0.0031
      8 C          -2.5595    3.2852   25.5887 C.ar    1  UNL1        0.0002
      9 C          -3.1001    3.6560   24.2396 C.ar    1  UNL1        0.0031
     10 C          -2.2023    3.6284   23.0384 C.ar    1  UNL1        0.0369
     11 C          -4.5387    4.0545   24.0918 C.ar    1  UNL1        0.0032
     12 C          -5.2236    4.8127   25.1900 C.ar    1  UNL1        0.0207
     13 C          -6.6621    5.2111   25.0422 C.ar    1  UNL1        0.0989
     14 N          -7.4157    4.8513   23.7962 N.ar    1  UNL1       -0.2423
     15 C          -6.7309    4.0932   22.6980 C.ar    1  UNL1        0.0989
     16 C          -5.2924    3.6948   22.8458 C.ar    1  UNL1        0.0207
     17 C          -0.5803    2.5159   27.0857 C.ar    1  UNL1        0.0032
     18 C           0.2295    3.5074   27.8676 C.ar    1  UNL1        0.0207
     19 C           0.7702    3.1365   29.2167 C.ar    1  UNL1        0.0989
     20 N           0.5011    1.7741   29.7839 N.ar    1  UNL1       -0.2423
     21 C          -0.3086    0.7827   29.0020 C.ar    1  UNL1        0.0989
     22 C          -0.8493    1.1536   27.6529 C.ar    1  UNL1        0.0207
     23 C           1.1749    0.3937   18.8044 C.3     1  UNL1        0.0005
     24 C           2.6208    0.5103   18.4223 C.3     1  UNL1        0.0047
     25 C           3.6887    0.1140   19.3982 C.3     1  UNL1        0.0261
     26 C           4.2783   -3.1873   21.5204 C.ar    1  UNL1        0.1342
     27 C           4.2919   -4.2230   20.4355 C.ar    1  UNL1        0.0365
     28 C           4.1044   -3.8131   19.0048 C.ar    1  UNL1        0.0028
     29 C           3.9034   -2.3675   18.6590 C.ar    1  UNL1       -0.0044
     30 C           3.8898   -1.3317   19.7439 C.ar    1  UNL1       -0.0232
     31 C           4.0772   -1.7416   21.1746 C.ar    1  UNL1        0.0082
     32 C           4.0636   -0.7058   22.2595 C.3     1  UNL1        0.0350
     33 C           2.9798   -0.7200   23.2964 C.3     1  UNL1        0.0465
     34 C           3.3073   -0.4142   24.7279 C.2     1  UNL1        0.0507
     35 O           3.1512    0.9830   25.2510 O.co2   1  UNL1       -0.5492
     36 O           3.7909   -1.5055   25.6363 O.co2   1  UNL1       -0.5492
     37 O           4.4657   -3.5972   22.9510 O.3     1  UNL1       -0.4758
     38 C           5.8461   -3.8303   23.4897 C.3     1  UNL1        0.2058
     39 C           6.9220   -2.8101   23.2627 C.3     1  UNL1        0.0532
     40 C           8.0839   -3.1314   22.3700 C.3     1  UNL1        0.0455
     41 O           7.9645   -5.3398   21.0066 O.co2   1  UNL1       -0.5492
     42 C           7.8563   -3.8450   21.0704 C.2     1  UNL1        0.0505
     43 O           7.5205   -3.0639   19.8346 O.co2   1  UNL1       -0.5492
@<TRIPOS>UNITY_ATOM_ATTR
35 1
charge -1
41 1
charge -1
@<TRIPOS>BOND
     1    41    42   ar
     2    42    43   ar
     3    42    40    1
     4    40    39    1
     5    39    38    1
     6    38    37    1
     7    37    26    1
     8    26    27   ar
     9    27    28   ar
    10    28    29   ar
    11    29    30   ar
    12    30    25    1
    13    25    24    1
    14    24    23    1
    15    23     1    1
    16     1     2    1
    17     2     3    1
    18     3     4    1
    19     4     5    1
    20     5     6   ar
    21     6     7   ar
    22     7    17    1
    23    17    18   ar
    24    18    19   ar
    25    19    20   ar
    26    20    21   ar
    27    21    22   ar
    28     7     8   ar
    29     8     9   ar
    30     9    11    1
    31    11    12   ar
    32    12    13   ar
    33    13    14   ar
    34    14    15   ar
    35    15    16   ar
    36     9    10   ar
    37    30    31   ar
    38    31    32    1
    39    32    33    1
    40    33    34    1
    41    34    35   ar
    42    34    36   ar
    43    31    26   ar
    44    10     5   ar
    45    22    17   ar
    46    16    11   ar
@<TRIPOS>MOLECULE
*****
 43 46 0 0 0
SMALL
GASTEIGER

@<TRIPOS>ATOM
      1 C           6.2837   -0.7144   17.4750 C.3     1  UNL1        0.0038
      2 C           6.2394   -1.7772   18.5326 C.3     1  UNL1        0.0473
      3 C           5.4122   -3.0107   18.3222 C.3     1  UNL1        0.2054
      4 O           3.9579   -3.0101   18.6897 O.3     1  UNL1       -0.4755
      5 C           3.4476   -2.0577   19.7301 C.ar    1  UNL1        0.1386
      6 C           3.9052   -2.1855   21.1528 C.ar    1  UNL1        0.0369
      7 C           3.3949   -1.2330   22.1933 C.ar    1  UNL1        0.0031
      8 C           2.4270   -0.1527   21.8109 C.ar    1  UNL1        0.0002
      9 C           1.9694   -0.0249   20.3881 C.ar    1  UNL1        0.0031
     10 C           2.4797   -0.9774   19.3477 C.ar    1  UNL1        0.0369
     11 C           1.0015    1.0554   20.0057 C.ar    1  UNL1        0.0032
     12 C           0.0197    1.5740   21.0142 C.ar    1  UNL1        0.0207
     13 C          -0.9482    2.6543   20.6318 C.ar    1  UNL1        0.0989
     14 N          -0.9342    3.2159   19.2409 N.ar    1  UNL1       -0.2423
     15 C           0.0477    2.6973   18.2325 C.ar    1  UNL1        0.0989
     16 C           1.0155    1.6170   18.6149 C.ar    1  UNL1        0.0207
     17 C           3.8525   -1.3608   23.6160 C.ar    1  UNL1        0.0032
     18 C           3.1609   -0.5864   24.6987 C.ar    1  UNL1        0.0207
     19 C           3.6185   -0.7142   26.1215 C.ar    1  UNL1        0.0989
     20 N           4.7677   -1.6164   26.4616 N.ar    1  UNL1       -0.2423
     21 C           5.4592   -2.3907   25.3789 C.ar    1  UNL1        0.0989
     22 C           5.0016   -2.2629   23.9561 C.ar    1  UNL1        0.0207
     23 C           5.1862    0.3045   17.3894 C.3     1  UNL1        0.0005
     24 C           5.4106    1.6940   17.9082 C.3     1  UNL1        0.0047
     25 C           4.4926    2.2634   18.9487 C.3     1  UNL1        0.0261
     26 C           4.4385    2.8264   22.8769 C.ar    1  UNL1        0.1342
     27 C           5.5357    1.9005   23.3111 C.ar    1  UNL1        0.0365
     28 C           6.2853    1.0955   22.2912 C.ar    1  UNL1        0.0028
     29 C           5.9376    1.2165   20.8371 C.ar    1  UNL1       -0.0044
     30 C           4.8403    2.1424   20.4029 C.ar    1  UNL1       -0.0232
     31 C           4.0908    2.9474   21.4228 C.ar    1  UNL1        0.0082
     32 C           2.9935    3.8734   20.9885 C.3     1  UNL1        0.0350
     33 C           3.3289    5.2285   20.4398 C.3     1  UNL1        0.0465
     34 C           4.6096    5.9018   20.8352 C.2     1  UNL1        0.0507
     35 O           4.7993    6.3854   22.2425 O.co2   1  UNL1       -0.5492
     36 O           5.7007    6.0915   19.8235 O.co2   1  UNL1       -0.5492
     37 O           3.6889    3.6314   23.8967 O.3     1  UNL1       -0.4758
     38 C           2.6232    2.9822   24.7290 C.3     1  UNL1        0.2058
     39 C           1.2400    2.8097   24.1749 C.3     1  UNL1        0.0532
     40 C           0.3388    1.7445   24.7257 C.3     1  UNL1        0.0455
     41 O           0.8001    1.1323   27.2082 O.co2   1  UNL1       -0.5492
     42 C          -0.0676    1.7787   26.1692 C.2     1  UNL1        0.0505
     43 O          -1.3417    2.4591   26.5738 O.co2   1  UNL1       -0.5492
@<TRIPOS>UNITY_ATOM_ATTR
35 1
charge -1
41 1
charge -1
@<TRIPOS>BOND
     1    41    42   ar
     2    42    43   ar
     3    42    40    1
     4    40    39    1
     5    39    38    1
     6    38    37    1
     7    37    26    1
     8    26    27   ar
     9    27    28   ar
    10    28    29   ar
    11    29    30   ar
    12    30    25    1
    13    25    24    1
    14    24    23    1
    15    23     1    1
    16     1     2    1
    17     2     3    1
    18     3     4    1
    19     4     5    1
    20     5     6   ar
    21     6     7   ar
    22     7    17    1
    23    17    18   ar
    24    18    19   ar
    25    19    20   ar
    26    20    21   ar
    27    21    22   ar
    28     7     8   ar
    29     8     9   ar
    30     9    11    1
    31    11    12   ar
    32    12    13   ar
    33    13    14   ar
    34    14    15   ar
    35    15    16   ar
    36     9    10   ar
    37    30    31   ar
    38    31    32    1
    39    32    33    1
    40    33    34    1
    41    34    35   ar
    42    34    36   ar
    43    31    26   ar
    44    10     5   ar
    45    22    17   ar
    46    16    11   ar
@<TRIPOS>MOLECULE
*****
 43 46 0 0 0
SMALL
GASTEIGER

@<TRIPOS>ATOM
      1 C           0.9982    1.2187   18.6372 C.3     1  UNL1        0.0038
      2 C           0.8682    2.6970   18.4186 C.3     1  UNL1        0.0473
      3 C           2.0959    3.5380   18.2299 C.3     1  UNL1        0.2054
      4 O           2.7983    4.1178   19.4217 O.3     1  UNL1       -0.4755
      5 C           3.2995    3.2147   20.5094 C.ar    1  UNL1        0.1386
      6 C           2.5108    3.0562   21.7755 C.ar    1  UNL1        0.0369
      7 C           3.0121    2.1531   22.8633 C.ar    1  UNL1        0.0031
      8 C           4.3020    1.4086   22.6850 C.ar    1  UNL1        0.0002
      9 C           5.0907    1.5671   21.4190 C.ar    1  UNL1        0.0031
     10 C           4.5895    2.4702   20.3312 C.ar    1  UNL1        0.0369
     11 C           6.3806    0.8225   21.2407 C.ar    1  UNL1        0.0032
     12 C           6.7980    0.3614   19.8758 C.ar    1  UNL1        0.0207
     13 C           8.0879   -0.3832   19.6976 C.ar    1  UNL1        0.0989
     14 N           8.9604   -0.6665   20.8844 N.ar    1  UNL1       -0.2423
     15 C           8.5430   -0.2054   22.2493 C.ar    1  UNL1        0.0989
     16 C           7.2531    0.5392   22.4275 C.ar    1  UNL1        0.0207
     17 C           2.2234    1.9946   24.1293 C.ar    1  UNL1        0.0032
     18 C           2.8233    2.4015   25.4426 C.ar    1  UNL1        0.0207
     19 C           2.0346    2.2430   26.7086 C.ar    1  UNL1        0.0989
     20 N           0.6460    1.6776   26.6613 N.ar    1  UNL1       -0.2423
     21 C           0.0462    1.2707   25.3481 C.ar    1  UNL1        0.0989
     22 C           0.8349    1.4292   24.0821 C.ar    1  UNL1        0.0207
     23 C           0.5794    0.6144   19.9446 C.3     1  UNL1        0.0005
     24 C           1.0771   -0.7455   20.3359 C.3     1  UNL1        0.0047
     25 C           2.4471   -0.9014   20.9266 C.3     1  UNL1        0.0261
     26 C           5.4670   -3.3392   20.0977 C.ar    1  UNL1        0.1342
     27 C           5.6525   -3.0729   18.6333 C.ar    1  UNL1        0.0365
     28 C           4.7696   -2.0827   17.9333 C.ar    1  UNL1        0.0028
     29 C           3.7011   -1.3589   18.6977 C.ar    1  UNL1       -0.0044
     30 C           3.5156   -1.6253   20.1621 C.ar    1  UNL1       -0.0232
     31 C           4.3985   -2.6154   20.8621 C.ar    1  UNL1        0.0082
     32 C           4.2129   -2.8818   22.3266 C.3     1  UNL1        0.0350
     33 C           5.1298   -2.2428   23.3272 C.3     1  UNL1        0.0465
     34 C           4.5985   -1.8086   24.6610 C.2     1  UNL1        0.0507
     35 O           3.2722   -1.1135   24.7500 O.co2   1  UNL1       -0.5492
     36 O           5.3935   -2.0695   25.9060 O.co2   1  UNL1       -0.5492
     37 O           6.3499   -4.3294   20.7977 O.3     1  UNL1       -0.4758
     38 C           7.7759   -3.9782   21.1029 C.3     1  UNL1        0.2058
     39 C           8.4026   -4.4354   22.3868 C.3     1  UNL1        0.0532
     40 C           7.5610   -5.0943   23.4392 C.3     1  UNL1        0.0455
     41 O           6.7338   -5.2321   25.8983 O.co2   1  UNL1       -0.5492
     42 C           7.5663   -4.5660   24.8431 C.2     1  UNL1        0.0505
     43 O           8.4042   -3.3717   25.1919 O.co2   1  UNL1       -0.5492
@<TRIPOS>UNITY_ATOM_ATTR
35 1
charge -1
41 1
charge -1
@<TRIPOS>BOND
     1    41    42   ar
     2    42    43   ar
     3    42    40    1
     4    40    39    1
     5    39    38    1
     6    38    37    1
     7    37    26    1
     8    26    27   ar
     9    27    28   ar
    10    28    29   ar
    11    29    30   ar
    12    30    25    1
    13    25    24    1
    14    24    23    1
    15    23     1    1
    16     1     2    1
    17     2     3    1
    18     3     4    1
    19     4     5    1
    20     5     6   ar
    21     6     7   ar
    22     7    17    1
    23    17    18   ar
    24    18    19   ar
    25    19    20   ar
    26    20    21   ar
    27    21    22   ar
    28     7     8   ar
    29     8     9   ar
    30     9    11    1
    31    11    12   ar
    32    12    13   ar
    33    13    14   ar
    34    14    15   ar
    35    15    16   ar
    36     9    10   ar
    37    30    31   ar
    38    31    32    1
    39    32    33    1
    40    33    34    1
    41    34    35   ar
    42    34    36   ar
    43    31    26   ar
    44    10     5   ar
    45    22    17   ar
    46    16    11   ar
@<TRIPOS>MOLECULE
*****
 43 46 0 0 0
SMALL
GASTEIGER

@<TRIPOS>ATOM
      1 C           2.8830    3.2486   18.7704 C.3     1  UNL1        0.0038
      2 C           1.4151    3.4647   18.5502 C.3     1  UNL1        0.0473
      3 C           0.5258    2.3006   18.2274 C.3     1  UNL1        0.2054
      4 O          -0.1217    1.5220   19.3339 O.3     1  UNL1       -0.4755
      5 C           0.7234    0.8853   20.3970 C.ar    1  UNL1        0.1386
      6 C           1.5996   -0.2842   20.0583 C.ar    1  UNL1        0.0369
      7 C           2.4448   -0.9209   21.1215 C.ar    1  UNL1        0.0031
      8 C           2.4138   -0.3882   22.5234 C.ar    1  UNL1        0.0002
      9 C           1.5375    0.7812   22.8621 C.ar    1  UNL1        0.0031
     10 C           0.6924    1.4179   21.7990 C.ar    1  UNL1        0.0369
     11 C           1.5065    1.3139   24.2640 C.ar    1  UNL1        0.0032
     12 C           0.3681    0.9619   25.1751 C.ar    1  UNL1        0.0207
     13 C           0.3371    1.4946   26.5769 C.ar    1  UNL1        0.0989
     14 N           1.4445    2.3792   27.0678 N.ar    1  UNL1       -0.2423
     15 C           2.5830    2.7312   26.1568 C.ar    1  UNL1        0.0989
     16 C           2.6140    2.1985   24.7549 C.ar    1  UNL1        0.0207
     17 C           3.3210   -2.0903   20.7828 C.ar    1  UNL1        0.0032
     18 C           4.2021   -2.6968   21.8345 C.ar    1  UNL1        0.0207
     19 C           5.0783   -3.8662   21.4957 C.ar    1  UNL1        0.0989
     20 N           5.0735   -4.4291   20.1053 N.ar    1  UNL1       -0.2423
     21 C           4.1924   -3.8226   19.0537 C.ar    1  UNL1        0.0989
     22 C           3.3162   -2.6532   19.3925 C.ar    1  UNL1        0.0207
     23 C           3.5054    3.6114   20.0861 C.3     1  UNL1        0.0005
     24 C           4.1575    2.5524   20.9247 C.3     1  UNL1        0.0047
     25 C           5.0857    1.5594   20.2904 C.3     1  UNL1        0.0261
     26 C           7.7668   -1.1529   21.3883 C.ar    1  UNL1        0.1342
     27 C           7.5338   -1.1985   22.8694 C.ar    1  UNL1        0.0365
     28 C           6.4848   -0.3248   23.4908 C.ar    1  UNL1        0.0028
     29 C           5.6687    0.5945   22.6312 C.ar    1  UNL1       -0.0044
     30 C           5.9018    0.6401   21.1501 C.ar    1  UNL1       -0.0232
     31 C           6.9508   -0.2337   20.5287 C.ar    1  UNL1        0.0082
     32 C           7.1838   -0.1880   19.0475 C.3     1  UNL1        0.0350
     33 C           6.2865   -0.9564   18.1232 C.3     1  UNL1        0.0465
     34 C           5.4548   -0.2290   17.1087 C.2     1  UNL1        0.0507
     35 O           5.7934    1.1838   16.7352 O.co2   1  UNL1       -0.5492
     36 O           4.2846   -0.9144   16.4677 O.co2   1  UNL1       -0.5492
     37 O           8.8158   -2.0267   20.7669 O.3     1  UNL1       -0.4758
     38 C           8.4486   -3.3844   20.2456 C.3     1  UNL1        0.2058
     39 C           8.6780   -4.6004   21.0933 C.3     1  UNL1        0.0532
     40 C           8.8215   -4.4621   22.5800 C.3     1  UNL1        0.0455
     41 O           7.1488   -4.6903   24.5549 O.co2   1  UNL1       -0.5492
     42 C           8.0024   -5.3226   23.4958 C.2     1  UNL1        0.0505
     43 O           8.0368   -6.8153   23.3525 O.co2   1  UNL1       -0.5492
@<TRIPOS>UNITY_ATOM_ATTR
35 1
charge -1
41 1
charge -1
@<TRIPOS>BOND
     1    41    42   ar
     2    42    43   ar
     3    42    40    1
     4    40    39    1
     5    39    38    1
     6    38    37    1
     7    37    26    1
     8    26    27   ar
     9    27    28   ar
    10    28    29   ar
    11    29    30   ar
    12    30    25    1
    13    25    24    1
    14    24    23    1
    15    23     1    1
    16     1     2    1
    17     2     3    1
    18     3     4    1
    19     4     5    1
    20     5     6   ar
    21     6     7   ar
    22     7    17    1
    23    17    18   ar
    24    18    19   ar
    25    19    20   ar
    26    20    21   ar
    27    21    22   ar
    28     7     8   ar
    29     8     9   ar
    30     9    11    1
    31    11    12   ar
    32    12    13   ar
    33    13    14   ar
    34    14    15   ar
    35    15    16   ar
    36     9    10   ar
    37    30    31   ar
    38    31    32    1
    39    32    33    1
    40    33    34    1
    41    34    35   ar
    42    34    36   ar
    43    31    26   ar
    44    10     5   ar
    45    22    17   ar
    46    16    11   ar
@<TRIPOS>MOLECULE
*****
 43 46 0 0 0
SMALL
GASTEIGER

@<TRIPOS>ATOM
      1 C           1.4951    2.2388   18.6250 C.3     1  UNL1        0.0038
      2 C           0.5365    2.8235   19.6195 C.3     1  UNL1        0.0473
      3 C           0.6994    2.5285   21.0812 C.3     1  UNL1        0.2054
      4 O           0.4671    3.6093   22.0949 O.3     1  UNL1       -0.4755
      5 C          -0.2715    3.3015   23.3636 C.ar    1  UNL1        0.1386
      6 C           0.3700    2.4472   24.4166 C.ar    1  UNL1        0.0369
      7 C          -0.3687    2.1394   25.6853 C.ar    1  UNL1        0.0031
      8 C          -1.7489    2.6858   25.9010 C.ar    1  UNL1        0.0002
      9 C          -2.3904    3.5400   24.8480 C.ar    1  UNL1        0.0031
     10 C          -1.6518    3.8478   23.5793 C.ar    1  UNL1        0.0369
     11 C          -3.7707    4.0864   25.0638 C.ar    1  UNL1        0.0032
     12 C          -4.0885    4.8478   26.3164 C.ar    1  UNL1        0.0207
     13 C          -5.4687    5.3942   26.5320 C.ar    1  UNL1        0.0989
     14 N          -6.5310    5.1790   25.4951 N.ar    1  UNL1       -0.2423
     15 C          -6.2132    4.4175   24.2425 C.ar    1  UNL1        0.0989
     16 C          -4.8330    3.8712   24.0268 C.ar    1  UNL1        0.0207
     17 C           0.2728    1.2852   26.7383 C.ar    1  UNL1        0.0032
     18 C          -0.5617    0.6950   27.8363 C.ar    1  UNL1        0.0207
     19 C           0.0799   -0.1592   28.8892 C.ar    1  UNL1        0.0989
     20 N           1.5558   -0.4233   28.8442 N.ar    1  UNL1       -0.2423
     21 C           2.3901    0.1669   27.7463 C.ar    1  UNL1        0.0989
     22 C           1.7486    1.0211   26.6933 C.ar    1  UNL1        0.0207
     23 C           1.5775    0.7516   18.4476 C.3     1  UNL1        0.0005
     24 C           2.6844   -0.0215   19.1012 C.3     1  UNL1        0.0047
     25 C           2.3653   -1.2196   19.9455 C.3     1  UNL1        0.0261
     26 C           4.7151   -2.5303   22.8628 C.ar    1  UNL1        0.1342
     27 C           4.2505   -1.6774   24.0058 C.ar    1  UNL1        0.0365
     28 C           3.1574   -0.6719   23.7955 C.ar    1  UNL1        0.0028
     29 C           2.5291   -0.5193   22.4421 C.ar    1  UNL1       -0.0044
     30 C           2.9937   -1.3722   21.2990 C.ar    1  UNL1       -0.0232
     31 C           4.0867   -2.3777   21.5094 C.ar    1  UNL1        0.0082
     32 C           4.5514   -3.2306   20.3662 C.3     1  UNL1        0.0350
     33 C           5.8462   -2.9190   19.6759 C.3     1  UNL1        0.0465
     34 C           5.8471   -2.5083   18.2333 C.2     1  UNL1        0.0507
     35 O           4.5485   -2.3034   17.5109 O.co2   1  UNL1       -0.5492
     36 O           7.1466   -2.3024   17.5129 O.co2   1  UNL1       -0.5492
     37 O           5.8082   -3.5358   23.0731 O.3     1  UNL1       -0.4758
     38 C           6.2264   -3.9089   24.4644 C.3     1  UNL1        0.2058
     39 C           7.5430   -4.5898   24.6947 C.3     1  UNL1        0.0532
     40 C           7.6131   -5.8145   25.5580 C.3     1  UNL1        0.0455
     41 O           8.1796   -8.3346   25.8378 O.co2   1  UNL1       -0.5492
     42 C           7.9909   -7.1356   24.9564 C.2     1  UNL1        0.0505
     43 O           8.1799   -7.2577   23.4734 O.co2   1  UNL1       -0.5492
@<TRIPOS>UNITY_ATOM_ATTR
35 1
charge -1
41 1
charge -1
@<TRIPOS>BOND
     1    41    42   ar
     2    42    43   ar
     3    42    40    1
     4    40    39    1
     5    39    38    1
     6    38    37    1
     7    37    26    1
     8    26    27   ar
     9    27    28   ar
    10    28    29   ar
    11    29    30   ar
    12    30    25    1
    13    25    24    1
    14    24    23    1
    15    23     1    1
    16     1     2    1
    17     2     3    1
    18     3     4    1
    19     4     5    1
    20     5     6   ar
    21     6     7   ar
    22     7    17    1
    23    17    18   ar
    24    18    19   ar
    25    19    20   ar
    26    20    21   ar
    27    21    22   ar
    28     7     8   ar
    29     8     9   ar
    30     9    11    1
    31    11    12   ar
    32    12    13   ar
    33    13    14   ar
    34    14    15   ar
    35    15    16   ar
    36     9    10   ar
    37    30    31   ar
    38    31    32    1
    39    32    33    1
    40    33    34    1
    41    34    35   ar
    42    34    36   ar
    43    31    26   ar
    44    10     5   ar
    45    22    17   ar
    46    16    11   ar
