@<TRIPOS>MOLECULE
*****
 33 37 0 0 0
SMALL
GASTEIGER

@<TRIPOS>ATOM
      1 N          -3.3490  -18.3865   21.8573 N.ar    1  UNL1       -0.2954
      2 C          -4.6263  -18.6355   21.1113 C.ar    1  UNL1        0.2014
      3 N          -4.3368  -18.5171   19.6443 N.ar    1  UNL1       -0.2136
      4 C          -2.8807  -18.1949   19.4836 C.ar    1  UNL1        0.0999
      5 C          -2.0318  -17.9647   18.2686 C.ar    1  UNL1        0.0207
      6 C          -0.5724  -17.6536   18.4214 C.ar    1  UNL1        0.0016
      7 C           0.0381  -17.5729   19.7891 C.ar    1  UNL1        0.0016
      8 C          -0.8108  -17.8031   21.0041 C.ar    1  UNL1        0.0188
      9 C          -2.2702  -18.1142   20.8514 C.ar    1  UNL1        0.0801
     10 N          -5.9590  -18.9480   21.7246 N.pl3   1  UNL1       -0.2794
     11 C          -6.9288  -17.8413   22.0156 C.3     1  UNL1        0.0949
     12 C          -8.2615  -18.1538   22.6289 C.3     1  UNL1        0.0375
     13 C          -8.6245  -19.5731   22.9513 C.3     1  UNL1        0.0610
     14 C          -7.6547  -20.6798   22.6603 C.3     1  UNL1        0.0375
     15 C          -6.3220  -20.3673   22.0470 C.3     1  UNL1        0.0949
     16 N          -9.9572  -19.8856   23.5646 N.3     1  UNL1       -0.2727
     17 C         -10.0569  -20.1807   25.0318 C.3     1  UNL1        0.0896
     18 C         -11.1903  -19.9030   22.7106 C.3     1  UNL1        0.0722
     19 C         -11.5452  -18.7046   21.8812 C.3     1  UNL1        0.0210
     20 C         -11.1080  -18.6280   20.4484 C.3     1  UNL1        0.0335
     21 C         -11.4629  -17.4296   19.6191 C.3     1  UNL1        0.1422
     22 O         -12.2549  -16.3078   20.2225 O.3     1  UNL1       -0.3538
     23 C         -12.6922  -16.3844   21.6553 C.3     1  UNL1        0.1422
     24 C         -12.3373  -17.5828   22.4847 C.3     1  UNL1        0.0335
     25 C          -3.1802  -18.4062   23.3477 C.3     1  UNL1        0.1354
     26 C          -5.4943  -15.5227   25.9129 C.ar    1  UNL1        0.1387
     27 C          -4.7818  -16.6824   26.5435 C.ar    1  UNL1        0.0366
     28 C          -4.0105  -17.6435   25.6884 C.ar    1  UNL1        0.0007
     29 C          -3.9516  -17.4451   24.2027 C.ar    1  UNL1        0.0007
     30 C          -4.6641  -16.2854   23.5722 C.ar    1  UNL1        0.0007
     31 C          -5.4354  -15.3243   24.4273 C.ar    1  UNL1        0.0366
     32 C          -7.5251  -15.0081   27.4495 C.3     1  UNL1        0.2525
     33 O          -6.2656  -14.5616   26.7680 O.3     1  UNL1       -0.4714
@<TRIPOS>BOND
     1    32    33    1
     2    33    26    1
     3    26    27   ar
     4    27    28   ar
     5    28    29   ar
     6    29    25    1
     7    25     1    1
     8     1     2   ar
     9     2    10    1
    10    10    11    1
    11    11    12    1
    12    12    13    1
    13    13    16    1
    14    16    17    1
    15    16    18    1
    16    18    19    1
    17    19    20    1
    18    20    21    1
    19    21    22    1
    20    22    23    1
    21    23    24    1
    22    13    14    1
    23    14    15    1
    24     2     3   ar
    25     3     4   ar
    26     4     5   ar
    27     5     6   ar
    28     6     7   ar
    29     7     8   ar
    30     8     9   ar
    31    29    30   ar
    32    30    31   ar
    33    31    26   ar
    34     9     1   ar
    35    15    10    1
    36     9     4   ar
    37    24    19    1
@<TRIPOS>MOLECULE
*****
 33 37 0 0 0
SMALL
GASTEIGER

@<TRIPOS>ATOM
      1 N         -14.5134   -0.8991   18.5742 N.ar    1  UNL1       -0.2954
      2 C         -15.2111   -2.1177   19.1018 C.ar    1  UNL1        0.2014
      3 N         -16.3033   -1.6635   20.0241 N.ar    1  UNL1       -0.2136
      4 C         -16.2807   -0.1642   20.0665 C.ar    1  UNL1        0.0999
      5 C         -17.1245    0.8318   20.8053 C.ar    1  UNL1        0.0207
      6 C         -16.8621    2.3002   20.6479 C.ar    1  UNL1        0.0016
      7 C         -15.7558    2.7726   19.7518 C.ar    1  UNL1        0.0016
      8 C         -14.9120    1.7766   19.0130 C.ar    1  UNL1        0.0188
      9 C         -15.1745    0.3082   19.1704 C.ar    1  UNL1        0.0801
     10 N         -14.8754   -3.5406   18.7661 N.pl3   1  UNL1       -0.2794
     11 C         -14.0436   -4.3576   19.7097 C.3     1  UNL1        0.0949
     12 C         -13.7079   -5.7805   19.3740 C.3     1  UNL1        0.0375
     13 C         -14.2041   -6.3864   18.0946 C.3     1  UNL1        0.0610
     14 C         -15.0359   -5.5693   17.1510 C.3     1  UNL1        0.0375
     15 C         -15.3716   -4.1464   17.4867 C.3     1  UNL1        0.0949
     16 N         -13.8685   -7.8093   17.7589 N.3     1  UNL1       -0.2727
     17 C         -12.7759   -8.1103   16.7763 C.3     1  UNL1        0.0896
     18 C         -14.6254   -8.9311   18.4058 C.3     1  UNL1        0.0722
     19 C         -16.1046   -8.8104   18.6233 C.3     1  UNL1        0.0210
     20 C         -17.0385   -8.8195   17.4495 C.3     1  UNL1        0.0335
     21 C         -18.5177   -8.6989   17.6670 C.3     1  UNL1        0.1422
     22 O         -19.0631   -8.5691   19.0583 O.3     1  UNL1       -0.3538
     23 C         -18.1292   -8.5600   20.2321 C.3     1  UNL1        0.1422
     24 C         -16.6500   -8.6807   20.0147 C.3     1  UNL1        0.0335
     25 C         -13.3575   -0.8895   17.6182 C.3     1  UNL1        0.1354
     26 C         -10.5033   -4.3666   17.5035 C.ar    1  UNL1        0.1387
     27 C         -10.5276   -3.4552   18.6947 C.ar    1  UNL1        0.0366
     28 C         -11.4790   -2.2962   18.7329 C.ar    1  UNL1        0.0007
     29 C         -12.4062   -2.0485   17.5799 C.ar    1  UNL1        0.0007
     30 C         -12.3818   -2.9600   16.3888 C.ar    1  UNL1        0.0007
     31 C         -11.4304   -4.1190   16.3507 C.ar    1  UNL1        0.0366
     32 C          -9.6826   -6.6365   18.4649 C.3     1  UNL1        0.2525
     33 O          -9.5519   -5.5256   17.4653 O.3     1  UNL1       -0.4714
@<TRIPOS>BOND
     1    32    33    1
     2    33    26    1
     3    26    27   ar
     4    27    28   ar
     5    28    29   ar
     6    29    25    1
     7    25     1    1
     8     1     2   ar
     9     2    10    1
    10    10    11    1
    11    11    12    1
    12    12    13    1
    13    13    16    1
    14    16    17    1
    15    16    18    1
    16    18    19    1
    17    19    20    1
    18    20    21    1
    19    21    22    1
    20    22    23    1
    21    23    24    1
    22    13    14    1
    23    14    15    1
    24     2     3   ar
    25     3     4   ar
    26     4     5   ar
    27     5     6   ar
    28     6     7   ar
    29     7     8   ar
    30     8     9   ar
    31    29    30   ar
    32    30    31   ar
    33    31    26   ar
    34     9     1   ar
    35    15    10    1
    36     9     4   ar
    37    24    19    1
@<TRIPOS>MOLECULE
*****
 33 37 0 0 0
SMALL
GASTEIGER

@<TRIPOS>ATOM
      1 N          -2.1243    3.6871   22.3988 N.ar    1  UNL1       -0.2954
      2 C          -2.0153    3.0864   21.0287 C.ar    1  UNL1        0.2014
      3 N          -3.3933    3.0227   20.4396 N.ar    1  UNL1       -0.2136
      4 C          -4.3540    3.5840   21.4456 C.ar    1  UNL1        0.0999
      5 C          -5.8415    3.7742   21.4155 C.ar    1  UNL1        0.0207
      6 C          -6.5448    4.3751   22.5963 C.ar    1  UNL1        0.0016
      7 C          -5.7605    4.7857   23.8072 C.ar    1  UNL1        0.0016
      8 C          -4.2729    4.5955   23.8373 C.ar    1  UNL1        0.0188
      9 C          -3.5697    3.9946   22.6565 C.ar    1  UNL1        0.0801
     10 N          -0.7504    2.6296   20.3643 N.pl3   1  UNL1       -0.2794
     11 C          -0.0386    1.4083   20.8659 C.3     1  UNL1        0.0949
     12 C           1.2263    0.9515   20.2015 C.3     1  UNL1        0.0375
     13 C           1.7793    1.7160   19.0355 C.3     1  UNL1        0.0610
     14 C           1.0675    2.9374   18.5339 C.3     1  UNL1        0.0375
     15 C          -0.1974    3.3941   19.1983 C.3     1  UNL1        0.0949
     16 N           3.0442    1.2593   18.3712 N.3     1  UNL1       -0.2727
     17 C           4.2477    2.1544   18.3537 C.3     1  UNL1        0.0896
     18 C           3.1057   -0.0926   17.7242 C.3     1  UNL1        0.0722
     19 C           3.9012   -1.1934   18.3610 C.3     1  UNL1        0.0210
     20 C           3.3188   -1.9782   19.4989 C.3     1  UNL1        0.0335
     21 C           4.1143   -3.0789   20.1356 C.3     1  UNL1        0.1422
     22 O           5.4924   -3.3948   19.6345 O.3     1  UNL1       -0.3538
     23 C           6.0749   -2.6100   18.4966 C.3     1  UNL1        0.1422
     24 C           5.2793   -1.5093   17.8598 C.3     1  UNL1        0.0335
     25 C          -0.9876    3.9365   23.3451 C.3     1  UNL1        0.1354
     26 C          -0.4378    1.2961   26.9473 C.ar    1  UNL1        0.1387
     27 C          -1.3951    2.4497   27.0021 C.ar    1  UNL1        0.0366
     28 C          -1.5783    3.3298   25.8014 C.ar    1  UNL1        0.0007
     29 C          -0.8043    3.0564   24.5458 C.ar    1  UNL1        0.0007
     30 C           0.1529    1.9028   24.4911 C.ar    1  UNL1        0.0007
     31 C           0.3361    1.0227   25.6919 C.ar    1  UNL1        0.0366
     32 C          -1.4360    0.0499   28.9970 C.3     1  UNL1        0.2525
     33 O          -0.2546    0.4160   28.1481 O.3     1  UNL1       -0.4714
@<TRIPOS>BOND
     1    32    33    1
     2    33    26    1
     3    26    27   ar
     4    27    28   ar
     5    28    29   ar
     6    29    25    1
     7    25     1    1
     8     1     2   ar
     9     2    10    1
    10    10    11    1
    11    11    12    1
    12    12    13    1
    13    13    16    1
    14    16    17    1
    15    16    18    1
    16    18    19    1
    17    19    20    1
    18    20    21    1
    19    21    22    1
    20    22    23    1
    21    23    24    1
    22    13    14    1
    23    14    15    1
    24     2     3   ar
    25     3     4   ar
    26     4     5   ar
    27     5     6   ar
    28     6     7   ar
    29     7     8   ar
    30     8     9   ar
    31    29    30   ar
    32    30    31   ar
    33    31    26   ar
    34     9     1   ar
    35    15    10    1
    36     9     4   ar
    37    24    19    1
@<TRIPOS>MOLECULE
*****
 33 37 0 0 0
SMALL
GASTEIGER

@<TRIPOS>ATOM
      1 N           6.1859   -2.3565   29.7904 N.ar    1  UNL1       -0.2954
      2 C           6.3845   -2.8262   31.2010 C.ar    1  UNL1        0.2014
      3 N           6.8063   -4.2649   31.1555 N.ar    1  UNL1       -0.2136
      4 C           6.8685   -4.6844   29.7167 C.ar    1  UNL1        0.0999
      5 C           7.2247   -5.9880   29.0658 C.ar    1  UNL1        0.0207
      6 C           7.1975   -6.1122   27.5713 C.ar    1  UNL1        0.0016
      7 C           6.8140   -4.9328   26.7276 C.ar    1  UNL1        0.0016
      8 C           6.4578   -3.6292   27.3784 C.ar    1  UNL1        0.0188
      9 C           6.4850   -3.5050   28.8730 C.ar    1  UNL1        0.0801
     10 N           6.1945   -2.0018   32.4397 N.pl3   1  UNL1       -0.2794
     11 C           4.9038   -2.0772   33.2002 C.3     1  UNL1        0.0949
     12 C           4.7138   -1.2529   34.4389 C.3     1  UNL1        0.0375
     13 C           5.8146   -0.3531   34.9171 C.3     1  UNL1        0.0610
     14 C           7.1053   -0.2777   34.1567 C.3     1  UNL1        0.0375
     15 C           7.2952   -1.1021   32.9180 C.3     1  UNL1        0.0949
     16 N           5.6246    0.4712   36.1558 N.3     1  UNL1       -0.2727
     17 C           6.6593    1.4835   36.5490 C.3     1  UNL1        0.0896
     18 C           4.4000    0.2833   37.0013 C.3     1  UNL1        0.0722
     19 C           3.3962    1.3911   37.1242 C.3     1  UNL1        0.0210
     20 C           3.1503    2.3123   35.9662 C.3     1  UNL1        0.0335
     21 C           2.1465    3.4201   36.0890 C.3     1  UNL1        0.1422
     22 O           1.3885    3.6067   37.3698 O.3     1  UNL1       -0.3538
     23 C           1.6343    2.6854   38.5279 C.3     1  UNL1        0.1422
     24 C           2.6381    1.5776   38.4051 C.3     1  UNL1        0.0335
     25 C           5.7625   -0.9801   29.3707 C.3     1  UNL1        0.1354
     26 C           1.4590    0.2716   29.7749 C.ar    1  UNL1        0.1387
     27 C           2.4422    0.6058   30.8574 C.ar    1  UNL1        0.0366
     28 C           3.8766    0.1886   30.7227 C.ar    1  UNL1        0.0007
     29 C           4.3281   -0.5629   29.5054 C.ar    1  UNL1        0.0007
     30 C           3.3449   -0.8971   28.4230 C.ar    1  UNL1        0.0007
     31 C           1.9104   -0.4798   28.5577 C.ar    1  UNL1        0.0366
     32 C          -0.9579    0.3579   28.8255 C.3     1  UNL1        0.2525
     33 O           0.0246    0.6889   29.9097 O.3     1  UNL1       -0.4714
@<TRIPOS>BOND
     1    32    33    1
     2    33    26    1
     3    26    27   ar
     4    27    28   ar
     5    28    29   ar
     6    29    25    1
     7    25     1    1
     8     1     2   ar
     9     2    10    1
    10    10    11    1
    11    11    12    1
    12    12    13    1
    13    13    16    1
    14    16    17    1
    15    16    18    1
    16    18    19    1
    17    19    20    1
    18    20    21    1
    19    21    22    1
    20    22    23    1
    21    23    24    1
    22    13    14    1
    23    14    15    1
    24     2     3   ar
    25     3     4   ar
    26     4     5   ar
    27     5     6   ar
    28     6     7   ar
    29     7     8   ar
    30     8     9   ar
    31    29    30   ar
    32    30    31   ar
    33    31    26   ar
    34     9     1   ar
    35    15    10    1
    36     9     4   ar
    37    24    19    1
@<TRIPOS>MOLECULE
*****
 33 37 0 0 0
SMALL
GASTEIGER

@<TRIPOS>ATOM
      1 N           4.2237    1.1447   34.2453 N.ar    1  UNL1       -0.2954
      2 C           4.8674   -0.1227   34.7243 C.ar    1  UNL1        0.2014
      3 N           4.5818   -0.2622   36.1902 N.ar    1  UNL1       -0.2136
      4 C           3.7616    0.9189   36.6172 C.ar    1  UNL1        0.0999
      5 C           3.1878    1.3150   37.9453 C.ar    1  UNL1        0.0207
      6 C           2.3926    2.5805   38.0713 C.ar    1  UNL1        0.0016
      7 C           2.1712    3.4500   36.8692 C.ar    1  UNL1        0.0016
      8 C           2.7451    3.0540   35.5412 C.ar    1  UNL1        0.0188
      9 C           3.5403    1.7884   35.4152 C.ar    1  UNL1        0.0801
     10 N           5.6579   -1.0821   33.8848 N.pl3   1  UNL1       -0.2794
     11 C           7.1081   -0.8175   33.6079 C.3     1  UNL1        0.0949
     12 C           7.8986   -1.7768   32.7684 C.3     1  UNL1        0.0375
     13 C           7.2388   -3.0008   32.2058 C.3     1  UNL1        0.0610
     14 C           5.7885   -3.2654   32.4827 C.3     1  UNL1        0.0375
     15 C           4.9981   -2.3060   33.3222 C.3     1  UNL1        0.0949
     16 N           8.0292   -3.9602   31.3663 N.3     1  UNL1       -0.2727
     17 C           9.3759   -3.5619   30.8391 C.3     1  UNL1        0.0896
     18 C           7.4731   -5.3177   31.0539 C.3     1  UNL1        0.0722
     19 C           7.4501   -5.8112   29.6376 C.3     1  UNL1        0.0210
     20 C           6.4627   -5.2434   28.6616 C.3     1  UNL1        0.0335
     21 C           6.4397   -5.7368   27.2452 C.3     1  UNL1        0.1422
     22 O           7.4040   -6.7980   26.8049 O.3     1  UNL1       -0.3538
     23 C           8.3914   -7.3659   27.7810 C.3     1  UNL1        0.1422
     24 C           8.4144   -6.8724   29.1974 C.3     1  UNL1        0.0335
     25 C           4.2574    1.6752   32.8427 C.3     1  UNL1        0.1354
     26 C           1.2982    0.1806   29.7998 C.ar    1  UNL1        0.1387
     27 C           1.0450    1.4711   30.5214 C.ar    1  UNL1        0.0366
     28 C           2.0314    1.9692   31.5356 C.ar    1  UNL1        0.0007
     29 C           3.2711    1.1770   31.8284 C.ar    1  UNL1        0.0007
     30 C           3.5243   -0.1134   31.1068 C.ar    1  UNL1        0.0007
     31 C           2.5378   -0.6116   30.0925 C.ar    1  UNL1        0.0366
     32 C          -1.1567   -0.0943   28.9948 C.3     1  UNL1        0.2525
     33 O           0.3118   -0.3176   28.7855 O.3     1  UNL1       -0.4714
@<TRIPOS>BOND
     1    32    33    1
     2    33    26    1
     3    26    27   ar
     4    27    28   ar
     5    28    29   ar
     6    29    25    1
     7    25     1    1
     8     1     2   ar
     9     2    10    1
    10    10    11    1
    11    11    12    1
    12    12    13    1
    13    13    16    1
    14    16    17    1
    15    16    18    1
    16    18    19    1
    17    19    20    1
    18    20    21    1
    19    21    22    1
    20    22    23    1
    21    23    24    1
    22    13    14    1
    23    14    15    1
    24     2     3   ar
    25     3     4   ar
    26     4     5   ar
    27     5     6   ar
    28     6     7   ar
    29     7     8   ar
    30     8     9   ar
    31    29    30   ar
    32    30    31   ar
    33    31    26   ar
    34     9     1   ar
    35    15    10    1
    36     9     4   ar
    37    24    19    1
@<TRIPOS>MOLECULE
*****
 33 37 0 0 0
SMALL
GASTEIGER

@<TRIPOS>ATOM
      1 N           4.2051    1.3911   34.5302 N.ar    1  UNL1       -0.2954
      2 C           4.7711    0.0628   34.9366 C.ar    1  UNL1        0.2014
      3 N           4.4524   -0.1529   36.3864 N.ar    1  UNL1       -0.2136
      4 C           3.6894    1.0421   36.8761 C.ar    1  UNL1        0.0999
      5 C           3.1141    1.3847   38.2183 C.ar    1  UNL1        0.0207
      6 C           2.3859    2.6814   38.4133 C.ar    1  UNL1        0.0016
      7 C           2.2330    3.6357   37.2661 C.ar    1  UNL1        0.0016
      8 C           2.8083    3.2931   35.9239 C.ar    1  UNL1        0.0188
      9 C           3.5365    1.9964   35.7289 C.ar    1  UNL1        0.0801
     10 N           5.5237   -0.8837   34.0490 N.pl3   1  UNL1       -0.2794
     11 C           4.8224   -2.0647   33.4463 C.3     1  UNL1        0.0949
     12 C           5.5750   -3.0112   32.5587 C.3     1  UNL1        0.0375
     13 C           7.0289   -2.7767   32.2739 C.3     1  UNL1        0.0610
     14 C           7.7302   -1.5956   32.8766 C.3     1  UNL1        0.0375
     15 C           6.9776   -0.6492   33.7642 C.3     1  UNL1        0.0949
     16 N           7.7815   -3.7231   31.3863 N.3     1  UNL1       -0.2727
     17 C           9.0852   -3.3023   30.7754 C.3     1  UNL1        0.0896
     18 C           7.2304   -5.0905   31.1096 C.3     1  UNL1        0.0722
     19 C           7.3317   -5.6753   29.7320 C.3     1  UNL1        0.0210
     20 C           8.3117   -6.7766   29.4549 C.3     1  UNL1        0.0335
     21 C           8.4130   -7.3614   28.0774 C.3     1  UNL1        0.1422
     22 O           7.5343   -6.8449   26.9769 O.3     1  UNL1       -0.3538
     23 C           6.5543   -5.7436   27.2539 C.3     1  UNL1        0.1422
     24 C           6.4530   -5.1588   28.6315 C.3     1  UNL1        0.0335
     25 C           4.2922    2.0062   33.1649 C.3     1  UNL1        0.1354
     26 C           3.3740   -0.4675   29.5197 C.ar    1  UNL1        0.1387
     27 C           4.7580    0.0708   29.7316 C.ar    1  UNL1        0.0366
     28 C           5.0640    0.8953   30.9467 C.ar    1  UNL1        0.0007
     29 C           3.9861    1.1817   31.9499 C.ar    1  UNL1        0.0007
     30 C           2.6022    0.6434   31.7379 C.ar    1  UNL1        0.0007
     31 C           2.2961   -0.1811   30.5228 C.ar    1  UNL1        0.0366
     32 C           3.5714   -0.8604   26.9590 C.3     1  UNL1        0.2525
     33 O           3.0679   -1.2920   28.3046 O.3     1  UNL1       -0.4714
@<TRIPOS>BOND
     1    32    33    1
     2    33    26    1
     3    26    27   ar
     4    27    28   ar
     5    28    29   ar
     6    29    25    1
     7    25     1    1
     8     1     2   ar
     9     2    10    1
    10    10    11    1
    11    11    12    1
    12    12    13    1
    13    13    16    1
    14    16    17    1
    15    16    18    1
    16    18    19    1
    17    19    20    1
    18    20    21    1
    19    21    22    1
    20    22    23    1
    21    23    24    1
    22    13    14    1
    23    14    15    1
    24     2     3   ar
    25     3     4   ar
    26     4     5   ar
    27     5     6   ar
    28     6     7   ar
    29     7     8   ar
    30     8     9   ar
    31    29    30   ar
    32    30    31   ar
    33    31    26   ar
    34     9     1   ar
    35    15    10    1
    36     9     4   ar
    37    24    19    1
@<TRIPOS>MOLECULE
*****
 33 37 0 0 0
SMALL
GASTEIGER

@<TRIPOS>ATOM
      1 N           7.6663   -4.0324   24.8791 N.ar    1  UNL1       -0.2954
      2 C           7.2833   -4.4560   23.4920 C.ar    1  UNL1        0.2014
      3 N           7.5708   -5.9221   23.3592 N.ar    1  UNL1       -0.2136
      4 C           8.1314   -6.4048   24.6641 C.ar    1  UNL1        0.0999
      5 C           8.5958   -7.7568   25.1182 C.ar    1  UNL1        0.0207
      6 C           9.1192   -7.9409   26.5118 C.ar    1  UNL1        0.0016
      7 C           9.1782   -6.7730   27.4512 C.ar    1  UNL1        0.0016
      8 C           8.7138   -5.4209   26.9970 C.ar    1  UNL1        0.0188
      9 C           8.1904   -5.2368   25.6035 C.ar    1  UNL1        0.0801
     10 N           6.7130   -3.5691   22.4252 N.pl3   1  UNL1       -0.2794
     11 C           5.2293   -3.5094   22.2135 C.3     1  UNL1        0.0949
     12 C           4.6590   -2.6224   21.1466 C.3     1  UNL1        0.0375
     13 C           5.5724   -1.7952   20.2915 C.3     1  UNL1        0.0610
     14 C           7.0562   -1.8549   20.5032 C.3     1  UNL1        0.0375
     15 C           7.6265   -2.7418   21.5701 C.3     1  UNL1        0.0949
     16 N           5.0021   -0.9083   19.2247 N.3     1  UNL1       -0.2727
     17 C           5.7831    0.2760   18.7373 C.3     1  UNL1        0.0896
     18 C           3.6509   -1.2057   18.6453 C.3     1  UNL1        0.0722
     19 C           2.4696   -0.3634   19.0261 C.3     1  UNL1        0.0210
     20 C           2.2044    0.9257   18.3065 C.3     1  UNL1        0.0335
     21 C           1.0231    1.7680   18.6874 C.3     1  UNL1        0.1422
     22 O           0.1071    1.3212   19.7879 O.3     1  UNL1       -0.3538
     23 C           0.3723    0.0321   20.5077 C.3     1  UNL1        0.1422
     24 C           1.5536   -0.8102   20.1268 C.3     1  UNL1        0.0335
     25 C           7.5462   -2.6476   25.4429 C.3     1  UNL1        0.1354
     26 C           3.7622   -1.3866   27.5264 C.ar    1  UNL1        0.1387
     27 C           4.9481   -1.8319   28.3299 C.ar    1  UNL1        0.0366
     28 C           6.2094   -2.2522   27.6353 C.ar    1  UNL1        0.0007
     29 C           6.2849   -2.2273   26.1373 C.ar    1  UNL1        0.0007
     30 C           5.0990   -1.7820   25.3340 C.ar    1  UNL1        0.0007
     31 C           3.8377   -1.3617   26.0286 C.ar    1  UNL1        0.0366
     32 C           2.5429   -0.5386   29.6582 C.3     1  UNL1        0.2525
     33 O           2.5009   -0.9663   28.2210 O.3     1  UNL1       -0.4714
@<TRIPOS>BOND
     1    32    33    1
     2    33    26    1
     3    26    27   ar
     4    27    28   ar
     5    28    29   ar
     6    29    25    1
     7    25     1    1
     8     1     2   ar
     9     2    10    1
    10    10    11    1
    11    11    12    1
    12    12    13    1
    13    13    16    1
    14    16    17    1
    15    16    18    1
    16    18    19    1
    17    19    20    1
    18    20    21    1
    19    21    22    1
    20    22    23    1
    21    23    24    1
    22    13    14    1
    23    14    15    1
    24     2     3   ar
    25     3     4   ar
    26     4     5   ar
    27     5     6   ar
    28     6     7   ar
    29     7     8   ar
    30     8     9   ar
    31    29    30   ar
    32    30    31   ar
    33    31    26   ar
    34     9     1   ar
    35    15    10    1
    36     9     4   ar
    37    24    19    1
@<TRIPOS>MOLECULE
*****
 33 37 0 0 0
SMALL
GASTEIGER

@<TRIPOS>ATOM
      1 N           7.5428   -4.2884   22.9372 N.ar    1  UNL1       -0.2954
      2 C           6.5738   -3.6937   23.9157 C.ar    1  UNL1        0.2014
      3 N           6.5598   -4.5611   25.1394 N.ar    1  UNL1       -0.2136
      4 C           7.5201   -5.6918   24.9172 C.ar    1  UNL1        0.0999
      5 C           7.9199   -6.8530   25.7784 C.ar    1  UNL1        0.0207
      6 C           8.9271   -7.8457   25.2785 C.ar    1  UNL1        0.0016
      7 C           9.5346   -7.6772   23.9174 C.ar    1  UNL1        0.0016
      8 C           9.1349   -6.5159   23.0562 C.ar    1  UNL1        0.0188
      9 C           8.1276   -5.5232   23.5561 C.ar    1  UNL1        0.0801
     10 N           5.7615   -2.4501   23.7071 N.pl3   1  UNL1       -0.2794
     11 C           4.3612   -2.5488   23.1786 C.3     1  UNL1        0.0949
     12 C           3.5488   -1.3052   22.9700 C.3     1  UNL1        0.0375
     13 C           4.1368    0.0371   23.2900 C.3     1  UNL1        0.0610
     14 C           5.5371    0.1358   23.8185 C.3     1  UNL1        0.0375
     15 C           6.3494   -1.1078   24.0271 C.3     1  UNL1        0.0949
     16 N           3.3245    1.2808   23.0814 N.3     1  UNL1       -0.2727
     17 C           2.3930    1.7572   24.1562 C.3     1  UNL1        0.0896
     18 C           3.4436    2.0479   21.7980 C.3     1  UNL1        0.0722
     19 C           2.4936    1.7745   20.6698 C.3     1  UNL1        0.0210
     20 C           1.7442    0.4762   20.6183 C.3     1  UNL1        0.0335
     21 C           0.7942    0.2028   19.4901 C.3     1  UNL1        0.1422
     22 O           0.5936    1.2277   18.4134 O.3     1  UNL1       -0.3538
     23 C           1.3431    2.5261   18.4649 C.3     1  UNL1        0.1422
     24 C           2.2930    2.7995   19.5931 C.3     1  UNL1        0.0335
     25 C           7.8695   -3.7438   21.5783 C.3     1  UNL1        0.1354
     26 C           4.5992   -2.0733   18.9775 C.ar    1  UNL1        0.1387
     27 C           5.6396   -1.1593   19.5540 C.ar    1  UNL1        0.0366
     28 C           6.7297   -1.7162   20.4209 C.ar    1  UNL1        0.0007
     29 C           6.7795   -3.1870   20.7114 C.ar    1  UNL1        0.0007
     30 C           5.7391   -4.1009   20.1348 C.ar    1  UNL1        0.0007
     31 C           4.6490   -3.5440   19.2679 C.ar    1  UNL1        0.0366
     32 C           3.8554   -0.7812   16.8496 C.3     1  UNL1        0.2525
     33 O           3.5091   -1.5164   18.1105 O.3     1  UNL1       -0.4714
@<TRIPOS>BOND
     1    32    33    1
     2    33    26    1
     3    26    27   ar
     4    27    28   ar
     5    28    29   ar
     6    29    25    1
     7    25     1    1
     8     1     2   ar
     9     2    10    1
    10    10    11    1
    11    11    12    1
    12    12    13    1
    13    13    16    1
    14    16    17    1
    15    16    18    1
    16    18    19    1
    17    19    20    1
    18    20    21    1
    19    21    22    1
    20    22    23    1
    21    23    24    1
    22    13    14    1
    23    14    15    1
    24     2     3   ar
    25     3     4   ar
    26     4     5   ar
    27     5     6   ar
    28     6     7   ar
    29     7     8   ar
    30     8     9   ar
    31    29    30   ar
    32    30    31   ar
    33    31    26   ar
    34     9     1   ar
    35    15    10    1
    36     9     4   ar
    37    24    19    1
@<TRIPOS>MOLECULE
*****
 33 37 0 0 0
SMALL
GASTEIGER

@<TRIPOS>ATOM
      1 N           2.3719    1.6588   18.7051 N.ar    1  UNL1       -0.2954
      2 C           1.6614    2.9796   18.7298 C.ar    1  UNL1        0.2014
      3 N           2.6338    4.0370   18.2980 N.ar    1  UNL1       -0.2136
      4 C           3.9452    3.3697   18.0064 C.ar    1  UNL1        0.0999
      5 C           5.2657    3.9105   17.5444 C.ar    1  UNL1        0.0207
      6 C           6.4244    2.9815   17.3339 C.ar    1  UNL1        0.0016
      7 C           6.2625    1.5116   17.5854 C.ar    1  UNL1        0.0016
      8 C           4.9419    0.9708   18.0475 C.ar    1  UNL1        0.0188
      9 C           3.7833    1.8998   18.2580 C.ar    1  UNL1        0.0801
     10 N           0.2300    3.2037   19.1181 N.pl3   1  UNL1       -0.2794
     11 C          -0.7439    3.7438   18.1133 C.3     1  UNL1        0.0949
     12 C          -2.1754    3.9679   18.5016 C.3     1  UNL1        0.0375
     13 C          -2.6328    3.6520   19.8948 C.3     1  UNL1        0.0610
     14 C          -1.6589    3.1119   20.8996 C.3     1  UNL1        0.0375
     15 C          -0.2274    2.8878   20.5112 C.3     1  UNL1        0.0949
     16 N          -4.0643    3.8761   20.2831 N.3     1  UNL1       -0.2727
     17 C          -4.8289    5.0261   19.6977 C.3     1  UNL1        0.0896
     18 C          -4.7310    2.9502   21.2568 C.3     1  UNL1        0.0722
     19 C          -5.1586    3.4577   22.6020 C.3     1  UNL1        0.0210
     20 C          -6.5105    4.0847   22.7720 C.3     1  UNL1        0.0335
     21 C          -6.9381    4.5922   24.1172 C.3     1  UNL1        0.1422
     22 O          -6.0137    4.4727   25.2924 O.3     1  UNL1       -0.3538
     23 C          -4.6616    3.8457   25.1224 C.3     1  UNL1        0.1422
     24 C          -4.2341    3.3382   23.7772 C.3     1  UNL1        0.0335
     25 C           1.7756    0.3301   19.0643 C.3     1  UNL1        0.1354
     26 C           3.8514   -2.3390   22.0336 C.ar    1  UNL1        0.1387
     27 C           3.8470   -2.6982   20.5772 C.ar    1  UNL1        0.0366
     28 C           3.1550   -1.8085   19.5875 C.ar    1  UNL1        0.0007
     29 C           2.4675   -0.5596   20.0541 C.ar    1  UNL1        0.0007
     30 C           2.4720   -0.2005   21.5104 C.ar    1  UNL1        0.0007
     31 C           3.1639   -1.0902   22.5002 C.ar    1  UNL1        0.0366
     32 C           5.9758   -3.6186   22.8082 C.3     1  UNL1        0.2525
     33 O           4.5433   -3.2287   23.0233 O.3     1  UNL1       -0.4714
@<TRIPOS>BOND
     1    32    33    1
     2    33    26    1
     3    26    27   ar
     4    27    28   ar
     5    28    29   ar
     6    29    25    1
     7    25     1    1
     8     1     2   ar
     9     2    10    1
    10    10    11    1
    11    11    12    1
    12    12    13    1
    13    13    16    1
    14    16    17    1
    15    16    18    1
    16    18    19    1
    17    19    20    1
    18    20    21    1
    19    21    22    1
    20    22    23    1
    21    23    24    1
    22    13    14    1
    23    14    15    1
    24     2     3   ar
    25     3     4   ar
    26     4     5   ar
    27     5     6   ar
    28     6     7   ar
    29     7     8   ar
    30     8     9   ar
    31    29    30   ar
    32    30    31   ar
    33    31    26   ar
    34     9     1   ar
    35    15    10    1
    36     9     4   ar
    37    24    19    1
