@<TRIPOS>MOLECULE
*****
 24 27 0 0 0
SMALL
GASTEIGER

@<TRIPOS>ATOM
      1 N          -7.9411  -18.0764   22.3808 N.ar    1  UNL1       -0.3100
      2 C          -8.2178  -16.7756   23.0746 C.ar    1  UNL1        0.1317
      3 N          -9.4583  -16.1843   22.4732 N.ar    1  UNL1       -0.2300
      4 C          -9.9482  -17.1196   21.4078 C.ar    1  UNL1        0.0984
      5 C         -11.1270  -17.0576   20.4823 C.ar    1  UNL1        0.0206
      6 C         -11.3681  -18.1650   19.4997 C.ar    1  UNL1        0.0016
      7 C         -10.4304  -19.3344   19.4426 C.ar    1  UNL1        0.0016
      8 C          -9.2516  -19.3964   20.3681 C.ar    1  UNL1        0.0188
      9 C          -9.0105  -18.2890   21.3507 C.ar    1  UNL1        0.0789
     10 C          -7.3980  -16.1720   24.1762 C.3     1  UNL1        0.1199
     11 C          -6.0491  -15.5896   23.8745 C.3     1  UNL1        0.0871
     12 N          -5.2293  -14.9861   24.9762 N.3     1  UNL1       -0.2957
     13 C          -5.7584  -14.9649   26.3795 C.3     1  UNL1        0.0804
     14 C          -7.1074  -15.5473   26.6812 C.3     1  UNL1        0.0750
     15 S          -7.9272  -16.1508   25.5796 S.3     1  UNL1       -0.1306
     16 H          -5.0517  -14.0165   24.7138 H       1  UNL1        0.1233
     17 C          -6.7960  -19.0020   22.6669 C.3     1  UNL1        0.1339
     18 C          -1.6772  -18.4858   19.5797 C.3     1  UNL1        0.0310
     19 C          -2.9569  -18.6148   20.3514 C.ar    1  UNL1       -0.0219
     20 C          -2.9791  -18.3185   21.8218 C.ar    1  UNL1       -0.0045
     21 C          -4.2588  -18.4476   22.5935 C.ar    1  UNL1       -0.0027
     22 C          -5.5164  -18.8730   21.8951 C.ar    1  UNL1        0.0004
     23 C          -5.4940  -19.1693   20.4248 C.ar    1  UNL1       -0.0027
     24 C          -4.2143  -19.0402   19.6530 C.ar    1  UNL1       -0.0045
@<TRIPOS>BOND
     1    18    19    1
     2    19    20   ar
     3    20    21   ar
     4    21    22   ar
     5    22    17    1
     6    17     1    1
     7     1     2   ar
     8     2    10    1
     9    10    11    1
    10    11    12    1
    11    12    13    1
    12    13    14    1
    13    14    15    1
    14     2     3   ar
    15     3     4   ar
    16     4     5   ar
    17     5     6   ar
    18     6     7   ar
    19     7     8   ar
    20     8     9   ar
    21    22    23   ar
    22    23    24   ar
    23    24    19   ar
    24     9     1   ar
    25    15    10    1
    26     9     4   ar
    27    12    16    1
@<TRIPOS>MOLECULE
*****
 24 27 0 0 0
SMALL
GASTEIGER

@<TRIPOS>ATOM
      1 N          -8.4918  -17.1115   21.8675 N.ar    1  UNL1       -0.3100
      2 C          -7.9478  -18.4316   21.4077 C.ar    1  UNL1        0.1317
      3 N          -9.1087  -19.3134   21.0542 N.ar    1  UNL1       -0.2300
      4 C         -10.3700  -18.5383   21.2955 C.ar    1  UNL1        0.0984
      5 C         -11.8164  -18.8958   21.1225 C.ar    1  UNL1        0.0206
      6 C         -12.8816  -17.8925   21.4521 C.ar    1  UNL1        0.0016
      7 C         -12.5003  -16.5316   21.9548 C.ar    1  UNL1        0.0016
      8 C         -11.0539  -16.1741   22.1278 C.ar    1  UNL1        0.0188
      9 C          -9.9887  -17.1774   21.7981 C.ar    1  UNL1        0.0789
     10 C          -6.4977  -18.8045   21.3173 C.3     1  UNL1        0.1199
     11 C          -5.6346  -18.7622   22.5433 C.3     1  UNL1        0.0871
     12 N          -4.1845  -19.1351   22.4528 N.3     1  UNL1       -0.2957
     13 C          -3.5975  -19.5502   21.1364 C.3     1  UNL1        0.0804
     14 C          -4.4607  -19.5925   19.9104 C.3     1  UNL1        0.0750
     15 S          -5.9108  -19.2197   20.0008 S.3     1  UNL1       -0.1306
     16 H          -4.0394  -19.9117   23.0980 H       1  UNL1        0.1233
     17 C          -7.6811  -15.9324   22.3176 C.3     1  UNL1        0.1339
     18 C          -6.7571  -14.9846   28.1697 C.3     1  UNL1        0.0310
     19 C          -6.9881  -15.2216   26.7067 C.ar    1  UNL1       -0.0219
     20 C          -5.8305  -15.2083   25.7528 C.ar    1  UNL1       -0.0045
     21 C          -6.0615  -15.4452   24.2898 C.ar    1  UNL1       -0.0027
     22 C          -7.4501  -15.6955   23.7805 C.ar    1  UNL1        0.0004
     23 C          -8.6077  -15.7088   24.7344 C.ar    1  UNL1       -0.0027
     24 C          -8.3766  -15.4718   26.1975 C.ar    1  UNL1       -0.0045
@<TRIPOS>BOND
     1    18    19    1
     2    19    20   ar
     3    20    21   ar
     4    21    22   ar
     5    22    17    1
     6    17     1    1
     7     1     2   ar
     8     2    10    1
     9    10    11    1
    10    11    12    1
    11    12    13    1
    12    13    14    1
    13    14    15    1
    14     2     3   ar
    15     3     4   ar
    16     4     5   ar
    17     5     6   ar
    18     6     7   ar
    19     7     8   ar
    20     8     9   ar
    21    22    23   ar
    22    23    24   ar
    23    24    19   ar
    24     9     1   ar
    25    15    10    1
    26     9     4   ar
    27    12    16    1
@<TRIPOS>MOLECULE
*****
 24 27 0 0 0
SMALL
GASTEIGER

@<TRIPOS>ATOM
      1 N          -7.7384  -17.8703   21.5741 N.ar    1  UNL1       -0.3100
      2 C          -8.9431  -18.7411   21.3732 C.ar    1  UNL1        0.1317
      3 N          -8.4723  -20.0762   20.8772 N.ar    1  UNL1       -0.2300
      4 C          -6.9767  -20.0304   20.7717 C.ar    1  UNL1        0.0984
      5 C          -5.9693  -21.0541   20.3390 C.ar    1  UNL1        0.0206
      6 C          -4.5083  -20.7143   20.3370 C.ar    1  UNL1        0.0016
      7 C          -4.0548  -19.3510   20.7677 C.ar    1  UNL1        0.0016
      8 C          -5.0622  -18.3273   21.2004 C.ar    1  UNL1        0.0188
      9 C          -6.5232  -18.6671   21.2024 C.ar    1  UNL1        0.0789
     10 C         -10.3683  -18.3463   21.6241 C.3     1  UNL1        0.1199
     11 C         -11.1605  -17.6704   20.5445 C.3     1  UNL1        0.0871
     12 N         -12.5857  -17.2755   20.7954 N.3     1  UNL1       -0.2957
     13 C         -13.2186  -17.5565   22.1260 C.3     1  UNL1        0.0804
     14 C         -12.4264  -18.2324   23.2055 C.3     1  UNL1        0.0750
     15 S         -11.0012  -18.6273   22.9546 S.3     1  UNL1       -0.1306
     16 H         -13.1514  -17.7528   20.0936 H       1  UNL1        0.1233
     17 C          -7.7474  -16.4516   22.0613 C.3     1  UNL1        0.1339
     18 C          -6.8299  -15.2686   27.8714 C.3     1  UNL1        0.0310
     19 C          -7.0593  -15.5644   26.4189 C.ar    1  UNL1       -0.0219
     20 C          -5.9081  -15.5395   25.4576 C.ar    1  UNL1       -0.0045
     21 C          -6.1375  -15.8352   24.0050 C.ar    1  UNL1       -0.0027
     22 C          -7.5181  -16.1559   23.5137 C.ar    1  UNL1        0.0004
     23 C          -8.6692  -16.1808   24.4752 C.ar    1  UNL1       -0.0027
     24 C          -8.4398  -15.8850   25.9277 C.ar    1  UNL1       -0.0045
@<TRIPOS>BOND
     1    18    19    1
     2    19    20   ar
     3    20    21   ar
     4    21    22   ar
     5    22    17    1
     6    17     1    1
     7     1     2   ar
     8     2    10    1
     9    10    11    1
    10    11    12    1
    11    12    13    1
    12    13    14    1
    13    14    15    1
    14     2     3   ar
    15     3     4   ar
    16     4     5   ar
    17     5     6   ar
    18     6     7   ar
    19     7     8   ar
    20     8     9   ar
    21    22    23   ar
    22    23    24   ar
    23    24    19   ar
    24     9     1   ar
    25    15    10    1
    26     9     4   ar
    27    12    16    1
@<TRIPOS>MOLECULE
*****
 24 27 0 0 0
SMALL
GASTEIGER

@<TRIPOS>ATOM
      1 N          -6.3956  -16.7003   23.7023 N.ar    1  UNL1       -0.3100
      2 C          -4.9169  -16.7542   23.9478 C.ar    1  UNL1        0.1317
      3 N          -4.6527  -16.1904   25.3124 N.ar    1  UNL1       -0.2300
      4 C          -5.9683  -15.7880   25.9104 C.ar    1  UNL1        0.0984
      5 C          -6.3244  -15.1754   27.2324 C.ar    1  UNL1        0.0206
      6 C          -7.7578  -14.8779   27.5592 C.ar    1  UNL1        0.0016
      7 C          -8.8350  -15.1930   26.5641 C.ar    1  UNL1        0.0016
      8 C          -8.4788  -15.8057   25.2421 C.ar    1  UNL1        0.0188
      9 C          -7.0455  -16.1032   24.9152 C.ar    1  UNL1        0.0789
     10 C          -3.8836  -17.2797   22.9958 C.3     1  UNL1        0.1199
     11 C          -2.8368  -16.3591   22.4421 C.3     1  UNL1        0.0871
     12 N          -1.8036  -16.8846   21.4901 N.3     1  UNL1       -0.2957
     13 C          -1.8172  -18.3306   21.0918 C.3     1  UNL1        0.0804
     14 C          -2.8640  -19.2512   21.6454 C.3     1  UNL1        0.0750
     15 S          -3.8972  -18.7257   22.5975 S.3     1  UNL1       -0.1306
     16 H          -0.8936  -16.7046   21.9144 H       1  UNL1        0.1233
     17 C          -7.1009  -17.1624   22.4617 C.3     1  UNL1        0.1339
     18 C         -13.0501  -17.9397   22.5055 C.3     1  UNL1        0.0310
     19 C         -11.5628  -17.7454   22.4945 C.ar    1  UNL1       -0.0219
     20 C         -10.6631  -18.8110   23.0470 C.ar    1  UNL1       -0.0045
     21 C          -9.1758  -18.6166   23.0360 C.ar    1  UNL1       -0.0027
     22 C          -8.5881  -17.3567   22.4726 C.ar    1  UNL1        0.0004
     23 C          -9.4878  -16.2912   21.9202 C.ar    1  UNL1       -0.0027
     24 C         -10.9751  -16.4856   21.9311 C.ar    1  UNL1       -0.0045
@<TRIPOS>BOND
     1    18    19    1
     2    19    20   ar
     3    20    21   ar
     4    21    22   ar
     5    22    17    1
     6    17     1    1
     7     1     2   ar
     8     2    10    1
     9    10    11    1
    10    11    12    1
    11    12    13    1
    12    13    14    1
    13    14    15    1
    14     2     3   ar
    15     3     4   ar
    16     4     5   ar
    17     5     6   ar
    18     6     7   ar
    19     7     8   ar
    20     8     9   ar
    21    22    23   ar
    22    23    24   ar
    23    24    19   ar
    24     9     1   ar
    25    15    10    1
    26     9     4   ar
    27    12    16    1
@<TRIPOS>MOLECULE
*****
 24 27 0 0 0
SMALL
GASTEIGER

@<TRIPOS>ATOM
      1 N          -7.1443  -19.2276   21.3859 N.ar    1  UNL1       -0.3100
      2 C          -8.2022  -18.1871   21.6054 C.ar    1  UNL1        0.1317
      3 N          -9.2628  -18.3772   20.5619 N.ar    1  UNL1       -0.2300
      4 C          -8.8605  -19.5352   19.6975 C.ar    1  UNL1        0.0984
      5 C          -9.5172  -20.1790   18.5125 C.ar    1  UNL1        0.0206
      6 C          -8.8646  -21.3483   17.8368 C.ar    1  UNL1        0.0016
      7 C          -7.5552  -21.8739   18.3461 C.ar    1  UNL1        0.0016
      8 C          -6.8985  -21.2302   19.5311 C.ar    1  UNL1        0.0188
      9 C          -7.5511  -20.0608   20.2068 C.ar    1  UNL1        0.0789
     10 C          -8.1998  -17.1403   22.6797 C.3     1  UNL1        0.1199
     11 C          -7.6205  -15.7843   22.4044 C.3     1  UNL1        0.0871
     12 N          -7.6182  -14.7375   23.4787 N.3     1  UNL1       -0.2957
     13 C          -8.1951  -15.0466   24.8283 C.3     1  UNL1        0.0804
     14 C          -8.7743  -16.4025   25.1037 C.3     1  UNL1        0.0750
     15 S          -8.7767  -17.4494   24.0294 S.3     1  UNL1       -0.1306
     16 H          -8.1366  -13.9389   23.1128 H       1  UNL1        0.1233
     17 C          -5.8983  -19.4041   22.2023 C.3     1  UNL1        0.1339
     18 C          -0.6971  -17.1212   20.2696 C.3     1  UNL1        0.0310
     19 C          -1.9974  -17.6919   20.7528 C.ar    1  UNL1       -0.0219
     20 C          -2.8421  -18.5196   19.8300 C.ar    1  UNL1       -0.0045
     21 C          -4.1424  -19.0903   20.3132 C.ar    1  UNL1       -0.0027
     22 C          -4.5980  -18.8333   21.7191 C.ar    1  UNL1        0.0004
     23 C          -3.7533  -18.0057   22.6418 C.ar    1  UNL1       -0.0027
     24 C          -2.4529  -17.4350   22.1586 C.ar    1  UNL1       -0.0045
@<TRIPOS>BOND
     1    18    19    1
     2    19    20   ar
     3    20    21   ar
     4    21    22   ar
     5    22    17    1
     6    17     1    1
     7     1     2   ar
     8     2    10    1
     9    10    11    1
    10    11    12    1
    11    12    13    1
    12    13    14    1
    13    14    15    1
    14     2     3   ar
    15     3     4   ar
    16     4     5   ar
    17     5     6   ar
    18     6     7   ar
    19     7     8   ar
    20     8     9   ar
    21    22    23   ar
    22    23    24   ar
    23    24    19   ar
    24     9     1   ar
    25    15    10    1
    26     9     4   ar
    27    12    16    1
@<TRIPOS>MOLECULE
*****
 24 27 0 0 0
SMALL
GASTEIGER

@<TRIPOS>ATOM
      1 N          -8.8672  -17.9126   23.0908 N.ar    1  UNL1       -0.3100
      2 C          -8.7589  -16.5734   23.7577 C.ar    1  UNL1        0.1317
      3 N         -10.0041  -15.7979   23.4450 N.ar    1  UNL1       -0.2300
      4 C         -10.8820  -16.6577   22.5847 C.ar    1  UNL1        0.0984
      5 C         -12.2304  -16.4193   21.9724 C.ar    1  UNL1        0.0206
      6 C         -12.8761  -17.4880   21.1412 C.ar    1  UNL1        0.0016
      7 C         -12.1734  -18.7950   20.9223 C.ar    1  UNL1        0.0016
      8 C         -10.8250  -19.0334   21.5346 C.ar    1  UNL1        0.0188
      9 C         -10.1793  -17.9647   22.3658 C.ar    1  UNL1        0.0789
     10 C          -7.6075  -16.0940   24.5911 C.3     1  UNL1        0.1199
     11 C          -7.7366  -16.0331   26.0843 C.3     1  UNL1        0.0871
     12 N          -6.5852  -15.5537   26.9177 N.3     1  UNL1       -0.2957
     13 C          -5.3048  -15.1352   26.2579 C.3     1  UNL1        0.0804
     14 C          -5.1758  -15.1961   24.7648 C.3     1  UNL1        0.0750
     15 S          -6.3271  -15.6755   23.9314 S.3     1  UNL1       -0.1306
     16 H          -6.3516  -16.3106   27.5603 H       1  UNL1        0.1233
     17 C          -7.8431  -19.0075   23.1401 C.3     1  UNL1        0.1339
     18 C          -3.3225  -19.0673   19.1954 C.3     1  UNL1        0.0310
     19 C          -4.4526  -19.0524   20.1816 C.ar    1  UNL1       -0.0219
     20 C          -5.8678  -19.1864   19.7026 C.ar    1  UNL1       -0.0045
     21 C          -6.9979  -19.1715   20.6888 C.ar    1  UNL1       -0.0027
     22 C          -6.7130  -19.0225   22.1540 C.ar    1  UNL1        0.0004
     23 C          -5.2978  -18.8884   22.6329 C.ar    1  UNL1       -0.0027
     24 C          -4.1677  -18.9034   21.6467 C.ar    1  UNL1       -0.0045
@<TRIPOS>BOND
     1    18    19    1
     2    19    20   ar
     3    20    21   ar
     4    21    22   ar
     5    22    17    1
     6    17     1    1
     7     1     2   ar
     8     2    10    1
     9    10    11    1
    10    11    12    1
    11    12    13    1
    12    13    14    1
    13    14    15    1
    14     2     3   ar
    15     3     4   ar
    16     4     5   ar
    17     5     6   ar
    18     6     7   ar
    19     7     8   ar
    20     8     9   ar
    21    22    23   ar
    22    23    24   ar
    23    24    19   ar
    24     9     1   ar
    25    15    10    1
    26     9     4   ar
    27    12    16    1
@<TRIPOS>MOLECULE
*****
 24 27 0 0 0
SMALL
GASTEIGER

@<TRIPOS>ATOM
      1 N         -13.1670   -5.1151   18.0853 N.ar    1  UNL1       -0.3100
      2 C         -12.8120   -3.8450   18.8000 C.ar    1  UNL1        0.1317
      3 N         -11.4007   -3.9693   19.2926 N.ar    1  UNL1       -0.2300
      4 C         -10.8834   -5.3162   18.8823 C.ar    1  UNL1        0.0984
      5 C          -9.5594   -5.9893   19.0917 C.ar    1  UNL1        0.0206
      6 C          -9.3271   -7.3705   18.5550 C.ar    1  UNL1        0.0016
      7 C         -10.4188   -8.0787   17.8088 C.ar    1  UNL1        0.0016
      8 C         -11.7428   -7.4056   17.5994 C.ar    1  UNL1        0.0188
      9 C         -11.9751   -6.0243   18.1361 C.ar    1  UNL1        0.0789
     10 C         -13.7106   -2.6589   18.9890 C.3     1  UNL1        0.1199
     11 C         -14.7410   -2.6646   20.0790 C.3     1  UNL1        0.0871
     12 N         -15.6396   -1.4785   20.2680 N.3     1  UNL1       -0.2957
     13 C         -15.5078   -0.2866   19.3669 C.3     1  UNL1        0.0804
     14 C         -14.4774   -0.2809   18.2769 C.3     1  UNL1        0.0750
     15 S         -13.5788   -1.4670   18.0879 S.3     1  UNL1       -0.1306
     16 H         -15.4910   -1.1454   21.2206 H       1  UNL1        0.1233
     17 C         -14.4829   -5.4220   17.4340 C.3     1  UNL1        0.1339
     18 C         -18.8125   -8.1567   20.5607 C.3     1  UNL1        0.0310
     19 C         -17.7301   -7.4731   19.7790 C.ar    1  UNL1       -0.0219
     20 C         -17.9111   -6.0529   19.3313 C.ar    1  UNL1       -0.0045
     21 C         -16.8287   -5.3693   18.5496 C.ar    1  UNL1       -0.0027
     22 C         -15.5653   -6.1057   18.2157 C.ar    1  UNL1        0.0004
     23 C         -15.3843   -7.5258   18.6634 C.ar    1  UNL1       -0.0027
     24 C         -16.4667   -8.2095   19.4451 C.ar    1  UNL1       -0.0045
@<TRIPOS>BOND
     1    18    19    1
     2    19    20   ar
     3    20    21   ar
     4    21    22   ar
     5    22    17    1
     6    17     1    1
     7     1     2   ar
     8     2    10    1
     9    10    11    1
    10    11    12    1
    11    12    13    1
    12    13    14    1
    13    14    15    1
    14     2     3   ar
    15     3     4   ar
    16     4     5   ar
    17     5     6   ar
    18     6     7   ar
    19     7     8   ar
    20     8     9   ar
    21    22    23   ar
    22    23    24   ar
    23    24    19   ar
    24     9     1   ar
    25    15    10    1
    26     9     4   ar
    27    12    16    1
@<TRIPOS>MOLECULE
*****
 24 27 0 0 0
SMALL
GASTEIGER

@<TRIPOS>ATOM
      1 N          -8.1925  -16.3145   23.5015 N.ar    1  UNL1       -0.3100
      2 C          -9.5899  -16.5120   24.0099 C.ar    1  UNL1        0.1317
      3 N          -9.5918  -16.2271   25.4826 N.ar    1  UNL1       -0.2300
      4 C          -8.1957  -15.8536   25.8844 C.ar    1  UNL1        0.0984
      5 C          -7.6002  -15.4713   27.2069 C.ar    1  UNL1        0.0206
      6 C          -6.1399  -15.1430   27.3051 C.ar    1  UNL1        0.0016
      7 C          -5.2751  -15.1970   26.0807 C.ar    1  UNL1        0.0016
      8 C          -5.8706  -15.5793   24.7581 C.ar    1  UNL1        0.0188
      9 C          -7.3309  -15.9076   24.6600 C.ar    1  UNL1        0.0789
     10 C         -10.7768  -16.9222   23.1896 C.3     1  UNL1        0.1199
     11 C         -11.6485  -18.0545   23.6458 C.3     1  UNL1        0.0871
     12 N         -12.8355  -18.4647   22.8255 N.3     1  UNL1       -0.2957
     13 C         -13.1507  -17.7428   21.5491 C.3     1  UNL1        0.0804
     14 C         -12.2790  -16.6106   21.0929 C.3     1  UNL1        0.0750
     15 S         -11.0920  -16.2003   21.9132 S.3     1  UNL1       -0.1306
     16 H         -13.6546  -18.3722   23.4262 H       1  UNL1        0.1233
     17 C          -7.7368  -16.4926   22.0836 C.3     1  UNL1        0.1339
     18 C          -5.7432  -21.8366   20.2216 C.3     1  UNL1        0.0310
     19 C          -6.2416  -20.5006   20.6871 C.ar    1  UNL1       -0.0219
     20 C          -7.4685  -19.9002   20.0671 C.ar    1  UNL1       -0.0045
     21 C          -7.9668  -18.5642   20.5326 C.ar    1  UNL1       -0.0027
     22 C          -7.2384  -17.8285   21.6181 C.ar    1  UNL1        0.0004
     23 C          -6.0116  -18.4290   22.2381 C.ar    1  UNL1       -0.0027
     24 C          -5.5132  -19.7650   21.7726 C.ar    1  UNL1       -0.0045
@<TRIPOS>BOND
     1    18    19    1
     2    19    20   ar
     3    20    21   ar
     4    21    22   ar
     5    22    17    1
     6    17     1    1
     7     1     2   ar
     8     2    10    1
     9    10    11    1
    10    11    12    1
    11    12    13    1
    12    13    14    1
    13    14    15    1
    14     2     3   ar
    15     3     4   ar
    16     4     5   ar
    17     5     6   ar
    18     6     7   ar
    19     7     8   ar
    20     8     9   ar
    21    22    23   ar
    22    23    24   ar
    23    24    19   ar
    24     9     1   ar
    25    15    10    1
    26     9     4   ar
    27    12    16    1
@<TRIPOS>MOLECULE
*****
 24 27 0 0 0
SMALL
GASTEIGER

@<TRIPOS>ATOM
      1 N         -14.3045   -3.0938   18.0132 N.ar    1  UNL1       -0.3100
      2 C         -15.2863   -4.0709   18.5889 C.ar    1  UNL1        0.1317
      3 N         -16.2823   -3.3010   19.4045 N.ar    1  UNL1       -0.2300
      4 C         -15.9161   -1.8482   19.3329 C.ar    1  UNL1        0.0984
      5 C         -16.5378   -0.6253   19.9396 C.ar    1  UNL1        0.0206
      6 C         -15.9371    0.7256   19.6864 C.ar    1  UNL1        0.0016
      7 C         -14.7147    0.8536   18.8265 C.ar    1  UNL1        0.0016
      8 C         -14.0931   -0.3692   18.2198 C.ar    1  UNL1        0.0188
      9 C         -14.6938   -1.7201   18.4730 C.ar    1  UNL1        0.0789
     10 C         -15.2742   -5.5569   18.3849 C.3     1  UNL1        0.1199
     11 C         -14.6072   -6.4468   19.3914 C.3     1  UNL1        0.0871
     12 N         -14.5951   -7.9328   19.1873 N.3     1  UNL1       -0.2957
     13 C         -15.2500   -8.5289   17.9767 C.3     1  UNL1        0.0804
     14 C         -15.9170   -7.6391   16.9702 C.3     1  UNL1        0.0750
     15 S         -15.9291   -6.1531   17.1743 S.3     1  UNL1       -0.1306
     16 H         -15.0501   -8.3455   20.0016 H       1  UNL1        0.1233
     17 C         -13.1382   -3.4312   17.1323 C.3     1  UNL1        0.1339
     18 C          -9.2550   -7.6916   18.7966 C.3     1  UNL1        0.0310
     19 C         -10.2258   -6.6265   18.3805 C.ar    1  UNL1       -0.0219
     20 C         -10.3173   -5.3488   19.1610 C.ar    1  UNL1       -0.0045
     21 C         -11.2881   -4.2837   18.7449 C.ar    1  UNL1       -0.0027
     22 C         -12.1675   -4.4963   17.5484 C.ar    1  UNL1        0.0004
     23 C         -12.0760   -5.7740   16.7680 C.ar    1  UNL1       -0.0027
     24 C         -11.1052   -6.8391   17.1841 C.ar    1  UNL1       -0.0045
@<TRIPOS>BOND
     1    18    19    1
     2    19    20   ar
     3    20    21   ar
     4    21    22   ar
     5    22    17    1
     6    17     1    1
     7     1     2   ar
     8     2    10    1
     9    10    11    1
    10    11    12    1
    11    12    13    1
    12    13    14    1
    13    14    15    1
    14     2     3   ar
    15     3     4   ar
    16     4     5   ar
    17     5     6   ar
    18     6     7   ar
    19     7     8   ar
    20     8     9   ar
    21    22    23   ar
    22    23    24   ar
    23    24    19   ar
    24     9     1   ar
    25    15    10    1
    26     9     4   ar
    27    12    16    1
