@<TRIPOS>MOLECULE
*****
 23 25 0 0 0
SMALL
GASTEIGER

@<TRIPOS>ATOM
      1 C          -7.5910  -18.4587   22.1577 C.3     1  UNL1        0.1753
      2 O          -8.2568  -19.7137   21.6761 O.3     1  UNL1       -0.3460
      3 C          -9.7426  -19.7437   21.4724 C.3     1  UNL1        0.1685
      4 C         -10.5626  -18.5187   21.7502 C.ar    1  UNL1        0.0067
      5 C         -12.0484  -18.5488   21.5465 C.ar    1  UNL1       -0.0021
      6 C         -12.8684  -17.3239   21.8243 C.ar    1  UNL1       -0.0003
      7 C         -12.2026  -16.0690   22.3059 C.ar    1  UNL1       -0.0002
      8 C         -10.7168  -16.0390   22.5097 C.ar    1  UNL1       -0.0010
      9 C          -9.8969  -17.2638   22.2318 C.ar    1  UNL1        0.0181
     10 C          -8.4110  -17.2339   22.4356 C.3     1  UNL1        0.2162
     11 C          -6.1052  -18.4288   22.3615 C.3     1  UNL1        0.1027
     12 C          -4.8411  -19.9370   20.6653 C.3     1  UNL1        0.0859
     13 N          -5.1840  -18.5729   21.1865 N.3     1  UNL1       -0.2942
     14 H          -5.6099  -18.0610   20.4139 H       1  UNL1        0.1234
     15 O          -7.7452  -15.9790   22.9172 O.3     1  UNL1       -0.4702
     16 C          -7.4236  -15.8118   24.3728 C.ar    1  UNL1        0.1622
     17 C          -6.0237  -15.4814   24.7984 C.ar    1  UNL1        0.0144
     18 C          -4.9454  -15.3183   23.7684 C.3     1  UNL1        0.0343
     19 C          -5.7020  -15.3142   26.2539 C.ar    1  UNL1       -0.0011
     20 C          -6.7802  -15.4773   27.2838 C.ar    1  UNL1        0.0022
     21 C          -8.1801  -15.8077   26.8582 C.ar    1  UNL1        0.0328
     22 C          -8.5018  -15.9749   25.4027 C.ar    1  UNL1        0.1735
     23 F          -9.2799  -16.1449   25.3678 F       1  UNL1       -0.2010
@<TRIPOS>BOND
     1    12    13    1
     2    13    11    1
     3     1    11    1
     4     1     2    1
     5     2     3    1
     6     3     4    1
     7     4     5   ar
     8     5     6   ar
     9     6     7   ar
    10     7     8   ar
    11     8     9   ar
    12     9    10    1
    13    10    15    1
    14    15    16    1
    15    16    17   ar
    16    17    18    1
    17    17    19   ar
    18    19    20   ar
    19    20    21   ar
    20    21    22   ar
    21    22    23    1
    22    10     1    1
    23    22    16   ar
    24     9     4   ar
    25    13    14    1
@<TRIPOS>MOLECULE
*****
 23 25 0 0 0
SMALL
GASTEIGER

@<TRIPOS>ATOM
      1 C          -6.5172  -16.2831   23.5818 C.3     1  UNL1        0.1753
      2 O          -5.1473  -16.8525   23.8036 O.3     1  UNL1       -0.3460
      3 C          -4.7117  -18.0740   23.0498 C.3     1  UNL1        0.1685
      4 C          -5.6460  -18.7260   22.0740 C.ar    1  UNL1        0.0067
      5 C          -5.2105  -19.9474   21.3202 C.ar    1  UNL1       -0.0021
      6 C          -6.1447  -20.5994   20.3445 C.ar    1  UNL1       -0.0003
      7 C          -7.5146  -20.0299   20.1226 C.ar    1  UNL1       -0.0002
      8 C          -7.9502  -18.8085   20.8765 C.ar    1  UNL1       -0.0010
      9 C          -7.0159  -18.1565   21.8522 C.ar    1  UNL1        0.0181
     10 C          -7.4515  -16.9350   22.6061 C.3     1  UNL1        0.2162
     11 C          -6.9527  -15.0616   24.3357 C.3     1  UNL1        0.1027
     12 C          -6.3602  -15.3765   26.8455 C.3     1  UNL1        0.0859
     13 N          -6.1990  -14.6256   25.5571 N.3     1  UNL1       -0.2942
     14 H          -5.2078  -14.6589   25.3189 H       1  UNL1        0.1234
     15 O          -8.8213  -16.3656   22.3843 O.3     1  UNL1       -0.4702
     16 C         -10.0264  -17.0799   22.9206 C.ar    1  UNL1        0.1622
     17 C         -11.3451  -16.9590   22.2162 C.ar    1  UNL1        0.0144
     18 C         -11.4588  -16.1238   20.9754 C.3     1  UNL1        0.0343
     19 C         -12.5502  -17.6733   22.7525 C.ar    1  UNL1       -0.0011
     20 C         -12.4364  -18.5085   23.9932 C.ar    1  UNL1        0.0022
     21 C         -11.1177  -18.6294   24.6977 C.ar    1  UNL1        0.0328
     22 C          -9.9126  -17.9151   24.1614 C.ar    1  UNL1        0.1735
     23 F          -9.3136  -18.0925   24.6566 F       1  UNL1       -0.2010
@<TRIPOS>BOND
     1    12    13    1
     2    13    11    1
     3     1    11    1
     4     1     2    1
     5     2     3    1
     6     3     4    1
     7     4     5   ar
     8     5     6   ar
     9     6     7   ar
    10     7     8   ar
    11     8     9   ar
    12     9    10    1
    13    10    15    1
    14    15    16    1
    15    16    17   ar
    16    17    18    1
    17    17    19   ar
    18    19    20   ar
    19    20    21   ar
    20    21    22   ar
    21    22    23    1
    22    10     1    1
    23    22    16   ar
    24     9     4   ar
    25    13    14    1
@<TRIPOS>MOLECULE
*****
 23 25 0 0 0
SMALL
GASTEIGER

@<TRIPOS>ATOM
      1 C          -7.0964  -17.5973   22.7176 C.3     1  UNL1        0.1753
      2 O          -5.8062  -16.8328   22.7458 O.3     1  UNL1       -0.3460
      3 C          -5.4646  -15.9816   23.9327 C.3     1  UNL1        0.1685
      4 C          -6.4132  -15.8950   25.0915 C.ar    1  UNL1        0.0067
      5 C          -6.0715  -15.0439   26.2785 C.ar    1  UNL1       -0.0021
      6 C          -7.0201  -14.9573   27.4372 C.ar    1  UNL1       -0.0003
      7 C          -8.3103  -15.7218   27.4090 C.ar    1  UNL1       -0.0002
      8 C          -8.6520  -16.5729   26.2220 C.ar    1  UNL1       -0.0010
      9 C          -7.7034  -16.6595   25.0633 C.ar    1  UNL1        0.0181
     10 C          -8.0450  -17.5107   23.8763 C.3     1  UNL1        0.2162
     11 C          -7.4381  -18.4485   21.5306 C.3     1  UNL1        0.1027
     12 C          -5.4426  -19.3003   20.1017 C.3     1  UNL1        0.0859
     13 N          -6.6042  -18.3696   20.2863 N.3     1  UNL1       -0.2942
     14 H          -7.2342  -18.5252   19.4993 H       1  UNL1        0.1234
     15 O          -9.3353  -18.2752   23.8481 O.3     1  UNL1       -0.4702
     16 C         -10.4858  -17.7747   23.0261 C.ar    1  UNL1        0.1622
     17 C         -11.2022  -18.7057   22.0934 C.ar    1  UNL1        0.0144
     18 C         -10.7681  -20.1373   21.9827 C.3     1  UNL1        0.0343
     19 C         -12.3528  -18.2052   21.2713 C.ar    1  UNL1       -0.0011
     20 C         -12.7868  -16.7737   21.3820 C.ar    1  UNL1        0.0022
     21 C         -12.0704  -15.8427   22.3147 C.ar    1  UNL1        0.0328
     22 C         -10.9199  -16.3432   23.1367 C.ar    1  UNL1        0.1735
     23 F         -10.6681  -15.7196   23.5649 F       1  UNL1       -0.2010
@<TRIPOS>BOND
     1    12    13    1
     2    13    11    1
     3     1    11    1
     4     1     2    1
     5     2     3    1
     6     3     4    1
     7     4     5   ar
     8     5     6   ar
     9     6     7   ar
    10     7     8   ar
    11     8     9   ar
    12     9    10    1
    13    10    15    1
    14    15    16    1
    15    16    17   ar
    16    17    18    1
    17    17    19   ar
    18    19    20   ar
    19    20    21   ar
    20    21    22   ar
    21    22    23    1
    22    10     1    1
    23    22    16   ar
    24     9     4   ar
    25    13    14    1
@<TRIPOS>MOLECULE
*****
 23 25 0 0 0
SMALL
GASTEIGER

@<TRIPOS>ATOM
      1 C          -6.9483  -18.8051   21.3221 C.3     1  UNL1        0.1753
      2 O          -5.5313  -19.0937   21.7209 O.3     1  UNL1       -0.3460
      3 C          -4.8549  -18.2426   22.7544 C.3     1  UNL1        0.1685
      4 C          -5.5953  -17.1028   23.3890 C.ar    1  UNL1        0.0067
      5 C          -4.9188  -16.2518   24.4224 C.ar    1  UNL1       -0.0021
      6 C          -5.6593  -15.1120   25.0570 C.ar    1  UNL1       -0.0003
      7 C          -7.0762  -14.8234   24.6582 C.ar    1  UNL1       -0.0002
      8 C          -7.7527  -15.6745   23.6248 C.ar    1  UNL1       -0.0010
      9 C          -7.0122  -16.8142   22.9902 C.ar    1  UNL1        0.0181
     10 C          -7.6887  -17.6654   21.9567 C.3     1  UNL1        0.2162
     11 C          -7.6247  -19.6563   20.2886 C.3     1  UNL1        0.1027
     12 C          -9.9946  -19.6826   19.2243 C.3     1  UNL1        0.0859
     13 N          -8.6416  -19.0508   19.3671 N.3     1  UNL1       -0.2942
     14 H          -8.7954  -18.0943   19.6859 H       1  UNL1        0.1234
     15 O          -9.1056  -17.3767   21.5579 O.3     1  UNL1       -0.4702
     16 C         -10.2352  -17.7780   22.4597 C.ar    1  UNL1        0.1622
     17 C         -11.6180  -17.2541   22.2082 C.ar    1  UNL1        0.0144
     18 C         -11.8713  -16.3289   21.0549 C.3     1  UNL1        0.0343
     19 C         -12.7475  -17.6553   23.1099 C.ar    1  UNL1       -0.0011
     20 C         -12.4942  -18.5805   24.2631 C.ar    1  UNL1        0.0022
     21 C         -11.1113  -19.1044   24.5146 C.ar    1  UNL1        0.0328
     22 C          -9.9818  -18.7032   23.6129 C.ar    1  UNL1        0.1735
     23 F          -9.3338  -19.0718   23.8951 F       1  UNL1       -0.2010
@<TRIPOS>BOND
     1    12    13    1
     2    13    11    1
     3     1    11    1
     4     1     2    1
     5     2     3    1
     6     3     4    1
     7     4     5   ar
     8     5     6   ar
     9     6     7   ar
    10     7     8   ar
    11     8     9   ar
    12     9    10    1
    13    10    15    1
    14    15    16    1
    15    16    17   ar
    16    17    18    1
    17    17    19   ar
    18    19    20   ar
    19    20    21   ar
    20    21    22   ar
    21    22    23    1
    22    10     1    1
    23    22    16   ar
    24     9     4   ar
    25    13    14    1
@<TRIPOS>MOLECULE
*****
 23 25 0 0 0
SMALL
GASTEIGER

@<TRIPOS>ATOM
      1 C          -6.5428  -16.6207   23.6727 C.3     1  UNL1        0.1753
      2 O          -5.0679  -16.3934   23.5202 O.3     1  UNL1       -0.3460
      3 C          -4.2493  -17.3230   22.6743 C.3     1  UNL1        0.1685
      4 C          -4.9055  -18.4800   21.9807 C.ar    1  UNL1        0.0067
      5 C          -4.0869  -19.4095   21.1348 C.ar    1  UNL1       -0.0021
      6 C          -4.7431  -20.5664   20.4413 C.ar    1  UNL1       -0.0003
      7 C          -6.2179  -20.7937   20.5937 C.ar    1  UNL1       -0.0002
      8 C          -7.0365  -19.8642   21.4397 C.ar    1  UNL1       -0.0010
      9 C          -6.3803  -18.7073   22.1332 C.ar    1  UNL1        0.0181
     10 C          -7.1990  -17.7776   22.9792 C.3     1  UNL1        0.2162
     11 C          -7.3614  -15.6910   24.5187 C.3     1  UNL1        0.1027
     12 C          -8.1696  -16.0956   26.9544 C.3     1  UNL1        0.0859
     13 N          -8.3748  -16.2445   25.4760 N.3     1  UNL1       -0.2942
     14 H          -9.2639  -15.7959   25.2555 H       1  UNL1        0.1234
     15 O          -8.6738  -18.0049   23.1316 O.3     1  UNL1       -0.4702
     16 C          -9.6186  -17.5409   22.0629 C.ar    1  UNL1        0.1622
     17 C         -10.6234  -18.4930   21.4852 C.ar    1  UNL1        0.0144
     18 C         -10.6835  -19.9091   21.9762 C.3     1  UNL1        0.0343
     19 C         -11.5682  -18.0290   20.4165 C.ar    1  UNL1       -0.0011
     20 C         -11.5081  -16.6129   19.9256 C.ar    1  UNL1        0.0022
     21 C         -10.5033  -15.6608   20.5033 C.ar    1  UNL1        0.0328
     22 C          -9.5585  -16.1248   21.5720 C.ar    1  UNL1        0.1735
     23 F          -9.1060  -15.4942   21.7541 F       1  UNL1       -0.2010
@<TRIPOS>BOND
     1    12    13    1
     2    13    11    1
     3     1    11    1
     4     1     2    1
     5     2     3    1
     6     3     4    1
     7     4     5   ar
     8     5     6   ar
     9     6     7   ar
    10     7     8   ar
    11     8     9   ar
    12     9    10    1
    13    10    15    1
    14    15    16    1
    15    16    17   ar
    16    17    18    1
    17    17    19   ar
    18    19    20   ar
    19    20    21   ar
    20    21    22   ar
    21    22    23    1
    22    10     1    1
    23    22    16   ar
    24     9     4   ar
    25    13    14    1
@<TRIPOS>MOLECULE
*****
 23 25 0 0 0
SMALL
GASTEIGER

@<TRIPOS>ATOM
      1 C          -6.7602  -16.8698   23.2408 C.3     1  UNL1        0.1753
      2 O          -5.6205  -17.6954   22.7215 O.3     1  UNL1       -0.3460
      3 C          -5.8461  -18.6621   21.5970 C.3     1  UNL1        0.1685
      4 C          -7.2113  -18.8033   20.9918 C.ar    1  UNL1        0.0067
      5 C          -7.4368  -19.7700   19.8673 C.ar    1  UNL1       -0.0021
      6 C          -8.8020  -19.9112   19.2621 C.ar    1  UNL1       -0.0003
      7 C          -9.9416  -19.0856   19.7814 C.ar    1  UNL1       -0.0002
      8 C          -9.7161  -18.1189   20.9058 C.ar    1  UNL1       -0.0010
      9 C          -8.3509  -17.9777   21.5110 C.ar    1  UNL1        0.0181
     10 C          -8.1254  -17.0110   22.6356 C.3     1  UNL1        0.2162
     11 C          -6.5346  -15.9030   24.3654 C.3     1  UNL1        0.1027
     12 C          -7.0507  -15.5301   26.8841 C.3     1  UNL1        0.0859
     13 N          -7.5236  -15.8164   25.4898 N.3     1  UNL1       -0.2942
     14 H          -8.1836  -15.0782   25.2452 H       1  UNL1        0.1234
     15 O          -9.2650  -16.1854   23.1549 O.3     1  UNL1       -0.4702
     16 C         -10.6306  -16.7917   23.2882 C.ar    1  UNL1        0.1622
     17 C         -10.8480  -17.9548   24.2101 C.ar    1  UNL1        0.0144
     18 C          -9.6999  -18.5117   24.9986 C.3     1  UNL1        0.0343
     19 C         -12.2135  -18.5611   24.3434 C.ar    1  UNL1       -0.0011
     20 C         -13.3616  -18.0042   23.5548 C.ar    1  UNL1        0.0022
     21 C         -13.1441  -16.8411   22.6330 C.ar    1  UNL1        0.0328
     22 C         -11.7786  -16.2348   22.4996 C.ar    1  UNL1        0.1735
     23 F         -11.8531  -15.6387   21.9756 F       1  UNL1       -0.2010
@<TRIPOS>BOND
     1    12    13    1
     2    13    11    1
     3     1    11    1
     4     1     2    1
     5     2     3    1
     6     3     4    1
     7     4     5   ar
     8     5     6   ar
     9     6     7   ar
    10     7     8   ar
    11     8     9   ar
    12     9    10    1
    13    10    15    1
    14    15    16    1
    15    16    17   ar
    16    17    18    1
    17    17    19   ar
    18    19    20   ar
    19    20    21   ar
    20    21    22   ar
    21    22    23    1
    22    10     1    1
    23    22    16   ar
    24     9     4   ar
    25    13    14    1
@<TRIPOS>MOLECULE
*****
 23 25 0 0 0
SMALL
GASTEIGER

@<TRIPOS>ATOM
      1 C          -7.9917  -19.1867   20.2280 C.3     1  UNL1        0.1753
      2 O          -9.0387  -19.0951   19.1578 O.3     1  UNL1       -0.3460
      3 C         -10.4576  -18.7732   19.5223 C.3     1  UNL1        0.1685
      4 C         -10.8297  -18.5428   20.9571 C.ar    1  UNL1        0.0067
      5 C         -12.2486  -18.2209   21.3215 C.ar    1  UNL1       -0.0021
      6 C         -12.6206  -17.9906   22.7563 C.ar    1  UNL1       -0.0003
      7 C         -11.5737  -18.0823   23.8266 C.ar    1  UNL1       -0.0002
      8 C         -10.1547  -18.4042   23.4621 C.ar    1  UNL1       -0.0010
      9 C          -9.7827  -18.6345   22.0273 C.ar    1  UNL1        0.0181
     10 C          -8.3637  -18.9564   21.6628 C.3     1  UNL1        0.2162
     11 C          -6.5727  -19.5086   19.8635 C.3     1  UNL1        0.1027
     12 C          -4.1545  -18.7060   19.3559 C.3     1  UNL1        0.0859
     13 N          -5.6116  -18.4028   19.5418 N.3     1  UNL1       -0.2942
     14 H          -5.9360  -17.9735   18.6753 H       1  UNL1        0.1234
     15 O          -7.3167  -19.0480   22.7330 O.3     1  UNL1       -0.4702
     16 C          -6.4816  -17.8483   23.0699 C.ar    1  UNL1        0.1622
     17 C          -4.9852  -17.9528   23.0719 C.ar    1  UNL1        0.0144
     18 C          -4.3240  -19.2569   22.7370 C.3     1  UNL1        0.0343
     19 C          -4.1501  -16.7532   23.4087 C.ar    1  UNL1       -0.0011
     20 C          -4.8113  -15.4491   23.7435 C.ar    1  UNL1        0.0022
     21 C          -6.3077  -15.3447   23.7416 C.ar    1  UNL1        0.0328
     22 C          -7.1428  -16.5442   23.4047 C.ar    1  UNL1        0.1735
     23 F          -7.9015  -16.3045   23.4536 F       1  UNL1       -0.2010
@<TRIPOS>BOND
     1    12    13    1
     2    13    11    1
     3     1    11    1
     4     1     2    1
     5     2     3    1
     6     3     4    1
     7     4     5   ar
     8     5     6   ar
     9     6     7   ar
    10     7     8   ar
    11     8     9   ar
    12     9    10    1
    13    10    15    1
    14    15    16    1
    15    16    17   ar
    16    17    18    1
    17    17    19   ar
    18    19    20   ar
    19    20    21   ar
    20    21    22   ar
    21    22    23    1
    22    10     1    1
    23    22    16   ar
    24     9     4   ar
    25    13    14    1
@<TRIPOS>MOLECULE
*****
 23 25 0 0 0
SMALL
GASTEIGER

@<TRIPOS>ATOM
      1 C          -7.7400  -15.5403   22.6190 C.3     1  UNL1        0.1753
      2 O          -6.2961  -15.1863   22.8187 O.3     1  UNL1       -0.3460
      3 C          -5.7134  -15.1647   24.2007 C.3     1  UNL1        0.1685
      4 C          -6.5746  -15.4971   25.3831 C.ar    1  UNL1        0.0067
      5 C          -5.9919  -15.4756   26.7651 C.ar    1  UNL1       -0.0021
      6 C          -6.8531  -15.8080   27.9474 C.ar    1  UNL1       -0.0003
      7 C          -8.2969  -16.1619   27.7477 C.ar    1  UNL1       -0.0002
      8 C          -8.8796  -16.1835   26.3657 C.ar    1  UNL1       -0.0010
      9 C          -8.0185  -15.8511   25.1834 C.ar    1  UNL1        0.0181
     10 C          -8.6012  -15.8727   23.8013 C.3     1  UNL1        0.2162
     11 C          -8.3227  -15.5618   21.2369 C.3     1  UNL1        0.1027
     12 C          -8.9146  -13.5453   19.7097 C.3     1  UNL1        0.0859
     13 N          -9.2850  -14.4927   20.8120 N.3     1  UNL1       -0.2942
     14 H         -10.1400  -14.9656   20.5190 H       1  UNL1        0.1234
     15 O         -10.0450  -16.2266   23.6016 O.3     1  UNL1       -0.4702
     16 C         -10.4184  -17.5702   23.0488 C.ar    1  UNL1        0.1622
     17 C         -11.4365  -17.6734   21.9522 C.ar    1  UNL1        0.0144
     18 C         -12.0814  -16.4331   21.4083 C.3     1  UNL1        0.0343
     19 C         -11.8099  -19.0169   21.3994 C.ar    1  UNL1       -0.0011
     20 C         -11.1650  -20.2572   21.9432 C.ar    1  UNL1        0.0022
     21 C         -10.1468  -20.1540   23.0399 C.ar    1  UNL1        0.0328
     22 C          -9.7735  -18.8105   23.5927 C.ar    1  UNL1        0.1735
     23 F          -9.2283  -18.9491   24.1575 F       1  UNL1       -0.2010
@<TRIPOS>BOND
     1    12    13    1
     2    13    11    1
     3     1    11    1
     4     1     2    1
     5     2     3    1
     6     3     4    1
     7     4     5   ar
     8     5     6   ar
     9     6     7   ar
    10     7     8   ar
    11     8     9   ar
    12     9    10    1
    13    10    15    1
    14    15    16    1
    15    16    17   ar
    16    17    18    1
    17    17    19   ar
    18    19    20   ar
    19    20    21   ar
    20    21    22   ar
    21    22    23    1
    22    10     1    1
    23    22    16   ar
    24     9     4   ar
    25    13    14    1
@<TRIPOS>MOLECULE
*****
 23 25 0 0 0
SMALL
GASTEIGER

@<TRIPOS>ATOM
      1 C          -8.9937  -17.4625   21.4887 C.3     1  UNL1        0.1753
      2 O          -8.9301  -18.7073   20.6541 O.3     1  UNL1       -0.3460
      3 C          -7.6785  -19.5338   20.6343 C.3     1  UNL1        0.1685
      4 C          -6.4905  -19.1155   21.4490 C.ar    1  UNL1        0.0067
      5 C          -5.2389  -19.9419   21.4291 C.ar    1  UNL1       -0.0021
      6 C          -4.0510  -19.5236   22.2438 C.ar    1  UNL1       -0.0003
      7 C          -4.1146  -18.2789   23.0783 C.ar    1  UNL1       -0.0002
      8 C          -5.3662  -17.4524   23.0982 C.ar    1  UNL1       -0.0010
      9 C          -6.5541  -17.8707   22.2835 C.ar    1  UNL1        0.0181
     10 C          -7.8058  -17.0442   22.3034 C.3     1  UNL1        0.2162
     11 C         -10.2454  -16.6360   21.5085 C.3     1  UNL1        0.1027
     12 C         -11.5428  -15.7956   19.4205 C.3     1  UNL1        0.0859
     13 N         -10.4735  -15.5949   20.4531 N.3     1  UNL1       -0.2942
     14 H         -10.6933  -14.7257   20.9395 H       1  UNL1        0.1234
     15 O          -7.8694  -15.7994   23.1379 O.3     1  UNL1       -0.4702
     16 C          -7.6352  -15.8757   24.6176 C.ar    1  UNL1        0.1622
     17 C          -8.5866  -16.6410   25.4890 C.ar    1  UNL1        0.0144
     18 C          -9.7721  -17.3299   24.8807 C.3     1  UNL1        0.0343
     19 C          -8.3525  -16.7173   26.9686 C.ar    1  UNL1       -0.0011
     20 C          -7.1670  -16.0284   27.5768 C.ar    1  UNL1        0.0022
     21 C          -6.2156  -15.2632   26.7054 C.ar    1  UNL1        0.0328
     22 C          -6.4497  -15.1868   25.2258 C.ar    1  UNL1        0.1735
     23 F          -5.8538  -14.7467   24.9315 F       1  UNL1       -0.2010
@<TRIPOS>BOND
     1    12    13    1
     2    13    11    1
     3     1    11    1
     4     1     2    1
     5     2     3    1
     6     3     4    1
     7     4     5   ar
     8     5     6   ar
     9     6     7   ar
    10     7     8   ar
    11     8     9   ar
    12     9    10    1
    13    10    15    1
    14    15    16    1
    15    16    17   ar
    16    17    18    1
    17    17    19   ar
    18    19    20   ar
    19    20    21   ar
    20    21    22   ar
    21    22    23    1
    22    10     1    1
    23    22    16   ar
    24     9     4   ar
    25    13    14    1
