@<TRIPOS>MOLECULE
*****
 23 25 0 0 0
SMALL
GASTEIGER

@<TRIPOS>ATOM
      1 C          -7.7787  -18.1720   22.1383 C.2     1  UNL1       -0.0420
      2 C          -8.4447  -16.8623   22.4401 C.2     1  UNL1       -0.0240
      3 C          -9.9096  -17.0102   22.1534 C.ar    1  UNL1       -0.0078
      4 C         -11.0564  -16.0501   22.2665 C.ar    1  UNL1       -0.0006
      5 C         -12.4426  -16.4911   21.9008 C.ar    1  UNL1       -0.0000
      6 C         -12.6820  -17.8923   21.4218 C.ar    1  UNL1       -0.0003
      7 C         -11.5352  -18.8525   21.3087 C.ar    1  UNL1       -0.0040
      8 C         -10.1489  -18.4114   21.6744 C.ar    1  UNL1       -0.0184
      9 C          -8.8320  -19.1294   21.6651 C.3     1  UNL1        0.0480
     10 C          -6.3162  -18.4718   22.2842 C.3     1  UNL1        0.0394
     11 C          -5.5867  -19.1969   21.1924 C.3     1  UNL1        0.0765
     12 N          -4.1655  -18.8384   20.8735 N.3     1  UNL1       -0.2712
     13 C          -3.7287  -18.7026   19.4449 C.3     1  UNL1        0.0896
     14 C          -3.1811  -18.6157   21.9832 C.3     1  UNL1        0.0721
     15 C          -2.0821  -16.2749   21.7329 C.3     1  UNL1        0.0015
     16 C          -2.9414  -17.2305   22.5064 C.3     1  UNL1        0.0173
     17 C          -7.7651  -15.6223   22.9406 C.3     1  UNL1        0.0730
     18 C          -7.3881  -15.5059   24.3879 C.ar    1  UNL1        0.0825
     19 C          -8.4318  -15.6792   25.4511 C.ar    1  UNL1        0.1139
     20 N          -8.0549  -15.5628   26.8983 N.ar    1  UNL1       -0.2394
     21 C          -6.6341  -15.2730   27.2822 C.ar    1  UNL1        0.1195
     22 C          -5.5904  -15.0997   26.2190 C.ar    1  UNL1        0.1191
     23 N          -5.9673  -15.2161   24.7718 N.ar    1  UNL1       -0.2446
@<TRIPOS>BOND
     1    15    16    1
     2    16    14    1
     3    14    12    1
     4    12    13    1
     5    12    11    1
     6    11    10    1
     7    10     1    1
     8     1     2    2
     9     2    17    1
    10    17    18    1
    11    18    19   ar
    12    19    20   ar
    13    20    21   ar
    14    21    22   ar
    15    22    23   ar
    16     2     3    1
    17     3     4   ar
    18     4     5   ar
    19     5     6   ar
    20     6     7   ar
    21     7     8   ar
    22     8     9    1
    23     9     1    1
    24    23    18   ar
    25     8     3   ar
@<TRIPOS>MOLECULE
*****
 23 25 0 0 0
SMALL
GASTEIGER

@<TRIPOS>ATOM
      1 C          -7.8453  -18.4078   21.4665 C.2     1  UNL1       -0.0420
      2 C          -6.4368  -18.5467   21.9634 C.2     1  UNL1       -0.0240
      3 C          -6.1783  -17.4378   22.9399 C.ar    1  UNL1       -0.0078
      4 C          -4.9672  -17.0721   23.7458 C.ar    1  UNL1       -0.0006
      5 C          -5.0047  -15.8822   24.6582 C.ar    1  UNL1       -0.0000
      6 C          -6.2534  -15.0579   24.7648 C.ar    1  UNL1       -0.0003
      7 C          -7.4645  -15.4236   23.9589 C.ar    1  UNL1       -0.0040
      8 C          -7.4270  -16.6135   23.0465 C.ar    1  UNL1       -0.0184
      9 C          -8.4572  -17.2130   22.1359 C.3     1  UNL1        0.0480
     10 C          -8.5228  -19.3059   20.4744 C.3     1  UNL1        0.0394
     11 C          -9.9391  -19.0341   20.0616 C.3     1  UNL1        0.0765
     12 N         -11.0381  -19.0722   21.0817 N.3     1  UNL1       -0.2712
     13 C         -12.1056  -18.0185   21.0738 C.3     1  UNL1        0.0896
     14 C         -11.0696  -20.1640   22.1098 C.3     1  UNL1        0.0721
     15 C          -9.4162  -20.5153   24.0828 C.3     1  UNL1        0.0015
     16 C         -10.6522  -19.8771   23.5217 C.3     1  UNL1        0.0173
     17 C          -5.4586  -19.6081   21.5555 C.3     1  UNL1        0.0730
     18 C          -4.1258  -19.2210   20.9862 C.ar    1  UNL1        0.0825
     19 C          -2.8634  -19.6591   21.6676 C.ar    1  UNL1        0.1139
     20 N          -1.5307  -19.2721   21.0984 N.ar    1  UNL1       -0.2394
     21 C          -1.4605  -18.4469   19.8477 C.ar    1  UNL1        0.1195
     22 C          -2.7229  -18.0087   19.1664 C.ar    1  UNL1        0.1191
     23 N          -4.0556  -18.3958   19.7356 N.ar    1  UNL1       -0.2446
@<TRIPOS>BOND
     1    15    16    1
     2    16    14    1
     3    14    12    1
     4    12    13    1
     5    12    11    1
     6    11    10    1
     7    10     1    1
     8     1     2    2
     9     2    17    1
    10    17    18    1
    11    18    19   ar
    12    19    20   ar
    13    20    21   ar
    14    21    22   ar
    15    22    23   ar
    16     2     3    1
    17     3     4   ar
    18     4     5   ar
    19     5     6   ar
    20     6     7   ar
    21     7     8   ar
    22     8     9    1
    23     9     1    1
    24    23    18   ar
    25     8     3   ar
@<TRIPOS>MOLECULE
*****
 23 25 0 0 0
SMALL
GASTEIGER

@<TRIPOS>ATOM
      1 C          -9.7968  -18.0092   24.5502 C.2     1  UNL1       -0.0420
      2 C          -8.7265  -17.2497   23.8239 C.2     1  UNL1       -0.0240
      3 C          -7.9232  -16.4939   24.8406 C.ar    1  UNL1       -0.0078
      4 C          -6.7433  -15.5772   24.7078 C.ar    1  UNL1       -0.0006
      5 C          -6.1374  -14.9530   25.9297 C.ar    1  UNL1       -0.0000
      6 C          -6.7113  -15.2454   27.2844 C.ar    1  UNL1       -0.0003
      7 C          -7.8911  -16.1621   27.4172 C.ar    1  UNL1       -0.0040
      8 C          -8.4971  -16.7863   26.1953 C.ar    1  UNL1       -0.0184
      9 C          -9.6550  -17.7228   26.0158 C.3     1  UNL1        0.0480
     10 C         -10.8279  -18.8988   23.9214 C.3     1  UNL1        0.0394
     11 C         -12.1299  -18.3217   23.4507 C.3     1  UNL1        0.0765
     12 N         -12.1439  -17.2995   22.3529 N.3     1  UNL1       -0.2712
     13 C         -12.2123  -15.8392   22.6888 C.3     1  UNL1        0.0896
     14 C         -12.0896  -17.7377   20.9194 C.3     1  UNL1        0.0721
     15 C         -11.7810  -15.7513   19.2735 C.3     1  UNL1        0.0015
     16 C         -11.2430  -16.9846   19.9365 C.3     1  UNL1        0.0173
     17 C          -8.4993  -17.2465   22.3412 C.3     1  UNL1        0.0730
     18 C          -7.5233  -18.2078   21.7299 C.ar    1  UNL1        0.0825
     19 C          -7.9758  -19.1578   20.6610 C.ar    1  UNL1        0.1139
     20 N          -7.0000  -20.1190   20.0497 N.ar    1  UNL1       -0.2394
     21 C          -5.5716  -20.1302   20.5074 C.ar    1  UNL1        0.1195
     22 C          -5.1191  -19.1802   21.5763 C.ar    1  UNL1        0.1191
     23 N          -6.0949  -18.2189   22.1876 N.ar    1  UNL1       -0.2446
@<TRIPOS>BOND
     1    15    16    1
     2    16    14    1
     3    14    12    1
     4    12    13    1
     5    12    11    1
     6    11    10    1
     7    10     1    1
     8     1     2    2
     9     2    17    1
    10    17    18    1
    11    18    19   ar
    12    19    20   ar
    13    20    21   ar
    14    21    22   ar
    15    22    23   ar
    16     2     3    1
    17     3     4   ar
    18     4     5   ar
    19     5     6   ar
    20     6     7   ar
    21     7     8   ar
    22     8     9    1
    23     9     1    1
    24    23    18   ar
    25     8     3   ar
@<TRIPOS>MOLECULE
*****
 23 25 0 0 0
SMALL
GASTEIGER

@<TRIPOS>ATOM
      1 C          -9.6074  -18.8222   23.0877 C.2     1  UNL1       -0.0420
      2 C          -8.4057  -18.1412   22.5028 C.2     1  UNL1       -0.0240
      3 C          -7.9449  -17.0972   23.4763 C.ar    1  UNL1       -0.0078
      4 C          -6.8089  -16.1186   23.4356 C.ar    1  UNL1       -0.0006
      5 C          -6.5897  -15.1758   24.5815 C.ar    1  UNL1       -0.0000
      6 C          -7.5067  -15.2116   25.7681 C.ar    1  UNL1       -0.0003
      7 C          -8.6427  -16.1902   25.8088 C.ar    1  UNL1       -0.0040
      8 C          -8.8618  -17.1330   24.6629 C.ar    1  UNL1       -0.0184
      9 C          -9.8893  -18.1991   24.4227 C.3     1  UNL1        0.0480
     10 C         -10.3899  -19.9315   22.4496 C.3     1  UNL1        0.0394
     11 C         -11.1417  -19.6826   21.1758 C.3     1  UNL1        0.0765
     12 N         -11.7313  -18.3302   20.9048 N.3     1  UNL1       -0.2712
     13 C         -11.0501  -17.3922   19.9528 C.3     1  UNL1        0.0896
     14 C         -13.0018  -17.9158   21.5859 C.3     1  UNL1        0.0721
     15 C         -13.7473  -18.0014   24.0732 C.3     1  UNL1        0.0015
     16 C         -12.9586  -17.3518   22.9751 C.3     1  UNL1        0.0173
     17 C          -7.7754  -18.4499   21.1771 C.3     1  UNL1        0.0730
     18 C          -6.3295  -18.8431   21.1075 C.ar    1  UNL1        0.0825
     19 C          -5.6451  -19.4022   22.3196 C.ar    1  UNL1        0.1139
     20 N          -4.1993  -19.7954   22.2500 N.ar    1  UNL1       -0.2394
     21 C          -3.4378  -19.6295   20.9684 C.ar    1  UNL1        0.1195
     22 C          -4.1222  -19.0705   19.7563 C.ar    1  UNL1        0.1191
     23 N          -5.5680  -18.6772   19.8258 N.ar    1  UNL1       -0.2446
@<TRIPOS>BOND
     1    15    16    1
     2    16    14    1
     3    14    12    1
     4    12    13    1
     5    12    11    1
     6    11    10    1
     7    10     1    1
     8     1     2    2
     9     2    17    1
    10    17    18    1
    11    18    19   ar
    12    19    20   ar
    13    20    21   ar
    14    21    22   ar
    15    22    23   ar
    16     2     3    1
    17     3     4   ar
    18     4     5   ar
    19     5     6   ar
    20     6     7   ar
    21     7     8   ar
    22     8     9    1
    23     9     1    1
    24    23    18   ar
    25     8     3   ar
@<TRIPOS>MOLECULE
*****
 23 25 0 0 0
SMALL
GASTEIGER

@<TRIPOS>ATOM
      1 C          -6.2692  -18.2059   22.4029 C.2     1  UNL1       -0.0420
      2 C          -6.1767  -19.1997   21.2831 C.2     1  UNL1       -0.0240
      3 C          -7.5216  -19.2822   20.6241 C.ar    1  UNL1       -0.0078
      4 C          -8.0245  -20.0939   19.4674 C.ar    1  UNL1       -0.0006
      5 C          -9.4511  -19.9629   19.0231 C.ar    1  UNL1       -0.0000
      6 C         -10.3749  -19.0200   19.7355 C.ar    1  UNL1       -0.0003
      7 C          -9.8721  -18.2083   20.8923 C.ar    1  UNL1       -0.0040
      8 C          -8.4455  -18.3393   21.3366 C.ar    1  UNL1       -0.0184
      9 C          -7.6714  -17.6742   22.4359 C.3     1  UNL1        0.0480
     10 C          -5.1552  -17.8129   23.3273 C.3     1  UNL1        0.0394
     11 C          -4.9291  -16.3672   23.6571 C.3     1  UNL1        0.0765
     12 N          -5.8208  -15.6749   24.6448 N.3     1  UNL1       -0.2712
     13 C          -7.0061  -14.8911   24.1642 C.3     1  UNL1        0.0896
     14 C          -5.5274  -15.7664   26.1129 C.3     1  UNL1        0.0721
     15 C          -7.7823  -16.1614   27.3414 C.3     1  UNL1        0.0015
     16 C          -6.5565  -15.3278   27.1122 C.3     1  UNL1        0.0173
     17 C          -4.9538  -19.9750   20.8911 C.3     1  UNL1        0.0730
     18 C          -3.7248  -19.2520   20.4254 C.ar    1  UNL1        0.0825
     19 C          -2.3861  -19.5960   21.0082 C.ar    1  UNL1        0.1139
     20 N          -1.1571  -18.8732   20.5425 N.ar    1  UNL1       -0.2394
     21 C          -1.2668  -17.8062   19.4939 C.ar    1  UNL1        0.1195
     22 C          -2.6054  -17.4621   18.9111 C.ar    1  UNL1        0.1191
     23 N          -3.8344  -18.1850   19.3768 N.ar    1  UNL1       -0.2446
@<TRIPOS>BOND
     1    15    16    1
     2    16    14    1
     3    14    12    1
     4    12    13    1
     5    12    11    1
     6    11    10    1
     7    10     1    1
     8     1     2    2
     9     2    17    1
    10    17    18    1
    11    18    19   ar
    12    19    20   ar
    13    20    21   ar
    14    21    22   ar
    15    22    23   ar
    16     2     3    1
    17     3     4   ar
    18     4     5   ar
    19     5     6   ar
    20     6     7   ar
    21     7     8   ar
    22     8     9    1
    23     9     1    1
    24    23    18   ar
    25     8     3   ar
@<TRIPOS>MOLECULE
*****
 23 25 0 0 0
SMALL
GASTEIGER

@<TRIPOS>ATOM
      1 C          -8.5837  -19.5393   20.3242 C.2     1  UNL1       -0.0420
      2 C          -7.9709  -19.1776   21.6446 C.2     1  UNL1       -0.0240
      3 C          -6.4867  -19.3639   21.5334 C.ar    1  UNL1       -0.0078
      4 C          -5.3731  -19.1610   22.5177 C.ar    1  UNL1       -0.0006
      5 C          -3.9551  -19.4348   22.1127 C.ar    1  UNL1       -0.0000
      6 C          -3.6505  -19.9117   20.7235 C.ar    1  UNL1       -0.0003
      7 C          -4.7641  -20.1146   19.7393 C.ar    1  UNL1       -0.0040
      8 C          -6.1821  -19.8408   20.1442 C.ar    1  UNL1       -0.0184
      9 C          -7.4782  -19.9492   19.3969 C.3     1  UNL1        0.0480
     10 C         -10.0454  -19.4984   19.9897 C.3     1  UNL1        0.0394
     11 C         -10.7028  -18.1914   19.6590 C.3     1  UNL1        0.0765
     12 N         -11.3128  -17.3615   20.7495 N.3     1  UNL1       -0.2712
     13 C         -10.8073  -15.9730   21.0073 C.3     1  UNL1        0.0896
     14 C         -12.4284  -17.9202   21.5821 C.3     1  UNL1        0.0721
     15 C         -12.3723  -18.4421   24.1266 C.3     1  UNL1        0.0015
     16 C         -12.5993  -17.4736   23.0039 C.3     1  UNL1        0.0173
     17 C          -8.7122  -18.7115   22.8625 C.3     1  UNL1        0.0730
     18 C          -8.4050  -17.3702   23.4599 C.ar    1  UNL1        0.0825
     19 C          -9.0138  -16.9769   24.7731 C.ar    1  UNL1        0.1139
     20 N          -8.7067  -15.6357   25.3705 N.ar    1  UNL1       -0.2394
     21 C          -7.7908  -14.6878   24.6545 C.ar    1  UNL1        0.1195
     22 C          -7.1820  -15.0812   23.3413 C.ar    1  UNL1        0.1191
     23 N          -7.4891  -16.4223   22.7439 N.ar    1  UNL1       -0.2446
@<TRIPOS>BOND
     1    15    16    1
     2    16    14    1
     3    14    12    1
     4    12    13    1
     5    12    11    1
     6    11    10    1
     7    10     1    1
     8     1     2    2
     9     2    17    1
    10    17    18    1
    11    18    19   ar
    12    19    20   ar
    13    20    21   ar
    14    21    22   ar
    15    22    23   ar
    16     2     3    1
    17     3     4   ar
    18     4     5   ar
    19     5     6   ar
    20     6     7   ar
    21     7     8   ar
    22     8     9    1
    23     9     1    1
    24    23    18   ar
    25     8     3   ar
@<TRIPOS>MOLECULE
*****
 23 25 0 0 0
SMALL
GASTEIGER

@<TRIPOS>ATOM
      1 C          -9.1739  -17.8151   21.5573 C.2     1  UNL1       -0.0420
      2 C          -7.9476  -17.2429   22.2043 C.2     1  UNL1       -0.0240
      3 C          -6.8076  -18.1841   21.9507 C.ar    1  UNL1       -0.0078
      4 C          -5.3618  -18.1396   22.3479 C.ar    1  UNL1       -0.0006
      5 C          -4.4378  -19.2490   21.9412 C.ar    1  UNL1       -0.0000
      6 C          -4.9596  -20.4030   21.1375 C.ar    1  UNL1       -0.0003
      7 C          -6.4053  -20.4475   20.7403 C.ar    1  UNL1       -0.0040
      8 C          -7.3293  -19.3381   21.1470 C.ar    1  UNL1       -0.0184
      9 C          -8.7918  -19.1100   20.9038 C.3     1  UNL1        0.0480
     10 C         -10.5421  -17.2003   21.5628 C.3     1  UNL1        0.0394
     11 C         -11.7426  -18.0447   21.8723 C.3     1  UNL1        0.0765
     12 N         -12.1992  -18.2074   23.2918 N.3     1  UNL1       -0.2712
     13 C         -13.6112  -17.8693   23.6689 C.3     1  UNL1        0.0896
     14 C         -11.2440  -18.7082   24.3342 C.3     1  UNL1        0.0721
     15 C          -9.3077  -20.4226   24.0860 C.3     1  UNL1        0.0015
     16 C         -10.7642  -20.1288   24.2913 C.3     1  UNL1        0.0173
     17 C          -7.8742  -15.9554   22.9705 C.3     1  UNL1        0.0730
     18 C          -7.6415  -15.9766   24.4522 C.ar    1  UNL1        0.0825
     19 C          -8.6822  -16.5517   25.3667 C.ar    1  UNL1        0.1139
     20 N          -8.4497  -16.5729   26.8483 N.ar    1  UNL1       -0.2394
     21 C          -7.1763  -16.0190   27.4156 C.ar    1  UNL1        0.1195
     22 C          -6.1357  -15.4438   26.5012 C.ar    1  UNL1        0.1191
     23 N          -6.3682  -15.4226   25.0195 N.ar    1  UNL1       -0.2446
@<TRIPOS>BOND
     1    15    16    1
     2    16    14    1
     3    14    12    1
     4    12    13    1
     5    12    11    1
     6    11    10    1
     7    10     1    1
     8     1     2    2
     9     2    17    1
    10    17    18    1
    11    18    19   ar
    12    19    20   ar
    13    20    21   ar
    14    21    22   ar
    15    22    23   ar
    16     2     3    1
    17     3     4   ar
    18     4     5   ar
    19     5     6   ar
    20     6     7   ar
    21     7     8   ar
    22     8     9    1
    23     9     1    1
    24    23    18   ar
    25     8     3   ar
@<TRIPOS>MOLECULE
*****
 23 25 0 0 0
SMALL
GASTEIGER

@<TRIPOS>ATOM
      1 C          -4.1810  -16.9873   23.0995 C.2     1  UNL1       -0.0420
      2 C          -4.1111  -18.2722   22.3288 C.2     1  UNL1       -0.0240
      3 C          -2.9159  -18.2061   21.4248 C.ar    1  UNL1       -0.0078
      4 C          -2.3501  -19.1819   20.4361 C.ar    1  UNL1       -0.0006
      5 C          -1.1156  -18.8318   19.6593 C.ar    1  UNL1       -0.0000
      6 C          -0.4468  -17.5060   19.8713 C.ar    1  UNL1       -0.0003
      7 C          -1.0126  -16.5302   20.8601 C.ar    1  UNL1       -0.0040
      8 C          -2.2471  -16.8803   21.6369 C.ar    1  UNL1       -0.0184
      9 C          -3.0290  -16.1270   22.6719 C.3     1  UNL1        0.0480
     10 C          -5.2204  -16.6260   24.1189 C.3     1  UNL1        0.0394
     11 C          -6.2230  -15.5513   23.8193 C.3     1  UNL1        0.0765
     12 N          -7.6707  -15.9034   23.6454 N.3     1  UNL1       -0.2712
     13 C          -8.2914  -15.8720   22.2802 C.3     1  UNL1        0.0896
     14 C          -8.4976  -16.2869   24.8366 C.3     1  UNL1        0.0721
     15 C          -7.6262  -15.9882   27.2659 C.3     1  UNL1        0.0015
     16 C          -8.4167  -15.4784   26.0975 C.3     1  UNL1        0.0173
     17 C          -5.0683  -19.4215   22.4421 C.3     1  UNL1        0.0730
     18 C          -6.4017  -19.3573   21.7580 C.ar    1  UNL1        0.0825
     19 C          -6.4739  -19.1623   20.2725 C.ar    1  UNL1        0.1139
     20 N          -7.8073  -19.0981   19.5884 N.ar    1  UNL1       -0.2394
     21 C          -9.0684  -19.2288   20.3899 C.ar    1  UNL1        0.1195
     22 C          -8.9962  -19.4238   21.8754 C.ar    1  UNL1        0.1191
     23 N          -7.6629  -19.4881   22.5595 N.ar    1  UNL1       -0.2446
@<TRIPOS>BOND
     1    15    16    1
     2    16    14    1
     3    14    12    1
     4    12    13    1
     5    12    11    1
     6    11    10    1
     7    10     1    1
     8     1     2    2
     9     2    17    1
    10    17    18    1
    11    18    19   ar
    12    19    20   ar
    13    20    21   ar
    14    21    22   ar
    15    22    23   ar
    16     2     3    1
    17     3     4   ar
    18     4     5   ar
    19     5     6   ar
    20     6     7   ar
    21     7     8   ar
    22     8     9    1
    23     9     1    1
    24    23    18   ar
    25     8     3   ar
@<TRIPOS>MOLECULE
*****
 23 25 0 0 0
SMALL
GASTEIGER

@<TRIPOS>ATOM
      1 C          -7.2694  -19.0744   22.2467 C.2     1  UNL1       -0.0420
      2 C          -6.5986  -17.8038   22.6776 C.2     1  UNL1       -0.0240
      3 C          -5.1162  -17.9980   22.5566 C.ar    1  UNL1       -0.0078
      4 C          -3.9582  -17.0882   22.8415 C.ar    1  UNL1       -0.0006
      5 C          -2.5546  -17.5691   22.6208 C.ar    1  UNL1       -0.0000
      6 C          -2.3091  -18.9598   22.1151 C.ar    1  UNL1       -0.0003
      7 C          -3.4671  -19.8696   21.8302 C.ar    1  UNL1       -0.0040
      8 C          -4.8707  -19.3887   22.0509 C.ar    1  UNL1       -0.0184
      9 C          -6.2014  -20.0540   21.8594 C.3     1  UNL1        0.0480
     10 C          -8.7483  -19.3221   22.2097 C.3     1  UNL1        0.0394
     11 C          -9.6034  -18.6076   21.2056 C.3     1  UNL1        0.0765
     12 N         -10.6009  -17.5847   21.6625 N.3     1  UNL1       -0.2712
     13 C         -11.2980  -16.7159   20.6578 C.3     1  UNL1        0.0896
     14 C         -10.9012  -17.4306   23.1240 C.3     1  UNL1        0.0721
     15 C         -13.4258  -17.8899   23.5305 C.3     1  UNL1        0.0015
     16 C         -11.9872  -18.2491   23.7569 C.3     1  UNL1        0.0173
     17 C          -7.2892  -16.5577   23.1471 C.3     1  UNL1        0.0730
     18 C          -7.2020  -16.1494   24.5879 C.ar    1  UNL1        0.0825
     19 C          -5.9638  -15.4780   25.1036 C.ar    1  UNL1        0.1139
     20 N          -5.8766  -15.0697   26.5443 N.ar    1  UNL1       -0.2394
     21 C          -7.0277  -15.3328   27.4693 C.ar    1  UNL1        0.1195
     22 C          -8.2660  -16.0042   26.9536 C.ar    1  UNL1        0.1191
     23 N          -8.3532  -16.4125   25.5129 N.ar    1  UNL1       -0.2446
@<TRIPOS>BOND
     1    15    16    1
     2    16    14    1
     3    14    12    1
     4    12    13    1
     5    12    11    1
     6    11    10    1
     7    10     1    1
     8     1     2    2
     9     2    17    1
    10    17    18    1
    11    18    19   ar
    12    19    20   ar
    13    20    21   ar
    14    21    22   ar
    15    22    23   ar
    16     2     3    1
    17     3     4   ar
    18     4     5   ar
    19     5     6   ar
    20     6     7   ar
    21     7     8   ar
    22     8     9    1
    23     9     1    1
    24    23    18   ar
    25     8     3   ar
