@<TRIPOS>MOLECULE
*****
 33 36 0 0 0
SMALL
GASTEIGER

@<TRIPOS>ATOM
      1 C           7.2643   -4.1435   22.7867 C.ar    1  UNL1        0.2020
      2 N           6.0300   -4.2713   21.9439 N.ar    1  UNL1       -0.1915
      3 C           6.3588   -3.7847   20.5637 C.ar    1  UNL1        0.2192
      4 N           7.7962   -3.3560   20.5534 N.ar    1  UNL1       -0.2185
      5 C           8.5429   -2.8028   19.3760 C.3     1  UNL1        0.1568
      6 N           8.3558   -3.5778   21.9273 N.ar    1  UNL1       -0.1459
      7 C           7.2740   -3.8552   26.7448 C.ar    1  UNL1        0.2417
      8 N           7.1526   -3.4828   25.2969 N.ar    1  UNL1       -0.2073
      9 C           7.3857   -4.5159   24.2347 C.ar    1  UNL1        0.1219
     10 C           7.7402   -5.9214   24.6204 C.ar    1  UNL1        0.0240
     11 C           7.8616   -6.2938   26.0683 C.ar    1  UNL1        0.0240
     12 C           7.6285   -5.2607   27.1305 C.ar    1  UNL1        0.1189
     13 N           7.7499   -5.6331   28.5785 N.ar    1  UNL1       -0.2826
     14 C           6.7051   -5.4218   29.6339 C.ar    1  UNL1        0.1826
     15 N           7.2469   -5.9403   30.9329 N.ar    1  UNL1       -0.2280
     16 C           8.6266   -6.4722   30.6804 C.ar    1  UNL1        0.0786
     17 C           9.5358   -7.0861   31.7034 C.3     1  UNL1        0.0538
     18 C           8.9374   -6.2823   29.2253 C.ar    1  UNL1        0.0963
     19 C           5.8024   -1.9765   27.7720 C.3     1  UNL1        0.2543
     20 O           7.0409   -2.8220   27.8070 O.3     1  UNL1       -0.4551
     21 N           5.4157   -3.7353   19.3983 N.pl3   1  UNL1       -0.2827
     22 H           5.2315   -4.5512   18.8791 H       1  UNL1        0.1551
     23 C           4.7531   -2.4427   19.0239 C.ar    1  UNL1        0.0527
     24 C           5.4328   -1.4981   18.0773 C.ar    1  UNL1        0.0443
     25 C           4.7702   -0.2055   17.7029 C.ar    1  UNL1        0.1413
     26 F           5.4499    0.7391   16.7565 F       1  UNL1       -0.2041
     27 C           3.4280    0.1425   18.2750 C.ar    1  UNL1        0.0336
     28 C           2.7483   -0.8020   19.2215 C.ar    1  UNL1        0.0749
     29 C           3.4109   -2.0946   19.5958 C.ar    1  UNL1        0.0187
     30 C           1.4060   -0.4540   19.7935 C.3     1  UNL1        0.4187
     31 F           0.0638   -0.1060   20.3656 F       1  UNL1       -0.1659
     32 F           1.7753   -1.1383   21.0763 F       1  UNL1       -0.1659
     33 F           1.0368    0.2303   18.5108 F       1  UNL1       -0.1659
@<TRIPOS>BOND
     1    19    20    1
     2    20     7    1
     3     7     8   ar
     4     8     9   ar
     5     9     1    1
     6     1     2   ar
     7     2     3   ar
     8     3    21    1
     9    21    23    1
    10    23    24   ar
    11    24    25   ar
    12    25    26    1
    13    25    27   ar
    14    27    28   ar
    15    28    30    1
    16    30    31    1
    17    30    32    1
    18    30    33    1
    19    28    29   ar
    20     3     4   ar
    21     4     5    1
    22     4     6   ar
    23     9    10   ar
    24    10    11   ar
    25    11    12   ar
    26    12    13    1
    27    13    14   ar
    28    14    15   ar
    29    15    16   ar
    30    16    17    1
    31    16    18   ar
    32    12     7   ar
    33    18    13   ar
    34     6     1   ar
    35    29    23   ar
    36    21    22    1
@<TRIPOS>MOLECULE
*****
 33 36 0 0 0
SMALL
GASTEIGER

@<TRIPOS>ATOM
      1 C           0.4402    1.7055   23.4069 C.ar    1  UNL1        0.2020
      2 N           0.8550    0.7958   22.2887 N.ar    1  UNL1       -0.1915
      3 C           0.3215    1.3637   21.0069 C.ar    1  UNL1        0.2192
      4 N          -0.4230    2.6245   21.3329 N.ar    1  UNL1       -0.2185
      5 C          -1.1187    3.5172   20.3485 C.3     1  UNL1        0.1568
      6 N          -0.3496    2.8357   22.8161 N.ar    1  UNL1       -0.1459
      7 C          -0.0286    1.1125   27.3028 C.ar    1  UNL1        0.2417
      8 N          -0.3476    1.2999   25.8492 N.ar    1  UNL1       -0.2073
      9 C           0.7592    1.5181   24.8606 C.ar    1  UNL1        0.1219
     10 C           2.1850    1.5487   25.3255 C.ar    1  UNL1        0.0240
     11 C           2.5039    1.3613   26.7792 C.ar    1  UNL1        0.0240
     12 C           1.3971    1.1431   27.7678 C.ar    1  UNL1        0.1189
     13 N           1.7161    0.9557   29.2215 N.ar    1  UNL1       -0.2826
     14 C           2.2488   -0.2963   29.8530 C.ar    1  UNL1        0.1826
     15 N           2.4203   -0.0385   31.3206 N.ar    1  UNL1       -0.2280
     16 C           1.9937    1.3730   31.5963 C.ar    1  UNL1        0.0786
     17 C           2.0010    2.0509   32.9343 C.3     1  UNL1        0.0538
     18 C           1.5584    1.9873   30.2989 C.ar    1  UNL1        0.0963
     19 C          -1.4217   -0.4858   28.8044 C.3     1  UNL1        0.2543
     20 O          -1.1354    0.8944   28.2915 O.3     1  UNL1       -0.4551
     21 N           0.5010    0.7743   19.6393 N.pl3   1  UNL1       -0.2827
     22 H          -0.2219    0.8437   18.9746 H       1  UNL1        0.1551
     23 C           1.7820    0.0792   19.2844 C.ar    1  UNL1        0.0527
     24 C           2.7596    0.7365   18.3557 C.ar    1  UNL1        0.0443
     25 C           4.0405    0.0414   18.0007 C.ar    1  UNL1        0.1413
     26 F           5.0181    0.6987   17.0721 F       1  UNL1       -0.2041
     27 C           4.3439   -1.3110   18.5744 C.ar    1  UNL1        0.0336
     28 C           3.3663   -1.9682   19.5030 C.ar    1  UNL1        0.0749
     29 C           2.0854   -1.2731   19.8580 C.ar    1  UNL1        0.0187
     30 C           3.6697   -3.3206   20.0767 C.3     1  UNL1        0.4187
     31 F           3.9731   -4.6729   20.6504 F       1  UNL1       -0.1659
     32 F           3.2201   -3.9637   18.7984 F       1  UNL1       -0.1659
     33 F           4.1194   -2.6774   21.3551 F       1  UNL1       -0.1659
@<TRIPOS>BOND
     1    19    20    1
     2    20     7    1
     3     7     8   ar
     4     8     9   ar
     5     9     1    1
     6     1     2   ar
     7     2     3   ar
     8     3    21    1
     9    21    23    1
    10    23    24   ar
    11    24    25   ar
    12    25    26    1
    13    25    27   ar
    14    27    28   ar
    15    28    30    1
    16    30    31    1
    17    30    32    1
    18    30    33    1
    19    28    29   ar
    20     3     4   ar
    21     4     5    1
    22     4     6   ar
    23     9    10   ar
    24    10    11   ar
    25    11    12   ar
    26    12    13    1
    27    13    14   ar
    28    14    15   ar
    29    15    16   ar
    30    16    17    1
    31    16    18   ar
    32    12     7   ar
    33    18    13   ar
    34     6     1   ar
    35    29    23   ar
    36    21    22    1
@<TRIPOS>MOLECULE
*****
 33 36 0 0 0
SMALL
GASTEIGER

@<TRIPOS>ATOM
      1 C          -0.2928    2.5639   20.6181 C.ar    1  UNL1        0.2020
      2 N           0.0869    1.1215   20.7769 N.ar    1  UNL1       -0.1915
      3 C           1.5543    1.0593   21.0818 C.ar    1  UNL1        0.2192
      4 N           2.0815    2.4634   21.1114 N.ar    1  UNL1       -0.2185
      5 C           3.5009    2.8667   21.3803 C.3     1  UNL1        0.1568
      6 N           0.9399    3.3932   20.8248 N.ar    1  UNL1       -0.1459
      7 C          -4.1570    3.3970   20.9706 C.ar    1  UNL1        0.2417
      8 N          -2.7854    2.8755   21.2815 N.ar    1  UNL1       -0.2073
      9 C          -1.6645    3.0854   20.3071 C.ar    1  UNL1        0.1219
     10 C          -1.9152    3.8169   19.0218 C.ar    1  UNL1        0.0240
     11 C          -3.2868    4.3384   18.7109 C.ar    1  UNL1        0.0240
     12 C          -4.4077    4.1285   19.6853 C.ar    1  UNL1        0.1189
     13 N          -5.7793    4.6500   19.3744 N.ar    1  UNL1       -0.2826
     14 C          -6.8544    3.9149   18.6301 C.ar    1  UNL1        0.1826
     15 N          -8.0561    4.8088   18.5489 N.ar    1  UNL1       -0.2280
     16 C          -7.7238    6.0965   19.2429 C.ar    1  UNL1        0.0786
     17 C          -8.6382    7.2753   19.3993 C.3     1  UNL1        0.0538
     18 C          -6.3167    5.9983   19.7531 C.ar    1  UNL1        0.0963
     19 C          -5.0216    3.2995   23.4187 C.3     1  UNL1        0.2543
     20 O          -5.2779    3.1870   21.9450 O.3     1  UNL1       -0.4551
     21 N           2.3541   -0.1879   21.3160 N.pl3   1  UNL1       -0.2827
     22 H           2.3933   -0.5858   22.2156 H       1  UNL1        0.1551
     23 C           3.0942   -0.8287   20.1795 C.ar    1  UNL1        0.0527
     24 C           3.6191    0.0150   19.0557 C.ar    1  UNL1        0.0443
     25 C           4.3592   -0.6259   17.9192 C.ar    1  UNL1        0.1413
     26 F           4.8841    0.2177   16.7955 F       1  UNL1       -0.2041
     27 C           4.5743   -2.1103   17.9065 C.ar    1  UNL1        0.0336
     28 C           4.0494   -2.9539   19.0302 C.ar    1  UNL1        0.0749
     29 C           3.3093   -2.3131   20.1667 C.ar    1  UNL1        0.0187
     30 C           4.2646   -4.4384   19.0174 C.3     1  UNL1        0.4187
     31 F           4.4797   -5.9228   19.0047 F       1  UNL1       -0.1659
     32 F           5.7159   -4.2308   19.3346 F       1  UNL1       -0.1659
     33 F           2.8132   -4.6460   18.7002 F       1  UNL1       -0.1659
@<TRIPOS>BOND
     1    19    20    1
     2    20     7    1
     3     7     8   ar
     4     8     9   ar
     5     9     1    1
     6     1     2   ar
     7     2     3   ar
     8     3    21    1
     9    21    23    1
    10    23    24   ar
    11    24    25   ar
    12    25    26    1
    13    25    27   ar
    14    27    28   ar
    15    28    30    1
    16    30    31    1
    17    30    32    1
    18    30    33    1
    19    28    29   ar
    20     3     4   ar
    21     4     5    1
    22     4     6   ar
    23     9    10   ar
    24    10    11   ar
    25    11    12   ar
    26    12    13    1
    27    13    14   ar
    28    14    15   ar
    29    15    16   ar
    30    16    17    1
    31    16    18   ar
    32    12     7   ar
    33    18    13   ar
    34     6     1   ar
    35    29    23   ar
    36    21    22    1
@<TRIPOS>MOLECULE
*****
 33 36 0 0 0
SMALL
GASTEIGER

@<TRIPOS>ATOM
      1 C           6.7194   -4.0875   22.9846 C.ar    1  UNL1        0.2020
      2 N           5.4902   -4.3683   22.1721 N.ar    1  UNL1       -0.1915
      3 C           5.7098   -3.8181   20.7940 C.ar    1  UNL1        0.2192
      4 N           7.0748   -3.1972   20.7549 N.ar    1  UNL1       -0.2185
      5 C           7.7051   -2.5275   19.5699 C.3     1  UNL1        0.1568
      6 N           7.6987   -3.3637   22.1088 N.ar    1  UNL1       -0.1459
      7 C           7.6286   -6.2168   26.2079 C.ar    1  UNL1        0.2417
      8 N           7.4160   -5.8400   24.7717 N.ar    1  UNL1       -0.2073
      9 C           6.9320   -4.4642   24.4210 C.ar    1  UNL1        0.1219
     10 C           6.6606   -3.4653   25.5065 C.ar    1  UNL1        0.0240
     11 C           6.8732   -3.8420   26.9427 C.ar    1  UNL1        0.0240
     12 C           7.3572   -5.2178   27.2934 C.ar    1  UNL1        0.1189
     13 N           7.5698   -5.5946   28.7297 N.ar    1  UNL1       -0.2826
     14 C           6.6053   -5.3611   29.8545 C.ar    1  UNL1        0.1826
     15 N           7.2237   -5.8932   31.1133 N.ar    1  UNL1       -0.2280
     16 C           8.5704   -6.4556   30.7665 C.ar    1  UNL1        0.0786
     17 C           9.5339   -7.0909   31.7245 C.3     1  UNL1        0.0538
     18 C           8.7843   -6.2710   29.2933 C.ar    1  UNL1        0.0963
     19 C           9.2967   -8.1754   25.8458 C.3     1  UNL1        0.2543
     20 O           8.1126   -7.5926   26.5586 O.3     1  UNL1       -0.4551
     21 N           4.7356   -3.8782   19.6551 N.pl3   1  UNL1       -0.2827
     22 H           4.4748   -4.7485   19.2758 H       1  UNL1        0.1551
     23 C           4.1586   -2.6124   19.0940 C.ar    1  UNL1        0.0527
     24 C           4.7893   -1.9674   17.8955 C.ar    1  UNL1        0.0443
     25 C           4.2123   -0.7015   17.3345 C.ar    1  UNL1        0.1413
     26 F           4.8429   -0.0565   16.1361 F       1  UNL1       -0.2041
     27 C           3.0046   -0.0808   17.9719 C.ar    1  UNL1        0.0336
     28 C           2.3740   -0.7258   19.1703 C.ar    1  UNL1        0.0749
     29 C           2.9510   -1.9916   19.7313 C.ar    1  UNL1        0.0187
     30 C           1.1663   -0.1050   19.8076 C.3     1  UNL1        0.4187
     31 F          -0.0413    0.5158   20.4450 F       1  UNL1       -0.1659
     32 F           1.0368    0.8355   18.6463 F       1  UNL1       -0.1659
     33 F           1.2958   -1.0455   20.9690 F       1  UNL1       -0.1659
@<TRIPOS>BOND
     1    19    20    1
     2    20     7    1
     3     7     8   ar
     4     8     9   ar
     5     9     1    1
     6     1     2   ar
     7     2     3   ar
     8     3    21    1
     9    21    23    1
    10    23    24   ar
    11    24    25   ar
    12    25    26    1
    13    25    27   ar
    14    27    28   ar
    15    28    30    1
    16    30    31    1
    17    30    32    1
    18    30    33    1
    19    28    29   ar
    20     3     4   ar
    21     4     5    1
    22     4     6   ar
    23     9    10   ar
    24    10    11   ar
    25    11    12   ar
    26    12    13    1
    27    13    14   ar
    28    14    15   ar
    29    15    16   ar
    30    16    17    1
    31    16    18   ar
    32    12     7   ar
    33    18    13   ar
    34     6     1   ar
    35    29    23   ar
    36    21    22    1
@<TRIPOS>MOLECULE
*****
 33 36 0 0 0
SMALL
GASTEIGER

@<TRIPOS>ATOM
      1 C           0.1640    2.1972   19.2747 C.ar    1  UNL1        0.2020
      2 N          -0.5388    2.8833   20.4084 N.ar    1  UNL1       -0.1915
      3 C          -1.3889    3.9770   19.8328 C.ar    1  UNL1        0.2192
      4 N          -1.2115    3.9669   18.3433 N.ar    1  UNL1       -0.2185
      5 C          -1.8769    4.8939   17.3698 C.3     1  UNL1        0.1568
      6 N          -0.2518    2.8669   17.9984 N.ar    1  UNL1       -0.1459
      7 C           2.9752   -0.4555   18.3746 C.ar    1  UNL1        0.2417
      8 N           2.0237    0.6978   18.2534 N.ar    1  UNL1       -0.2073
      9 C           1.1155    1.0439   19.3959 C.ar    1  UNL1        0.1219
     10 C           1.1586    0.2369   20.6595 C.ar    1  UNL1        0.0240
     11 C           2.1101   -0.9164   20.7806 C.ar    1  UNL1        0.0240
     12 C           3.0184   -1.2626   19.6382 C.ar    1  UNL1        0.1189
     13 N           3.9699   -2.4159   19.7594 N.ar    1  UNL1       -0.2826
     14 C           3.7055   -3.8265   19.3234 C.ar    1  UNL1        0.1826
     15 N           4.9250   -4.6434   19.6324 N.ar    1  UNL1       -0.2280
     16 C           5.9431   -3.7376   20.2594 C.ar    1  UNL1        0.0786
     17 C           7.3112   -4.1382   20.7260 C.3     1  UNL1        0.0538
     18 C           5.3527   -2.3609   20.3379 C.ar    1  UNL1        0.0963
     19 C           5.2171   -0.1273   17.1033 C.3     1  UNL1        0.2543
     20 O           3.8835   -0.8017   17.2321 O.3     1  UNL1       -0.4551
     21 N          -2.2629    4.9160   20.6102 N.pl3   1  UNL1       -0.2827
     22 H          -2.2984    5.8697   20.3682 H       1  UNL1        0.1551
     23 C          -3.0828    4.4021   21.7564 C.ar    1  UNL1        0.0527
     24 C          -4.5663    4.2395   21.6038 C.ar    1  UNL1        0.0443
     25 C          -5.3861    3.7256   22.7499 C.ar    1  UNL1        0.1413
     26 F          -6.8695    3.5629   22.5974 F       1  UNL1       -0.2041
     27 C          -4.7227    3.3742   24.0486 C.ar    1  UNL1        0.0336
     28 C          -3.2394    3.5369   24.2011 C.ar    1  UNL1        0.0749
     29 C          -2.4195    4.0508   23.0550 C.ar    1  UNL1        0.0187
     30 C          -2.5760    3.1856   25.4997 C.3     1  UNL1        0.4187
     31 F          -1.9125    2.8343   26.7984 F       1  UNL1       -0.1659
     32 F          -1.3261    2.8108   24.7599 F       1  UNL1       -0.1659
     33 F          -3.8258    3.5604   26.2396 F       1  UNL1       -0.1659
@<TRIPOS>BOND
     1    19    20    1
     2    20     7    1
     3     7     8   ar
     4     8     9   ar
     5     9     1    1
     6     1     2   ar
     7     2     3   ar
     8     3    21    1
     9    21    23    1
    10    23    24   ar
    11    24    25   ar
    12    25    26    1
    13    25    27   ar
    14    27    28   ar
    15    28    30    1
    16    30    31    1
    17    30    32    1
    18    30    33    1
    19    28    29   ar
    20     3     4   ar
    21     4     5    1
    22     4     6   ar
    23     9    10   ar
    24    10    11   ar
    25    11    12   ar
    26    12    13    1
    27    13    14   ar
    28    14    15   ar
    29    15    16   ar
    30    16    17    1
    31    16    18   ar
    32    12     7   ar
    33    18    13   ar
    34     6     1   ar
    35    29    23   ar
    36    21    22    1
@<TRIPOS>MOLECULE
*****
 33 36 0 0 0
SMALL
GASTEIGER

@<TRIPOS>ATOM
      1 C          -0.2909    2.6500   20.2434 C.ar    1  UNL1        0.2020
      2 N          -1.7493    2.4731   20.5465 N.ar    1  UNL1       -0.1915
      3 C          -2.3567    3.8346   20.7120 C.ar    1  UNL1        0.2192
      4 N          -1.2738    4.8529   20.5112 N.ar    1  UNL1       -0.2185
      5 C          -1.4387    6.3419   20.5868 C.3     1  UNL1        0.1568
      6 N           0.0029    4.1208   20.2216 N.ar    1  UNL1       -0.1459
      7 C           2.2360   -0.3340   20.9222 C.ar    1  UNL1        0.2417
      8 N           1.2454    0.7666   21.1615 N.ar    1  UNL1       -0.2073
      9 C           0.6997    1.5493   20.0040 C.ar    1  UNL1        0.1219
     10 C           1.1447    1.2314   18.6073 C.ar    1  UNL1        0.0240
     11 C           2.1353    0.1308   18.3680 C.ar    1  UNL1        0.0240
     12 C           2.6809   -0.6519   19.5255 C.ar    1  UNL1        0.1189
     13 N           3.6716   -1.7526   19.2861 N.ar    1  UNL1       -0.2826
     14 C           5.1525   -1.5846   19.1169 C.ar    1  UNL1        0.1826
     15 N           5.7513   -2.9426   18.9002 N.ar    1  UNL1       -0.2280
     16 C           4.6405   -3.9501   18.9355 C.ar    1  UNL1        0.0786
     17 C           4.7890   -5.4327   18.7626 C.3     1  UNL1        0.0538
     18 C           3.3552   -3.2146   19.1740 C.ar    1  UNL1        0.0963
     19 C           2.8310   -0.4994   23.4458 C.3     1  UNL1        0.2543
     20 O           2.7816   -1.1167   22.0796 O.3     1  UNL1       -0.4551
     21 N          -3.7947    4.1265   21.0237 N.pl3   1  UNL1       -0.2827
     22 H          -4.4194    4.3536   20.2975 H       1  UNL1        0.1551
     23 C          -4.2808    4.0723   22.4417 C.ar    1  UNL1        0.0527
     24 C          -5.7052    4.4188   22.7600 C.ar    1  UNL1        0.0443
     25 C          -6.1912    4.3646   24.1780 C.ar    1  UNL1        0.1413
     26 F          -7.6155    4.7111   24.4964 F       1  UNL1       -0.2041
     27 C          -5.2530    3.9640   25.2777 C.ar    1  UNL1        0.0336
     28 C          -3.8287    3.6175   24.9594 C.ar    1  UNL1        0.0749
     29 C          -3.3427    3.6717   23.5414 C.ar    1  UNL1        0.0187
     30 C          -2.8905    3.2168   26.0591 C.3     1  UNL1        0.4187
     31 F          -1.9523    2.8162   27.1587 F       1  UNL1       -0.1659
     32 F          -3.9149    3.6174   27.0790 F       1  UNL1       -0.1659
     33 F          -1.8661    2.8163   25.0391 F       1  UNL1       -0.1659
@<TRIPOS>BOND
     1    19    20    1
     2    20     7    1
     3     7     8   ar
     4     8     9   ar
     5     9     1    1
     6     1     2   ar
     7     2     3   ar
     8     3    21    1
     9    21    23    1
    10    23    24   ar
    11    24    25   ar
    12    25    26    1
    13    25    27   ar
    14    27    28   ar
    15    28    30    1
    16    30    31    1
    17    30    32    1
    18    30    33    1
    19    28    29   ar
    20     3     4   ar
    21     4     5    1
    22     4     6   ar
    23     9    10   ar
    24    10    11   ar
    25    11    12   ar
    26    12    13    1
    27    13    14   ar
    28    14    15   ar
    29    15    16   ar
    30    16    17    1
    31    16    18   ar
    32    12     7   ar
    33    18    13   ar
    34     6     1   ar
    35    29    23   ar
    36    21    22    1
@<TRIPOS>MOLECULE
*****
 33 36 0 0 0
SMALL
GASTEIGER

@<TRIPOS>ATOM
      1 C           0.7311    4.4482   33.2305 C.ar    1  UNL1        0.2020
      2 N           1.6344    3.9954   34.3391 N.ar    1  UNL1       -0.1915
      3 C           1.3506    4.8430   35.5437 C.ar    1  UNL1        0.2192
      4 N           0.2718    5.8196   35.1796 N.ar    1  UNL1       -0.2185
      5 C          -0.3202    6.8579   36.0859 C.3     1  UNL1        0.1568
      6 N          -0.1110    5.5755   33.7499 N.ar    1  UNL1       -0.1459
      7 C           0.7002    1.8155   30.2610 C.ar    1  UNL1        0.2417
      8 N           0.7522    2.3894   31.6458 N.ar    1  UNL1       -0.2073
      9 C           0.6791    3.8743   31.8456 C.ar    1  UNL1        0.1219
     10 C           0.5540    4.7852   30.6605 C.ar    1  UNL1        0.0240
     11 C           0.5020    4.2113   29.2756 C.ar    1  UNL1        0.0240
     12 C           0.5751    2.7264   29.0759 C.ar    1  UNL1        0.1189
     13 N           0.5231    2.1525   27.6909 N.ar    1  UNL1       -0.2826
     14 C          -0.7160    1.9253   26.8766 C.ar    1  UNL1        0.1826
     15 N          -0.3039    1.3375   25.5596 N.ar    1  UNL1       -0.2280
     16 C           1.1900    1.2014   25.5599 C.ar    1  UNL1        0.0786
     17 C           2.0260    0.6571   24.4397 C.3     1  UNL1        0.0538
     18 C           1.7010    1.7051   26.8771 C.ar    1  UNL1        0.0963
     19 C           2.1034   -0.3627   30.0699 C.3     1  UNL1        0.2543
     20 O           0.7733    0.3307   30.0612 O.3     1  UNL1       -0.4551
     21 N           2.0267    4.7333   36.8782 N.pl3   1  UNL1       -0.2827
     22 H           2.2928    5.5474   37.3636 H       1  UNL1        0.1551
     23 C           2.2975    3.3832   37.4730 C.ar    1  UNL1        0.0527
     24 C           1.3608    2.8131   38.4967 C.ar    1  UNL1        0.0443
     25 C           1.6316    1.4629   39.0915 C.ar    1  UNL1        0.1413
     26 F           0.6949    0.8928   40.1151 F       1  UNL1       -0.2041
     27 C           2.8390    0.6830   38.6628 C.ar    1  UNL1        0.0336
     28 C           3.7756    1.2531   37.6393 C.ar    1  UNL1        0.0749
     29 C           3.5048    2.6032   37.0444 C.ar    1  UNL1        0.0187
     30 C           4.9831    0.4731   37.2106 C.3     1  UNL1        0.4187
     31 F           6.1905   -0.3069   36.7819 F       1  UNL1       -0.1659
     32 F           4.0971   -0.5114   36.5064 F       1  UNL1       -0.1659
     33 F           5.8691    1.4575   37.9148 F       1  UNL1       -0.1659
@<TRIPOS>BOND
     1    19    20    1
     2    20     7    1
     3     7     8   ar
     4     8     9   ar
     5     9     1    1
     6     1     2   ar
     7     2     3   ar
     8     3    21    1
     9    21    23    1
    10    23    24   ar
    11    24    25   ar
    12    25    26    1
    13    25    27   ar
    14    27    28   ar
    15    28    30    1
    16    30    31    1
    17    30    32    1
    18    30    33    1
    19    28    29   ar
    20     3     4   ar
    21     4     5    1
    22     4     6   ar
    23     9    10   ar
    24    10    11   ar
    25    11    12   ar
    26    12    13    1
    27    13    14   ar
    28    14    15   ar
    29    15    16   ar
    30    16    17    1
    31    16    18   ar
    32    12     7   ar
    33    18    13   ar
    34     6     1   ar
    35    29    23   ar
    36    21    22    1
@<TRIPOS>MOLECULE
*****
 33 36 0 0 0
SMALL
GASTEIGER

@<TRIPOS>ATOM
      1 C           0.2639    2.1749   19.1306 C.ar    1  UNL1        0.2020
      2 N          -0.4799    2.8584   20.2394 N.ar    1  UNL1       -0.1915
      3 C          -1.2993    3.9611   19.6371 C.ar    1  UNL1        0.2192
      4 N          -1.0618    3.9590   18.1559 N.ar    1  UNL1       -0.2185
      5 C          -1.6816    4.8963   17.1623 C.3     1  UNL1        0.1568
      6 N          -0.0958    2.8551   17.8430 N.ar    1  UNL1       -0.1459
      7 C           3.1234   -0.4630   18.3464 C.ar    1  UNL1        0.2417
      8 N           2.1847    0.6971   18.1944 N.ar    1  UNL1       -0.2073
      9 C           1.2026    1.0147   19.2827 C.ar    1  UNL1        0.1219
     10 C           1.1590    0.1723   20.5230 C.ar    1  UNL1        0.0240
     11 C           2.0977   -0.9877   20.6750 C.ar    1  UNL1        0.0240
     12 C           3.0799   -1.3054   19.5867 C.ar    1  UNL1        0.1189
     13 N           4.0186   -2.4655   19.7388 N.ar    1  UNL1       -0.2826
     14 C           3.7352   -3.8859   19.3489 C.ar    1  UNL1        0.1826
     15 N           4.9469   -4.7071   19.6766 N.ar    1  UNL1       -0.2280
     16 C           5.9792   -3.7942   20.2690 C.ar    1  UNL1        0.0786
     17 C           7.3453   -4.1961   20.7403 C.3     1  UNL1        0.0538
     18 C           5.4054   -2.4088   20.3074 C.ar    1  UNL1        0.0963
     19 C           5.3757    0.0086   17.1402 C.3     1  UNL1        0.2543
     20 O           4.1056   -0.7807   17.2581 O.3     1  UNL1       -0.4551
     21 N          -2.1982    4.9008   20.3846 N.pl3   1  UNL1       -0.2827
     22 H          -1.8430    5.7516   20.7299 H       1  UNL1        0.1551
     23 C          -3.6383    4.5443   20.6060 C.ar    1  UNL1        0.0527
     24 C          -4.4482    3.9640   19.4846 C.ar    1  UNL1        0.0443
     25 C          -5.8883    3.6075   19.7060 C.ar    1  UNL1        0.1413
     26 F          -6.6982    3.0273   18.5847 F       1  UNL1       -0.2041
     27 C          -6.5185    3.8312   21.0487 C.ar    1  UNL1        0.0336
     28 C          -5.7086    4.4115   22.1700 C.ar    1  UNL1        0.0749
     29 C          -4.2685    4.7680   21.9486 C.ar    1  UNL1        0.0187
     30 C          -6.3388    4.6352   23.5127 C.3     1  UNL1        0.4187
     31 F          -6.9690    4.8589   24.8554 F       1  UNL1       -0.1659
     32 F          -5.0674    5.2605   24.0052 F       1  UNL1       -0.1659
     33 F          -7.6102    4.0098   23.0202 F       1  UNL1       -0.1659
@<TRIPOS>BOND
     1    19    20    1
     2    20     7    1
     3     7     8   ar
     4     8     9   ar
     5     9     1    1
     6     1     2   ar
     7     2     3   ar
     8     3    21    1
     9    21    23    1
    10    23    24   ar
    11    24    25   ar
    12    25    26    1
    13    25    27   ar
    14    27    28   ar
    15    28    30    1
    16    30    31    1
    17    30    32    1
    18    30    33    1
    19    28    29   ar
    20     3     4   ar
    21     4     5    1
    22     4     6   ar
    23     9    10   ar
    24    10    11   ar
    25    11    12   ar
    26    12    13    1
    27    13    14   ar
    28    14    15   ar
    29    15    16   ar
    30    16    17    1
    31    16    18   ar
    32    12     7   ar
    33    18    13   ar
    34     6     1   ar
    35    29    23   ar
    36    21    22    1
@<TRIPOS>MOLECULE
*****
 33 36 0 0 0
SMALL
GASTEIGER

@<TRIPOS>ATOM
      1 C           0.2329    2.1890   19.1508 C.ar    1  UNL1        0.2020
      2 N          -0.4836    2.8802   20.2728 N.ar    1  UNL1       -0.1915
      3 C          -1.3157    3.9803   19.6835 C.ar    1  UNL1        0.2192
      4 N          -1.1136    3.9691   18.1972 N.ar    1  UNL1       -0.2185
      5 C          -1.7557    4.9012   17.2129 C.3     1  UNL1        0.1568
      6 N          -0.1565    2.8620   17.8680 N.ar    1  UNL1       -0.1459
      7 C           3.1375   -0.3971   18.3600 C.ar    1  UNL1        0.2417
      8 N           2.1968    0.7633   18.2233 N.ar    1  UNL1       -0.2073
      9 C           1.1735    1.0286   19.2875 C.ar    1  UNL1        0.1219
     10 C           1.0908    0.1335   20.4883 C.ar    1  UNL1        0.0240
     11 C           2.0315   -1.0268   20.6250 C.ar    1  UNL1        0.0240
     12 C           3.0548   -1.2921   19.5608 C.ar    1  UNL1        0.1189
     13 N           3.9954   -2.4526   19.6976 N.ar    1  UNL1       -0.2826
     14 C           3.7177   -3.8665   19.2810 C.ar    1  UNL1        0.1826
     15 N           4.9296   -4.6906   19.6008 N.ar    1  UNL1       -0.2280
     16 C           5.9564   -3.7859   20.2151 C.ar    1  UNL1        0.0786
     17 C           7.3209   -4.1928   20.6867 C.3     1  UNL1        0.0538
     18 C           5.3790   -2.4027   20.2749 C.ar    1  UNL1        0.0963
     19 C           5.3658    0.2228   17.1767 C.3     1  UNL1        0.2543
     20 O           4.1608   -0.6624   17.2959 O.3     1  UNL1       -0.4551
     21 N          -2.1955    4.9258   20.4465 N.pl3   1  UNL1       -0.2827
     22 H          -2.3130    5.8512   20.1319 H       1  UNL1        0.1551
     23 C          -2.8962    4.4611   21.6887 C.ar    1  UNL1        0.0527
     24 C          -2.0985    3.9724   22.8615 C.ar    1  UNL1        0.0443
     25 C          -2.7992    3.5078   24.1037 C.ar    1  UNL1        0.1413
     26 F          -2.0017    3.0192   25.2763 F       1  UNL1       -0.2041
     27 C          -4.2974    3.5319   24.1733 C.ar    1  UNL1        0.0336
     28 C          -5.0950    4.0206   23.0006 C.ar    1  UNL1        0.0749
     29 C          -4.3943    4.4852   21.7584 C.ar    1  UNL1        0.0187
     30 C          -6.5932    4.0446   23.0702 C.3     1  UNL1        0.4187
     31 F          -8.0914    4.0687   23.1398 F       1  UNL1       -0.1659
     32 F          -6.5238    4.0310   24.5686 F       1  UNL1       -0.1659
     33 F          -6.6625    4.0583   21.5719 F       1  UNL1       -0.1659
@<TRIPOS>BOND
     1    19    20    1
     2    20     7    1
     3     7     8   ar
     4     8     9   ar
     5     9     1    1
     6     1     2   ar
     7     2     3   ar
     8     3    21    1
     9    21    23    1
    10    23    24   ar
    11    24    25   ar
    12    25    26    1
    13    25    27   ar
    14    27    28   ar
    15    28    30    1
    16    30    31    1
    17    30    32    1
    18    30    33    1
    19    28    29   ar
    20     3     4   ar
    21     4     5    1
    22     4     6   ar
    23     9    10   ar
    24    10    11   ar
    25    11    12   ar
    26    12    13    1
    27    13    14   ar
    28    14    15   ar
    29    15    16   ar
    30    16    17    1
    31    16    18   ar
    32    12     7   ar
    33    18    13   ar
    34     6     1   ar
    35    29    23   ar
    36    21    22    1
