@<TRIPOS>MOLECULE
*****
 28 29 0 0 0
SMALL
GASTEIGER

@<TRIPOS>ATOM
      1 C         -11.0029  -19.4335   23.1757 C.ar    1  UNL1        0.1826
      2 C          -9.7930  -20.0256   23.8356 C.ar    1  UNL1        0.0947
      3 CL         -9.9409  -20.8181   25.1006 Cl      1  UNL1       -0.0790
      4 C          -8.4351  -19.8253   23.2306 C.ar    1  UNL1        0.0192
      5 C          -8.2871  -19.0328   21.9657 C.ar    1  UNL1        0.0577
      6 C          -9.4970  -18.4407   21.3058 C.ar    1  UNL1        0.0446
      7 C         -10.8549  -18.6411   21.9108 C.ar    1  UNL1        0.1730
      8 C          -6.9292  -18.8325   21.3607 C.2     1  UNL1        0.2496
      9 O          -6.7955  -18.5583   19.8921 O.2     1  UNL1       -0.2698
     10 N          -5.7050  -18.9064   22.2243 N.am    1  UNL1       -0.2804
     11 H          -5.7928  -19.0864   23.1883 H       1  UNL1        0.1552
     12 C          -4.3471  -18.7061   21.6193 C.ar    1  UNL1        0.0502
     13 C          -3.7626  -19.7578   20.7236 C.ar    1  UNL1        0.0147
     14 C          -2.4047  -19.5574   20.1186 C.ar    1  UNL1        0.0021
     15 C          -1.6314  -18.3054   20.4094 C.ar    1  UNL1        0.0101
     16 C          -2.2160  -17.2538   21.3051 C.ar    1  UNL1       -0.0195
     17 C          -1.4427  -16.0018   21.5958 C.3     1  UNL1        0.0311
     18 C          -3.5738  -17.4541   21.9101 C.ar    1  UNL1        0.0105
     19 C          -0.2735  -18.1050   19.8044 C.2     1  UNL1        0.0726
     20 O           0.9516  -18.1933   20.6653 O.co2   1  UNL1       -0.5446
     21 O          -0.1408  -17.8164   18.3383 O.co2   1  UNL1       -0.5446
     22 O         -12.3607  -19.6339   23.7807 O.3     1  UNL1       -0.4715
     23 C         -14.3976  -18.1921   24.5036 C.3     1  UNL1        0.0512
     24 C         -12.9548  -18.5724   24.6583 C.3     1  UNL1        0.2057
     25 O         -12.0648  -18.0489   21.2508 O.3     1  UNL1       -0.4761
     26 C         -12.2015  -16.5598   21.1329 C.3     1  UNL1        0.1663
     27 C         -12.4530  -15.7305   22.3571 C.3     1  UNL1        0.0472
     28 C         -12.0866  -15.9001   19.7906 C.3     1  UNL1        0.0472
@<TRIPOS>UNITY_ATOM_ATTR
20 1
charge -1
@<TRIPOS>BOND
     1    23    24    1
     2    24    22    1
     3    22     1    1
     4     1     2   ar
     5     2     3    1
     6     2     4   ar
     7     4     5   ar
     8     5     8    1
     9     8     9    2
    10     8    10   am
    11    10    12    1
    12    12    13   ar
    13    13    14   ar
    14    14    15   ar
    15    15    19    1
    16    19    20   ar
    17    19    21   ar
    18    15    16   ar
    19    16    17    1
    20    16    18   ar
    21     5     6   ar
    22     6     7   ar
    23     7    25    1
    24    25    26    1
    25    26    27    1
    26    26    28    1
    27     7     1   ar
    28    18    12   ar
    29    10    11    1
@<TRIPOS>MOLECULE
*****
 28 29 0 0 0
SMALL
GASTEIGER

@<TRIPOS>ATOM
      1 C           0.4884    1.8081   27.4032 C.ar    1  UNL1        0.1826
      2 C          -0.4500    2.0046   26.2497 C.ar    1  UNL1        0.0947
      3 CL         -1.8370    2.5223   26.4910 Cl      1  UNL1       -0.0790
      4 C          -0.0014    1.6836   24.8548 C.ar    1  UNL1        0.0192
      5 C           1.3856    1.1659   24.6135 C.ar    1  UNL1        0.0577
      6 C           2.3240    0.9694   25.7670 C.ar    1  UNL1        0.0446
      7 C           1.8754    1.2905   27.1619 C.ar    1  UNL1        0.1730
      8 C           1.8342    0.8449   23.2186 C.2     1  UNL1        0.2496
      9 O           0.9558    1.1851   22.0513 O.2     1  UNL1       -0.2698
     10 N           3.1611    0.1835   22.9910 N.am    1  UNL1       -0.2804
     11 H           3.7376   -0.0398   23.7572 H       1  UNL1        0.1552
     12 C           3.6097   -0.1375   21.5961 C.ar    1  UNL1        0.0502
     13 C           4.2478    0.9244   20.7504 C.ar    1  UNL1        0.0147
     14 C           4.6964    0.6033   19.3555 C.ar    1  UNL1        0.0021
     15 C           4.5068   -0.7797   18.8064 C.ar    1  UNL1        0.0101
     16 C           3.8687   -1.8415   19.6521 C.ar    1  UNL1       -0.0195
     17 C           3.6792   -3.2244   19.1030 C.3     1  UNL1        0.0311
     18 C           3.4201   -1.5204   21.0470 C.ar    1  UNL1        0.0105
     19 C           4.9554   -1.1008   17.4115 C.2     1  UNL1        0.0726
     20 O           6.3823   -1.4834   17.1519 O.co2   1  UNL1       -0.5446
     21 O           3.9770   -1.0392   16.2762 O.co2   1  UNL1       -0.5446
     22 O           0.0399    2.1292   28.7981 O.3     1  UNL1       -0.4715
     23 C          -1.3386   -0.0584   29.0511 C.3     1  UNL1        0.0512
     24 C          -0.5395    1.0519   29.6663 C.3     1  UNL1        0.2057
     25 O           2.8139    1.0939   28.3155 O.3     1  UNL1       -0.4761
     26 C           3.0763   -0.2858   28.8422 C.3     1  UNL1        0.1663
     27 C           2.5303   -0.6951   30.1779 C.3     1  UNL1        0.0472
     28 C           3.8847   -1.2564   28.0330 C.3     1  UNL1        0.0472
@<TRIPOS>UNITY_ATOM_ATTR
20 1
charge -1
@<TRIPOS>BOND
     1    23    24    1
     2    24    22    1
     3    22     1    1
     4     1     2   ar
     5     2     3    1
     6     2     4   ar
     7     4     5   ar
     8     5     8    1
     9     8     9    2
    10     8    10   am
    11    10    12    1
    12    12    13   ar
    13    13    14   ar
    14    14    15   ar
    15    15    19    1
    16    19    20   ar
    17    19    21   ar
    18    15    16   ar
    19    16    17    1
    20    16    18   ar
    21     5     6   ar
    22     6     7   ar
    23     7    25    1
    24    25    26    1
    25    26    27    1
    26    26    28    1
    27     7     1   ar
    28    18    12   ar
    29    10    11    1
@<TRIPOS>MOLECULE
*****
 28 29 0 0 0
SMALL
GASTEIGER

@<TRIPOS>ATOM
      1 C          -4.0653    4.2954   22.1994 C.ar    1  UNL1        0.1826
      2 C          -3.9915    3.6655   20.8401 C.ar    1  UNL1        0.0947
      3 CL         -5.2016    3.6506   19.9538 Cl      1  UNL1       -0.0790
      4 C          -2.7078    3.0506   20.3671 C.ar    1  UNL1        0.0192
      5 C          -1.4977    3.0655   21.2534 C.ar    1  UNL1        0.0577
      6 C          -1.5715    3.6954   22.6127 C.ar    1  UNL1        0.0446
      7 C          -2.8552    4.3103   23.0857 C.ar    1  UNL1        0.1730
      8 C          -0.2140    2.4505   20.7803 C.2     1  UNL1        0.2496
      9 O           1.0408    3.2714   20.7401 O.2     1  UNL1       -0.2698
     10 N          -0.1850    1.0146   20.3475 N.am    1  UNL1       -0.2804
     11 H          -1.0085    0.4758   20.3739 H       1  UNL1        0.1552
     12 C           1.0988    0.3997   19.8745 C.ar    1  UNL1        0.0502
     13 C           1.6109    0.6990   18.4967 C.ar    1  UNL1        0.0147
     14 C           2.8946    0.0841   18.0237 C.ar    1  UNL1        0.0021
     15 C           3.6664   -0.8303   18.9284 C.ar    1  UNL1        0.0101
     16 C           3.1543   -1.1296   20.3062 C.ar    1  UNL1       -0.0195
     17 C           3.9260   -2.0438   21.2109 C.3     1  UNL1        0.0311
     18 C           1.8705   -0.5146   20.7792 C.ar    1  UNL1        0.0105
     19 C           4.9501   -1.4452   18.4554 C.2     1  UNL1        0.0726
     20 O           6.2592   -0.7845   18.7710 O.co2   1  UNL1       -0.5446
     21 O           4.9247   -2.7210   17.6668 O.co2   1  UNL1       -0.5446
     22 O          -5.3490    4.9104   22.6725 O.3     1  UNL1       -0.4715
     23 C          -7.7929    4.6206   23.5052 C.3     1  UNL1        0.0512
     24 C          -6.4381    4.0402   23.2262 C.3     1  UNL1        0.2057
     25 O          -2.9289    4.9402   24.4451 O.3     1  UNL1       -0.4761
     26 C          -3.1213    4.0818   25.6600 C.3     1  UNL1        0.1663
     27 C          -4.4569    4.0342   26.3409 C.3     1  UNL1        0.0472
     28 C          -1.9778    3.2709   26.1941 C.3     1  UNL1        0.0472
@<TRIPOS>UNITY_ATOM_ATTR
20 1
charge -1
@<TRIPOS>BOND
     1    23    24    1
     2    24    22    1
     3    22     1    1
     4     1     2   ar
     5     2     3    1
     6     2     4   ar
     7     4     5   ar
     8     5     8    1
     9     8     9    2
    10     8    10   am
    11    10    12    1
    12    12    13   ar
    13    13    14   ar
    14    14    15   ar
    15    15    19    1
    16    19    20   ar
    17    19    21   ar
    18    15    16   ar
    19    16    17    1
    20    16    18   ar
    21     5     6   ar
    22     6     7   ar
    23     7    25    1
    24    25    26    1
    25    26    27    1
    26    26    28    1
    27     7     1   ar
    28    18    12   ar
    29    10    11    1
@<TRIPOS>MOLECULE
*****
 28 29 0 0 0
SMALL
GASTEIGER

@<TRIPOS>ATOM
      1 C           0.5659    1.4309   27.5396 C.ar    1  UNL1        0.1826
      2 C           1.9308    0.8651   27.2808 C.ar    1  UNL1        0.0947
      3 CL          2.8393    0.5427   28.4300 Cl      1  UNL1       -0.0790
      4 C           2.3872    0.6218   25.8727 C.ar    1  UNL1        0.0192
      5 C           1.4787    0.9443   24.7236 C.ar    1  UNL1        0.0577
      6 C           0.1138    1.5100   24.9824 C.ar    1  UNL1        0.0446
      7 C          -0.3426    1.7533   26.3904 C.ar    1  UNL1        0.1730
      8 C           1.9351    0.7010   23.3155 C.2     1  UNL1        0.2496
      9 O           1.1541    1.2652   22.1659 O.2     1  UNL1       -0.2698
     10 N           3.1725   -0.1065   23.0572 N.am    1  UNL1       -0.2804
     11 H           3.6851   -0.4769   23.8117 H       1  UNL1        0.1552
     12 C           3.6288   -0.3499   21.6492 C.ar    1  UNL1        0.0502
     13 C           4.2444    0.7654   20.8570 C.ar    1  UNL1        0.0147
     14 C           4.7008    0.5220   19.4490 C.ar    1  UNL1        0.0021
     15 C           4.5416   -0.8365   18.8331 C.ar    1  UNL1        0.0101
     16 C           3.9261   -1.9516   19.6253 C.ar    1  UNL1       -0.0195
     17 C           3.7669   -3.3100   19.0094 C.3     1  UNL1        0.0311
     18 C           3.4697   -1.7083   21.0333 C.ar    1  UNL1        0.0105
     19 C           4.9980   -1.0798   17.4251 C.2     1  UNL1        0.0726
     20 O           4.0189   -0.9864   16.2926 O.co2   1  UNL1       -0.5446
     21 O           6.4336   -1.4165   17.1496 O.co2   1  UNL1       -0.5446
     22 O           0.1095    1.6742   28.9476 O.3     1  UNL1       -0.4715
     23 C          -1.3060   -0.5030   28.8704 C.3     1  UNL1        0.0512
     24 C          -0.7766    0.6760   29.6319 C.3     1  UNL1        0.2057
     25 O          -1.7075    2.3191   26.6492 O.3     1  UNL1       -0.4761
     26 C          -1.9449    3.7944   26.5188 C.3     1  UNL1        0.1663
     27 C          -3.3390    4.3163   26.3342 C.3     1  UNL1        0.0472
     28 C          -0.7881    4.7479   26.5730 C.3     1  UNL1        0.0472
@<TRIPOS>UNITY_ATOM_ATTR
20 1
charge -1
@<TRIPOS>BOND
     1    23    24    1
     2    24    22    1
     3    22     1    1
     4     1     2   ar
     5     2     3    1
     6     2     4   ar
     7     4     5   ar
     8     5     8    1
     9     8     9    2
    10     8    10   am
    11    10    12    1
    12    12    13   ar
    13    13    14   ar
    14    14    15   ar
    15    15    19    1
    16    19    20   ar
    17    19    21   ar
    18    15    16   ar
    19    16    17    1
    20    16    18   ar
    21     5     6   ar
    22     6     7   ar
    23     7    25    1
    24    25    26    1
    25    26    27    1
    26    26    28    1
    27     7     1   ar
    28    18    12   ar
    29    10    11    1
@<TRIPOS>MOLECULE
*****
 28 29 0 0 0
SMALL
GASTEIGER

@<TRIPOS>ATOM
      1 C         -16.0662   -8.1956   19.3013 C.ar    1  UNL1        0.1826
      2 C         -17.2473   -7.3997   19.7718 C.ar    1  UNL1        0.0947
      3 CL        -18.4068   -8.0925   20.4242 Cl      1  UNL1       -0.0790
      4 C         -17.2690   -5.9109   19.5899 C.ar    1  UNL1        0.0192
      5 C         -16.1096   -5.2181   18.9374 C.ar    1  UNL1        0.0577
      6 C         -14.9285   -6.0140   18.4669 C.ar    1  UNL1        0.0446
      7 C         -14.9068   -7.5028   18.6489 C.ar    1  UNL1        0.1730
      8 C         -16.1313   -3.7293   18.7555 C.2     1  UNL1        0.2496
      9 O         -16.9582   -3.1192   17.6628 O.2     1  UNL1       -0.2698
     10 N         -15.3262   -2.8506   19.6663 N.am    1  UNL1       -0.2804
     11 H         -14.7835   -3.2510   20.3835 H       1  UNL1        0.1552
     12 C         -15.3479   -1.3618   19.4844 C.ar    1  UNL1        0.0502
     13 C         -16.4077   -0.5396   20.1559 C.ar    1  UNL1        0.0147
     14 C         -16.4294    0.9492   19.9740 C.ar    1  UNL1        0.0021
     15 C         -15.3913    1.6157   19.1206 C.ar    1  UNL1        0.0101
     16 C         -14.3316    0.7935   18.4491 C.ar    1  UNL1       -0.0195
     17 C         -13.2937    1.4600   17.5958 C.3     1  UNL1        0.0311
     18 C         -14.3099   -0.6953   18.6310 C.ar    1  UNL1        0.0105
     19 C         -15.4131    3.1045   18.9387 C.2     1  UNL1        0.0726
     20 O         -16.1048    3.7049   17.7509 O.co2   1  UNL1       -0.5446
     21 O         -14.7430    3.9928   19.9447 O.co2   1  UNL1       -0.5446
     22 O         -16.0445   -9.6844   19.4832 O.3     1  UNL1       -0.4715
     23 C         -17.9968  -10.6066   18.0383 C.3     1  UNL1        0.0512
     24 C         -16.5381  -10.5812   18.3869 C.3     1  UNL1        0.2057
     25 O         -13.7256   -8.2987   18.1783 O.3     1  UNL1       -0.4761
     26 C         -12.4974   -7.5955   17.6812 C.3     1  UNL1        0.1663
     27 C         -12.2286   -7.5064   16.2082 C.3     1  UNL1        0.0472
     28 C         -11.5379   -6.9814   18.6572 C.3     1  UNL1        0.0472
@<TRIPOS>UNITY_ATOM_ATTR
20 1
charge -1
@<TRIPOS>BOND
     1    23    24    1
     2    24    22    1
     3    22     1    1
     4     1     2   ar
     5     2     3    1
     6     2     4   ar
     7     4     5   ar
     8     5     8    1
     9     8     9    2
    10     8    10   am
    11    10    12    1
    12    12    13   ar
    13    13    14   ar
    14    14    15   ar
    15    15    19    1
    16    19    20   ar
    17    19    21   ar
    18    15    16   ar
    19    16    17    1
    20    16    18   ar
    21     5     6   ar
    22     6     7   ar
    23     7    25    1
    24    25    26    1
    25    26    27    1
    26    26    28    1
    27     7     1   ar
    28    18    12   ar
    29    10    11    1
@<TRIPOS>MOLECULE
*****
 28 29 0 0 0
SMALL
GASTEIGER

@<TRIPOS>ATOM
      1 C           7.5406   -6.0224   28.2793 C.ar    1  UNL1        0.1826
      2 C           7.6471   -6.9171   27.0801 C.ar    1  UNL1        0.0947
      3 CL          8.0415   -8.3544   27.2494 Cl      1  UNL1       -0.0790
      4 C           7.3592   -6.3745   25.7116 C.ar    1  UNL1        0.0192
      5 C           6.9648   -4.9373   25.5424 C.ar    1  UNL1        0.0577
      6 C           6.8583   -4.0426   26.7416 C.ar    1  UNL1        0.0446
      7 C           7.1462   -4.5851   28.1100 C.ar    1  UNL1        0.1730
      8 C           6.6769   -4.3947   24.1739 C.2     1  UNL1        0.2496
      9 O           7.6522   -4.6210   23.0569 O.2     1  UNL1       -0.2698
     10 N           5.4138   -3.6259   23.9223 N.am    1  UNL1       -0.2804
     11 H           4.7736   -3.4774   24.6554 H       1  UNL1        0.1552
     12 C           5.1259   -3.0833   22.5539 C.ar    1  UNL1        0.0502
     13 C           5.5623   -1.6950   22.1904 C.ar    1  UNL1        0.0147
     14 C           5.2744   -1.1524   20.8219 C.ar    1  UNL1        0.0021
     15 C           4.5501   -1.9982   19.8169 C.ar    1  UNL1        0.0101
     16 C           4.1136   -3.3865   20.1804 C.ar    1  UNL1       -0.0195
     17 C           3.3893   -4.2322   19.1754 C.3     1  UNL1        0.0311
     18 C           4.4015   -3.9290   21.5489 C.ar    1  UNL1        0.0105
     19 C           4.2622   -1.4557   18.4484 C.2     1  UNL1        0.0726
     20 O           3.1279   -0.4953   18.2457 O.co2   1  UNL1       -0.5446
     21 O           5.1086   -1.8735   17.2826 O.co2   1  UNL1       -0.5446
     22 O           7.8285   -6.5649   29.6478 O.3     1  UNL1       -0.4715
     23 C           9.5073   -6.8524   31.6096 C.3     1  UNL1        0.0512
     24 C           9.2400   -6.6159   30.1527 C.3     1  UNL1        0.2057
     25 O           7.0397   -3.6903   29.3093 O.3     1  UNL1       -0.4761
     26 C           8.0984   -2.6610   29.5733 C.3     1  UNL1        0.1663
     27 C           7.7195   -1.3222   30.1336 C.3     1  UNL1        0.0472
     28 C           9.5359   -2.9705   29.2771 C.3     1  UNL1        0.0472
@<TRIPOS>UNITY_ATOM_ATTR
20 1
charge -1
@<TRIPOS>BOND
     1    23    24    1
     2    24    22    1
     3    22     1    1
     4     1     2   ar
     5     2     3    1
     6     2     4   ar
     7     4     5   ar
     8     5     8    1
     9     8     9    2
    10     8    10   am
    11    10    12    1
    12    12    13   ar
    13    13    14   ar
    14    14    15   ar
    15    15    19    1
    16    19    20   ar
    17    19    21   ar
    18    15    16   ar
    19    16    17    1
    20    16    18   ar
    21     5     6   ar
    22     6     7   ar
    23     7    25    1
    24    25    26    1
    25    26    27    1
    26    26    28    1
    27     7     1   ar
    28    18    12   ar
    29    10    11    1
@<TRIPOS>MOLECULE
*****
 28 29 0 0 0
SMALL
GASTEIGER

@<TRIPOS>ATOM
      1 C           4.5251   -0.7998   18.6508 C.ar    1  UNL1        0.1826
      2 C           4.8156    0.6521   18.8904 C.ar    1  UNL1        0.0947
      3 CL          5.8577    1.3537   18.0707 Cl      1  UNL1       -0.0790
      4 C           4.0641    1.4025   19.9497 C.ar    1  UNL1        0.0192
      5 C           3.0220    0.7010   20.7694 C.ar    1  UNL1        0.0577
      6 C           2.7315   -0.7510   20.5298 C.ar    1  UNL1        0.0446
      7 C           3.4830   -1.5014   19.4705 C.ar    1  UNL1        0.1730
      8 C           2.2705    1.4514   21.8287 C.2     1  UNL1        0.2496
      9 O           2.8387    2.7181   22.3964 O.2     1  UNL1       -0.2698
     10 N           0.9508    0.9350   22.3202 N.am    1  UNL1       -0.2804
     11 H           0.5779    0.1035   21.9476 H       1  UNL1        0.1552
     12 C           0.1993    1.6854   23.3795 C.ar    1  UNL1        0.0502
     13 C          -0.5287    2.9494   23.0297 C.ar    1  UNL1        0.0147
     14 C          -1.2802    3.6998   24.0890 C.ar    1  UNL1        0.0021
     15 C          -1.3038    3.1861   25.4981 C.ar    1  UNL1        0.0101
     16 C          -0.5758    1.9222   25.8480 C.ar    1  UNL1       -0.0195
     17 C          -0.5994    1.4086   27.2571 C.3     1  UNL1        0.0311
     18 C           0.1757    1.1718   24.7887 C.ar    1  UNL1        0.0105
     19 C          -2.0553    3.9365   26.5574 C.2     1  UNL1        0.0726
     20 O          -1.3657    5.0065   27.3508 O.co2   1  UNL1       -0.5446
     21 O          -3.4966    3.6169   26.8234 O.co2   1  UNL1       -0.5446
     22 O           5.2766   -1.5502   17.5915 O.3     1  UNL1       -0.4715
     23 C           7.1729   -2.1163   19.2748 C.3     1  UNL1        0.0512
     24 C           6.6668   -2.0427   17.8646 C.3     1  UNL1        0.2057
     25 O           3.1925   -2.9534   19.2309 O.3     1  UNL1       -0.4761
     26 C           4.1140   -4.0029   19.7780 C.3     1  UNL1        0.1663
     27 C           4.6115   -5.1024   18.8873 C.3     1  UNL1        0.0472
     28 C           4.5380   -3.9528   21.2160 C.3     1  UNL1        0.0472
@<TRIPOS>UNITY_ATOM_ATTR
20 1
charge -1
@<TRIPOS>BOND
     1    23    24    1
     2    24    22    1
     3    22     1    1
     4     1     2   ar
     5     2     3    1
     6     2     4   ar
     7     4     5   ar
     8     5     8    1
     9     8     9    2
    10     8    10   am
    11    10    12    1
    12    12    13   ar
    13    13    14   ar
    14    14    15   ar
    15    15    19    1
    16    19    20   ar
    17    19    21   ar
    18    15    16   ar
    19    16    17    1
    20    16    18   ar
    21     5     6   ar
    22     6     7   ar
    23     7    25    1
    24    25    26    1
    25    26    27    1
    26    26    28    1
    27     7     1   ar
    28    18    12   ar
    29    10    11    1
@<TRIPOS>MOLECULE
*****
 28 29 0 0 0
SMALL
GASTEIGER

@<TRIPOS>ATOM
      1 C           3.4353   -0.7034   30.6319 C.ar    1  UNL1        0.1826
      2 C           4.8300   -1.0055   30.1697 C.ar    1  UNL1        0.0947
      3 CL          5.9180   -1.2436   31.1745 Cl      1  UNL1       -0.0790
      4 C           5.1367   -1.0695   28.7028 C.ar    1  UNL1        0.0192
      5 C           4.0487   -0.8314   27.6981 C.ar    1  UNL1        0.0577
      6 C           2.6540   -0.5293   28.1602 C.ar    1  UNL1        0.0446
      7 C           2.3473   -0.4653   29.6271 C.ar    1  UNL1        0.1730
      8 C           4.3554   -0.8954   26.2311 C.2     1  UNL1        0.2496
      9 O           5.3256    0.0746   25.6248 O.2     1  UNL1       -0.2698
     10 N           3.6918   -1.9294   25.3706 N.am    1  UNL1       -0.2804
     11 H           3.0550   -2.5660   25.7686 H       1  UNL1        0.1552
     12 C           3.9985   -1.9934   23.9037 C.ar    1  UNL1        0.0502
     13 C           5.1408   -2.8322   23.4122 C.ar    1  UNL1        0.0147
     14 C           5.4475   -2.8962   21.9453 C.ar    1  UNL1        0.0021
     15 C           4.6118   -2.1214   20.9699 C.ar    1  UNL1        0.0101
     16 C           3.4696   -1.2826   21.4614 C.ar    1  UNL1       -0.0195
     17 C           2.6340   -0.5078   20.4860 C.3     1  UNL1        0.0311
     18 C           3.1629   -1.2186   22.9283 C.ar    1  UNL1        0.0105
     19 C           4.9185   -2.1854   19.5029 C.2     1  UNL1        0.0726
     20 O           4.2677   -3.2300   18.6455 O.co2   1  UNL1       -0.5446
     21 O           5.8761   -1.2047   18.8934 O.co2   1  UNL1       -0.5446
     22 O           3.1286   -0.6394   32.0988 O.3     1  UNL1       -0.4715
     23 C           4.2237    0.7597   33.9944 C.3     1  UNL1        0.0512
     24 C           3.2724    0.6572   32.8392 C.3     1  UNL1        0.2057
     25 O           0.9526   -0.1632   30.0893 O.3     1  UNL1       -0.4761
     26 C          -0.0705    0.3335   29.1112 C.3     1  UNL1        0.1663
     27 C          -1.2310   -0.5381   28.7323 C.3     1  UNL1        0.0472
     28 C           0.0670    1.7018   28.5121 C.3     1  UNL1        0.0472
@<TRIPOS>UNITY_ATOM_ATTR
20 1
charge -1
@<TRIPOS>BOND
     1    23    24    1
     2    24    22    1
     3    22     1    1
     4     1     2   ar
     5     2     3    1
     6     2     4   ar
     7     4     5   ar
     8     5     8    1
     9     8     9    2
    10     8    10   am
    11    10    12    1
    12    12    13   ar
    13    13    14   ar
    14    14    15   ar
    15    15    19    1
    16    19    20   ar
    17    19    21   ar
    18    15    16   ar
    19    16    17    1
    20    16    18   ar
    21     5     6   ar
    22     6     7   ar
    23     7    25    1
    24    25    26    1
    25    26    27    1
    26    26    28    1
    27     7     1   ar
    28    18    12   ar
    29    10    11    1
@<TRIPOS>MOLECULE
*****
 28 29 0 0 0
SMALL
GASTEIGER

@<TRIPOS>ATOM
      1 C         -11.4395   -6.1593   17.9478 C.ar    1  UNL1        0.1826
      2 C         -11.0413   -4.7182   18.0692 C.ar    1  UNL1        0.0947
      3 CL         -9.6892   -4.2714   17.5976 Cl      1  UNL1       -0.0790
      4 C         -11.9951   -3.7239   18.6621 C.ar    1  UNL1        0.0192
      5 C         -13.3472   -4.1706   19.1337 C.ar    1  UNL1        0.0577
      6 C         -13.7454   -5.6117   19.0123 C.ar    1  UNL1        0.0446
      7 C         -12.7915   -6.6060   18.4194 C.ar    1  UNL1        0.1730
      8 C         -14.3010   -3.1763   19.7266 C.2     1  UNL1        0.2496
      9 O         -14.2437   -2.8641   21.1926 O.2     1  UNL1       -0.2698
     10 N         -15.3121   -2.4942   18.8535 N.am    1  UNL1       -0.2804
     11 H         -15.3497   -2.6991   17.8913 H       1  UNL1        0.1552
     12 C         -16.2659   -1.4999   19.4464 C.ar    1  UNL1        0.0502
     13 C         -17.6559   -1.9237   19.8186 C.ar    1  UNL1        0.0147
     14 C         -18.6097   -0.9294   20.4115 C.ar    1  UNL1        0.0021
     15 C         -18.1736    0.4888   20.6323 C.ar    1  UNL1        0.0101
     16 C         -16.7836    0.9125   20.2601 C.ar    1  UNL1       -0.0195
     17 C         -16.3476    2.3306   20.4809 C.3     1  UNL1        0.0311
     18 C         -15.8298   -0.0818   19.6672 C.ar    1  UNL1        0.0105
     19 C         -19.1274    1.4831   21.2252 C.2     1  UNL1        0.0726
     20 O         -19.2953    1.5660   22.7134 O.co2   1  UNL1       -0.5446
     21 O         -19.9132    2.3946   20.3298 O.co2   1  UNL1       -0.5446
     22 O         -10.4857   -7.1536   17.3549 O.3     1  UNL1       -0.4715
     23 C          -8.9127   -7.3610   19.4122 C.3     1  UNL1        0.0512
     24 C          -9.6227   -7.9915   18.2510 C.3     1  UNL1        0.2057
     25 O         -13.1898   -8.0471   18.2981 O.3     1  UNL1       -0.4761
     26 C         -14.4224   -8.4225   17.5300 C.3     1  UNL1        0.1663
     27 C         -15.3217   -9.5093   18.0397 C.3     1  UNL1        0.0472
     28 C         -14.7555   -7.7109   16.2522 C.3     1  UNL1        0.0472
@<TRIPOS>UNITY_ATOM_ATTR
20 1
charge -1
@<TRIPOS>BOND
     1    23    24    1
     2    24    22    1
     3    22     1    1
     4     1     2   ar
     5     2     3    1
     6     2     4   ar
     7     4     5   ar
     8     5     8    1
     9     8     9    2
    10     8    10   am
    11    10    12    1
    12    12    13   ar
    13    13    14   ar
    14    14    15   ar
    15    15    19    1
    16    19    20   ar
    17    19    21   ar
    18    15    16   ar
    19    16    17    1
    20    16    18   ar
    21     5     6   ar
    22     6     7   ar
    23     7    25    1
    24    25    26    1
    25    26    27    1
    26    26    28    1
    27     7     1   ar
    28    18    12   ar
    29    10    11    1
