@<TRIPOS>MOLECULE
*****
 33 38 0 0 0
SMALL
GASTEIGER

@<TRIPOS>ATOM
      1 N           2.8776   -0.7169   21.0631 N.pl3   1  UNL1       -0.3046
      2 C           1.6048   -0.0650   20.6102 C.3     1  UNL1        0.1081
      3 C           0.7847    0.7332   21.5798 C.3     1  UNL1        0.0938
      4 N           1.2373    0.8796   23.0024 N.3     1  UNL1       -0.2695
      5 C           2.5101    0.2276   23.4553 C.3     1  UNL1        0.0938
      6 C           3.3302   -0.5706   22.4856 C.3     1  UNL1        0.1081
      7 C           7.2719    1.2844   16.1708 C.3     1  UNL1        0.0521
      8 C           6.3783    0.5845   17.1514 C.ar    1  UNL1        0.0593
      9 C           5.5582    1.3827   18.1211 C.ar    1  UNL1        0.0148
     10 C           4.6647    0.6829   19.1017 C.ar    1  UNL1        0.0039
     11 C           4.5912   -0.8153   19.1128 C.ar    1  UNL1        0.0310
     12 C           3.6976   -1.5152   20.0934 C.ar    1  UNL1        0.0493
     13 C           3.6242   -3.0134   20.1044 C.ar    1  UNL1        0.0146
     14 C           4.4442   -3.8116   19.1347 C.ar    1  UNL1        0.0028
     15 C           5.3378   -3.1117   18.1541 C.ar    1  UNL1        0.0192
     16 C           5.4113   -1.6136   18.1431 C.ar    1  UNL1        0.0821
     17 N           6.3048   -0.9137   17.1624 N.ar    1  UNL1       -0.2496
     18 C           0.4173    1.6778   23.9720 C.3     1  UNL1        0.0770
     19 C           1.0363    2.1792   25.2430 C.3     1  UNL1        0.0468
     20 C           0.6785    1.5430   26.5535 C.ar    1  UNL1        0.0147
     21 C          -0.7568    1.4650   26.9822 C.ar    1  UNL1       -0.0011
     22 C          -1.1146    0.8288   28.2926 C.ar    1  UNL1        0.0014
     23 C          -0.0370    0.2705   29.1742 C.ar    1  UNL1        0.0223
     24 C           1.3982    0.3485   28.7455 C.ar    1  UNL1        0.1177
     25 C           1.7560    0.9847   27.4351 C.ar    1  UNL1        0.1527
     26 O           3.1913    1.0628   27.0063 O.3     1  UNL1       -0.4677
     27 C           4.2689    0.5045   27.8880 C.3     1  UNL1        0.2522
     28 C           3.9110   -0.1317   29.1984 C.ar    1  UNL1        0.1210
     29 C           4.7498   -0.7635   30.2695 C.ar    1  UNL1        0.0996
     30 C           6.2432   -0.9024   30.2528 C.3     1  UNL1        0.0555
     31 N           3.8328   -1.2320   31.3603 N.ar    1  UNL1       -0.1331
     32 N           2.4274   -0.8897   30.9633 N.ar    1  UNL1       -0.0600
     33 N           2.4758   -0.2097   29.6272 N.ar    1  UNL1       -0.2083
@<TRIPOS>BOND
     1     7     8    1
     2     8     9   ar
     3     9    10   ar
     4    10    11   ar
     5    11    12   ar
     6    12     1    1
     7     1     2    1
     8     2     3    1
     9     3     4    1
    10     4    18    1
    11    18    19    1
    12    19    20    1
    13    20    21   ar
    14    21    22   ar
    15    22    23   ar
    16    23    24   ar
    17    24    25   ar
    18    25    26    1
    19    26    27    1
    20    27    28    1
    21    28    29   ar
    22    29    30    1
    23    29    31   ar
    24    31    32   ar
    25    32    33   ar
    26     4     5    1
    27     5     6    1
    28    12    13   ar
    29    13    14   ar
    30    14    15   ar
    31    15    16   ar
    32    16    17   ar
    33    17     8   ar
    34    16    11   ar
    35     6     1    1
    36    25    20   ar
    37    33    28   ar
    38    33    24    1
@<TRIPOS>MOLECULE
*****
 33 38 0 0 0
SMALL
GASTEIGER

@<TRIPOS>ATOM
      1 N           2.7388    1.1288   20.6184 N.pl3   1  UNL1       -0.3046
      2 C           3.3102    1.5580   21.9371 C.3     1  UNL1        0.1081
      3 C           2.3971    2.0016   23.0415 C.3     1  UNL1        0.0938
      4 N           0.9126    2.0158   22.8271 N.3     1  UNL1       -0.2695
      5 C           0.3412    1.5865   21.5082 C.3     1  UNL1        0.0938
      6 C           1.2542    1.1430   20.4039 C.3     1  UNL1        0.1081
      7 C           4.7494   -5.1560   18.6924 C.3     1  UNL1        0.0521
      8 C           4.4750   -3.6956   18.8978 C.ar    1  UNL1        0.0593
      9 C           3.5619   -3.2522   20.0021 C.ar    1  UNL1        0.0148
     10 C           3.2875   -1.7918   20.2075 C.ar    1  UNL1        0.0039
     11 C           3.9262   -0.7750   19.3086 C.ar    1  UNL1        0.0310
     12 C           3.6518    0.6853   19.5140 C.ar    1  UNL1        0.0493
     13 C           4.2906    1.7021   18.6151 C.ar    1  UNL1        0.0146
     14 C           5.2037    1.2587   17.5108 C.ar    1  UNL1        0.0028
     15 C           5.4781   -0.2017   17.3053 C.ar    1  UNL1        0.0192
     16 C           4.8394   -1.2185   18.2042 C.ar    1  UNL1        0.0821
     17 N           5.1138   -2.6788   17.9988 N.ar    1  UNL1       -0.2496
     18 C          -0.0005    2.4593   23.9314 C.3     1  UNL1        0.0770
     19 C          -0.8176    3.7072   23.7733 C.3     1  UNL1        0.0468
     20 C          -2.2911    3.6105   23.5097 C.ar    1  UNL1        0.0147
     21 C          -3.2505    3.4737   24.6546 C.ar    1  UNL1       -0.0011
     22 C          -4.7239    3.3769   24.3909 C.ar    1  UNL1        0.0014
     23 C          -5.2380    3.4170   22.9823 C.ar    1  UNL1        0.0223
     24 C          -4.2787    3.5538   21.8374 C.ar    1  UNL1        0.1177
     25 C          -2.8052    3.6506   22.1011 C.ar    1  UNL1        0.1527
     26 O          -1.8458    3.7874   20.9561 O.3     1  UNL1       -0.4677
     27 C          -2.3598    3.8274   19.5476 C.3     1  UNL1        0.2522
     28 C          -3.8334    3.7307   19.2839 C.ar    1  UNL1        0.1210
     29 C          -4.6282    3.7419   18.0119 C.ar    1  UNL1        0.0996
     30 C          -4.0703    3.8619   16.6247 C.3     1  UNL1        0.0555
     31 N          -6.0789    3.6120   18.3706 N.ar    1  UNL1       -0.1331
     32 N          -6.1805    3.5205   19.8644 N.ar    1  UNL1       -0.0600
     33 N          -4.7927    3.5939   20.4288 N.ar    1  UNL1       -0.2083
@<TRIPOS>BOND
     1     7     8    1
     2     8     9   ar
     3     9    10   ar
     4    10    11   ar
     5    11    12   ar
     6    12     1    1
     7     1     2    1
     8     2     3    1
     9     3     4    1
    10     4    18    1
    11    18    19    1
    12    19    20    1
    13    20    21   ar
    14    21    22   ar
    15    22    23   ar
    16    23    24   ar
    17    24    25   ar
    18    25    26    1
    19    26    27    1
    20    27    28    1
    21    28    29   ar
    22    29    30    1
    23    29    31   ar
    24    31    32   ar
    25    32    33   ar
    26     4     5    1
    27     5     6    1
    28    12    13   ar
    29    13    14   ar
    30    14    15   ar
    31    15    16   ar
    32    16    17   ar
    33    17     8   ar
    34    16    11   ar
    35     6     1    1
    36    25    20   ar
    37    33    28   ar
    38    33    24    1
@<TRIPOS>MOLECULE
*****
 33 38 0 0 0
SMALL
GASTEIGER

@<TRIPOS>ATOM
      1 N         -12.4668   -3.6162   17.8637 N.pl3   1  UNL1       -0.3046
      2 C         -12.3697   -4.2960   19.1972 C.3     1  UNL1        0.1081
      3 C         -12.6700   -5.7609   19.3159 C.3     1  UNL1        0.0938
      4 N         -13.0674   -6.5459   18.1010 N.3     1  UNL1       -0.2695
      5 C         -13.1645   -5.8659   16.7674 C.3     1  UNL1        0.0938
      6 C         -12.8642   -4.4011   16.6488 C.3     1  UNL1        0.1081
      7 C         -16.1516    1.8945   19.6813 C.3     1  UNL1        0.0521
      8 C         -15.1553    0.8831   19.1972 C.ar    1  UNL1        0.0593
      9 C         -15.4556   -0.5817   19.3159 C.ar    1  UNL1        0.0148
     10 C         -14.4594   -1.5932   18.8318 C.ar    1  UNL1        0.0039
     11 C         -13.1628   -1.1399   18.2291 C.ar    1  UNL1        0.0310
     12 C         -12.1665   -2.1514   17.7450 C.ar    1  UNL1        0.0493
     13 C         -10.8698   -1.6980   17.1423 C.ar    1  UNL1        0.0146
     14 C         -10.5696   -0.2332   17.0236 C.ar    1  UNL1        0.0028
     15 C         -11.5658    0.7783   17.5077 C.ar    1  UNL1        0.0192
     16 C         -12.8624    0.3250   18.1104 C.ar    1  UNL1        0.0821
     17 N         -13.8587    1.3365   18.5945 N.ar    1  UNL1       -0.2496
     18 C         -13.3677   -8.0107   18.2197 C.3     1  UNL1        0.0770
     19 C         -14.5360   -8.5987   17.4853 C.3     1  UNL1        0.0468
     20 C         -15.8678   -8.7155   18.1656 C.ar    1  UNL1        0.0147
     21 C         -16.3898  -10.0636   18.5658 C.ar    1  UNL1       -0.0011
     22 C         -17.7215  -10.1804   19.2461 C.ar    1  UNL1        0.0014
     23 C         -18.5312   -8.9491   19.5261 C.ar    1  UNL1        0.0223
     24 C         -18.0092   -7.6011   19.1259 C.ar    1  UNL1        0.1177
     25 C         -16.6775   -7.4843   18.4456 C.ar    1  UNL1        0.1527
     26 O         -16.1554   -6.1362   18.0454 O.3     1  UNL1       -0.4677
     27 C         -16.9651   -4.9049   18.3254 C.3     1  UNL1        0.2522
     28 C         -18.2969   -5.0218   19.0057 C.ar    1  UNL1        0.1210
     29 C         -19.3113   -3.9933   19.4093 C.ar    1  UNL1        0.0996
     30 C         -19.1969   -2.5124   19.2000 C.3     1  UNL1        0.0555
     31 N         -20.4604   -4.7057   20.0590 N.ar    1  UNL1       -0.1331
     32 N         -20.1560   -6.1745   20.0569 N.ar    1  UNL1       -0.0600
     33 N         -18.8189   -6.3698   19.4060 N.ar    1  UNL1       -0.2083
@<TRIPOS>BOND
     1     7     8    1
     2     8     9   ar
     3     9    10   ar
     4    10    11   ar
     5    11    12   ar
     6    12     1    1
     7     1     2    1
     8     2     3    1
     9     3     4    1
    10     4    18    1
    11    18    19    1
    12    19    20    1
    13    20    21   ar
    14    21    22   ar
    15    22    23   ar
    16    23    24   ar
    17    24    25   ar
    18    25    26    1
    19    26    27    1
    20    27    28    1
    21    28    29   ar
    22    29    30    1
    23    29    31   ar
    24    31    32   ar
    25    32    33   ar
    26     4     5    1
    27     5     6    1
    28    12    13   ar
    29    13    14   ar
    30    14    15   ar
    31    15    16   ar
    32    16    17   ar
    33    17     8   ar
    34    16    11   ar
    35     6     1    1
    36    25    20   ar
    37    33    28   ar
    38    33    24    1
@<TRIPOS>MOLECULE
*****
 33 38 0 0 0
SMALL
GASTEIGER

@<TRIPOS>ATOM
      1 N           2.9666   -0.8236   21.2132 N.pl3   1  UNL1       -0.3046
      2 C           3.3828   -0.8215   22.6543 C.3     1  UNL1        0.1081
      3 C           2.5875   -0.0476   23.6636 C.3     1  UNL1        0.0938
      4 N           1.3760    0.7241   23.2317 N.3     1  UNL1       -0.2695
      5 C           0.9597    0.7220   21.7906 C.3     1  UNL1        0.0938
      6 C           1.7550   -0.0519   20.7814 C.3     1  UNL1        0.1081
      7 C           7.2867    1.2955   16.3044 C.3     1  UNL1        0.0521
      8 C           6.4055    0.5722   17.2793 C.ar    1  UNL1        0.0593
      9 C           5.6102    1.3461   18.2886 C.ar    1  UNL1        0.0148
     10 C           4.7290    0.6229   19.2634 C.ar    1  UNL1        0.0039
     11 C           4.6431   -0.8743   19.2291 C.ar    1  UNL1        0.0310
     12 C           3.7619   -1.5975   20.2040 C.ar    1  UNL1        0.0493
     13 C           3.6760   -3.0947   20.1696 C.ar    1  UNL1        0.0146
     14 C           4.4713   -3.8686   19.1604 C.ar    1  UNL1        0.0028
     15 C           5.3525   -3.1453   18.1855 C.ar    1  UNL1        0.0192
     16 C           5.4384   -1.6482   18.2198 C.ar    1  UNL1        0.0821
     17 N           6.3196   -0.9250   17.2450 N.ar    1  UNL1       -0.2496
     18 C           0.5806    1.4980   24.2410 C.3     1  UNL1        0.0770
     19 C           0.0895    2.8765   23.9116 C.3     1  UNL1        0.0468
     20 C          -1.3474    3.2370   24.1471 C.ar    1  UNL1        0.0147
     21 C          -1.8398    3.4837   25.5423 C.ar    1  UNL1       -0.0011
     22 C          -3.2766    3.8441   25.7778 C.ar    1  UNL1        0.0014
     23 C          -4.2211    3.9578   24.6180 C.ar    1  UNL1        0.0223
     24 C          -3.7287    3.7111   23.2228 C.ar    1  UNL1        0.1177
     25 C          -2.2919    3.3507   22.9874 C.ar    1  UNL1        0.1527
     26 O          -1.7994    3.1040   21.5921 O.3     1  UNL1       -0.4677
     27 C          -2.7439    3.2177   20.4323 C.3     1  UNL1        0.2522
     28 C          -4.1808    3.5781   20.6679 C.ar    1  UNL1        0.1210
     29 C          -5.3362    3.7622   19.7292 C.ar    1  UNL1        0.0996
     30 C          -5.2927    3.6122   18.2373 C.3     1  UNL1        0.0555
     31 N          -6.5427    4.1227   20.5443 N.ar    1  UNL1       -0.1331
     32 N          -6.1329    4.1614   21.9867 N.ar    1  UNL1       -0.0600
     33 N          -4.6732    3.8248   22.0631 N.ar    1  UNL1       -0.2083
@<TRIPOS>BOND
     1     7     8    1
     2     8     9   ar
     3     9    10   ar
     4    10    11   ar
     5    11    12   ar
     6    12     1    1
     7     1     2    1
     8     2     3    1
     9     3     4    1
    10     4    18    1
    11    18    19    1
    12    19    20    1
    13    20    21   ar
    14    21    22   ar
    15    22    23   ar
    16    23    24   ar
    17    24    25   ar
    18    25    26    1
    19    26    27    1
    20    27    28    1
    21    28    29   ar
    22    29    30    1
    23    29    31   ar
    24    31    32   ar
    25    32    33   ar
    26     4     5    1
    27     5     6    1
    28    12    13   ar
    29    13    14   ar
    30    14    15   ar
    31    15    16   ar
    32    16    17   ar
    33    17     8   ar
    34    16    11   ar
    35     6     1    1
    36    25    20   ar
    37    33    28   ar
    38    33    24    1
@<TRIPOS>MOLECULE
*****
 33 38 0 0 0
SMALL
GASTEIGER

@<TRIPOS>ATOM
      1 N           2.6851   -0.4458   20.4378 N.pl3   1  UNL1       -0.3046
      2 C           3.1160    0.8841   20.9814 C.3     1  UNL1        0.1081
      3 C           2.0876    1.9058   21.3668 C.3     1  UNL1        0.0938
      4 N           0.6281    1.5975   21.2086 N.3     1  UNL1       -0.2695
      5 C           0.1972    0.2675   20.6650 C.3     1  UNL1        0.0938
      6 C           1.2256   -0.7541   20.2796 C.3     1  UNL1        0.1081
      7 C           6.6198   -4.5493   24.3015 C.3     1  UNL1        0.0521
      8 C           5.8932   -3.7789   23.2393 C.ar    1  UNL1        0.0593
      9 C           4.8648   -2.7573   23.6246 C.ar    1  UNL1        0.0148
     10 C           4.1382   -1.9868   22.5624 C.ar    1  UNL1        0.0039
     11 C           4.4401   -2.2379   21.1147 C.ar    1  UNL1        0.0310
     12 C           3.7135   -1.4674   20.0524 C.ar    1  UNL1        0.0493
     13 C           4.0155   -1.7185   18.6047 C.ar    1  UNL1        0.0146
     14 C           5.0439   -2.7401   18.2193 C.ar    1  UNL1        0.0028
     15 C           5.7705   -3.5106   19.2816 C.ar    1  UNL1        0.0192
     16 C           5.4686   -3.2595   20.7292 C.ar    1  UNL1        0.0821
     17 N           6.1952   -4.0300   21.7915 N.ar    1  UNL1       -0.2496
     18 C          -0.4003    2.6191   21.5940 C.3     1  UNL1        0.0770
     19 C          -0.1391    3.5510   22.7400 C.3     1  UNL1        0.0468
     20 C          -0.8249    3.3322   24.0560 C.ar    1  UNL1        0.0147
     21 C          -2.1722    3.9406   24.3099 C.ar    1  UNL1       -0.0011
     22 C          -2.8580    3.7218   25.6258 C.ar    1  UNL1        0.0014
     23 C          -2.1965    2.8944   26.6879 C.ar    1  UNL1        0.0223
     24 C          -0.8492    2.2859   26.4340 C.ar    1  UNL1        0.1177
     25 C          -0.1634    2.5048   25.1180 C.ar    1  UNL1        0.1527
     26 O           1.1839    1.8963   24.8640 O.3     1  UNL1       -0.4677
     27 C           1.8454    1.0690   25.9261 C.3     1  UNL1        0.2522
     28 C           1.1596    0.8501   27.2421 C.ar    1  UNL1        0.1210
     29 C           1.5626    0.0876   28.4693 C.ar    1  UNL1        0.0996
     30 C           2.8397   -0.6777   28.6520 C.3     1  UNL1        0.0555
     31 N           0.4644    0.2248   29.4817 N.ar    1  UNL1       -0.1331
     32 N          -0.6174    1.0721   28.8802 N.ar    1  UNL1       -0.0600
     33 N          -0.1877    1.4586   27.4960 N.ar    1  UNL1       -0.2083
@<TRIPOS>BOND
     1     7     8    1
     2     8     9   ar
     3     9    10   ar
     4    10    11   ar
     5    11    12   ar
     6    12     1    1
     7     1     2    1
     8     2     3    1
     9     3     4    1
    10     4    18    1
    11    18    19    1
    12    19    20    1
    13    20    21   ar
    14    21    22   ar
    15    22    23   ar
    16    23    24   ar
    17    24    25   ar
    18    25    26    1
    19    26    27    1
    20    27    28    1
    21    28    29   ar
    22    29    30    1
    23    29    31   ar
    24    31    32   ar
    25    32    33   ar
    26     4     5    1
    27     5     6    1
    28    12    13   ar
    29    13    14   ar
    30    14    15   ar
    31    15    16   ar
    32    16    17   ar
    33    17     8   ar
    34    16    11   ar
    35     6     1    1
    36    25    20   ar
    37    33    28   ar
    38    33    24    1
@<TRIPOS>MOLECULE
*****
 33 38 0 0 0
SMALL
GASTEIGER

@<TRIPOS>ATOM
      1 N           2.2128    0.2031   20.7320 N.pl3   1  UNL1       -0.3046
      2 C           2.9105    1.1527   19.8038 C.3     1  UNL1        0.1081
      3 C           2.1153    2.1496   19.0139 C.3     1  UNL1        0.0938
      4 N           0.6224    2.1970   19.1523 N.3     1  UNL1       -0.2695
      5 C          -0.0752    1.2474   20.0806 C.3     1  UNL1        0.0938
      6 C           0.7200    0.2505   20.8704 C.3     1  UNL1        0.1081
      7 C           4.9473   -5.8333   18.9061 C.3     1  UNL1        0.0521
      8 C           4.4625   -4.5734   19.5600 C.ar    1  UNL1        0.0593
      9 C           3.6673   -3.5765   18.7702 C.ar    1  UNL1        0.0148
     10 C           3.1825   -2.3166   19.4241 C.ar    1  UNL1        0.0039
     11 C           3.4928   -2.0536   20.8679 C.ar    1  UNL1        0.0310
     12 C           3.0080   -0.7937   21.5218 C.ar    1  UNL1        0.0493
     13 C           3.3184   -0.5308   22.9656 C.ar    1  UNL1        0.0146
     14 C           4.1136   -1.5276   23.7555 C.ar    1  UNL1        0.0028
     15 C           4.5984   -2.7875   23.1015 C.ar    1  UNL1        0.0192
     16 C           4.2881   -3.0505   21.6578 C.ar    1  UNL1        0.0821
     17 N           4.7729   -4.3104   21.0038 N.ar    1  UNL1       -0.2496
     18 C          -0.1728    3.1939   18.3625 C.3     1  UNL1        0.0770
     19 C          -0.9033    4.2982   19.0674 C.3     1  UNL1        0.0468
     20 C          -2.3083    4.0818   19.5463 C.ar    1  UNL1        0.0147
     21 C          -3.4253    3.9419   18.5550 C.ar    1  UNL1       -0.0011
     22 C          -4.8302    3.7255   19.0339 C.ar    1  UNL1        0.0014
     23 C          -5.1181    3.6491   20.5040 C.ar    1  UNL1        0.0223
     24 C          -4.0011    3.7891   21.4953 C.ar    1  UNL1        0.1177
     25 C          -2.5962    4.0054   21.0164 C.ar    1  UNL1        0.1527
     26 O          -1.4791    4.1453   22.0077 O.3     1  UNL1       -0.4677
     27 C          -1.7670    4.0689   23.4778 C.3     1  UNL1        0.2522
     28 C          -3.1720    3.8526   23.9567 C.ar    1  UNL1        0.1210
     29 C          -3.7562    3.7351   25.3331 C.ar    1  UNL1        0.0996
     30 C          -2.9959    3.8159   26.6236 C.3     1  UNL1        0.0555
     31 N          -5.2344    3.5225   25.1926 N.ar    1  UNL1       -0.1331
     32 N          -5.5637    3.5087   23.7293 N.ar    1  UNL1       -0.0600
     33 N          -4.2890    3.7126   22.9654 N.ar    1  UNL1       -0.2083
@<TRIPOS>BOND
     1     7     8    1
     2     8     9   ar
     3     9    10   ar
     4    10    11   ar
     5    11    12   ar
     6    12     1    1
     7     1     2    1
     8     2     3    1
     9     3     4    1
    10     4    18    1
    11    18    19    1
    12    19    20    1
    13    20    21   ar
    14    21    22   ar
    15    22    23   ar
    16    23    24   ar
    17    24    25   ar
    18    25    26    1
    19    26    27    1
    20    27    28    1
    21    28    29   ar
    22    29    30    1
    23    29    31   ar
    24    31    32   ar
    25    32    33   ar
    26     4     5    1
    27     5     6    1
    28    12    13   ar
    29    13    14   ar
    30    14    15   ar
    31    15    16   ar
    32    16    17   ar
    33    17     8   ar
    34    16    11   ar
    35     6     1    1
    36    25    20   ar
    37    33    28   ar
    38    33    24    1
@<TRIPOS>MOLECULE
*****
 33 38 0 0 0
SMALL
GASTEIGER

@<TRIPOS>ATOM
      1 N           2.3881   -0.4644   19.9592 N.pl3   1  UNL1       -0.3046
      2 C           0.9363   -0.3113   20.3040 C.3     1  UNL1        0.1081
      3 C           0.1490    0.8356   19.7430 C.3     1  UNL1        0.0938
      4 N           0.8135    1.8295   18.8371 N.3     1  UNL1       -0.2695
      5 C           2.2654    1.6764   18.4923 C.3     1  UNL1        0.0938
      6 C           3.0526    0.5295   19.0533 C.3     1  UNL1        0.1081
      7 C           4.8576   -1.5632   26.2793 C.3     1  UNL1        0.0521
      8 C           4.4370   -1.5752   24.8395 C.ar    1  UNL1        0.0593
      9 C           3.6498   -0.4283   24.2785 C.ar    1  UNL1        0.0148
     10 C           3.2292   -0.4403   22.8387 C.ar    1  UNL1        0.0039
     11 C           3.5959   -1.5993   21.9599 C.ar    1  UNL1        0.0310
     12 C           3.1753   -1.6113   20.5202 C.ar    1  UNL1        0.0493
     13 C           3.5420   -2.7704   19.6414 C.ar    1  UNL1        0.0146
     14 C           4.3292   -3.9173   20.2024 C.ar    1  UNL1        0.0028
     15 C           4.7498   -3.9053   21.6421 C.ar    1  UNL1        0.0192
     16 C           4.3831   -2.7463   22.5209 C.ar    1  UNL1        0.0821
     17 N           4.8037   -2.7343   23.9607 N.ar    1  UNL1       -0.2496
     18 C           0.0263    2.9765   18.2761 C.3     1  UNL1        0.0770
     19 C          -0.6348    3.9556   19.2004 C.3     1  UNL1        0.0468
     20 C          -2.1248    3.9358   19.3727 C.ar    1  UNL1        0.0147
     21 C          -3.0190    3.9182   18.1685 C.ar    1  UNL1       -0.0011
     22 C          -4.5088    3.8984   18.3409 C.ar    1  UNL1        0.0014
     23 C          -5.1046    3.8962   19.7176 C.ar    1  UNL1        0.0223
     24 C          -4.2105    3.9137   20.9218 C.ar    1  UNL1        0.1177
     25 C          -2.7206    3.9336   20.7493 C.ar    1  UNL1        0.1527
     26 O          -1.8263    3.9511   21.9536 O.3     1  UNL1       -0.4677
     27 C          -2.4221    3.9489   23.3302 C.3     1  UNL1        0.2522
     28 C          -3.9121    3.9291   23.5026 C.ar    1  UNL1        0.1210
     29 C          -4.7809    3.9224   24.7253 C.ar    1  UNL1        0.0996
     30 C          -4.3026    3.9352   26.1469 C.3     1  UNL1        0.0555
     31 N          -6.2121    3.9007   24.2767 N.ar    1  UNL1       -0.1331
     32 N          -6.2277    3.8940   22.7768 N.ar    1  UNL1       -0.0600
     33 N          -4.8062    3.9115   22.2984 N.ar    1  UNL1       -0.2083
@<TRIPOS>BOND
     1     7     8    1
     2     8     9   ar
     3     9    10   ar
     4    10    11   ar
     5    11    12   ar
     6    12     1    1
     7     1     2    1
     8     2     3    1
     9     3     4    1
    10     4    18    1
    11    18    19    1
    12    19    20    1
    13    20    21   ar
    14    21    22   ar
    15    22    23   ar
    16    23    24   ar
    17    24    25   ar
    18    25    26    1
    19    26    27    1
    20    27    28    1
    21    28    29   ar
    22    29    30    1
    23    29    31   ar
    24    31    32   ar
    25    32    33   ar
    26     4     5    1
    27     5     6    1
    28    12    13   ar
    29    13    14   ar
    30    14    15   ar
    31    15    16   ar
    32    16    17   ar
    33    17     8   ar
    34    16    11   ar
    35     6     1    1
    36    25    20   ar
    37    33    28   ar
    38    33    24    1
@<TRIPOS>MOLECULE
*****
 33 38 0 0 0
SMALL
GASTEIGER

@<TRIPOS>ATOM
      1 N           2.8714    1.8905   20.4095 N.pl3   1  UNL1       -0.3046
      2 C           3.3870    2.1609   21.7919 C.3     1  UNL1        0.1081
      3 C           2.4752    2.7409   22.8323 C.3     1  UNL1        0.0938
      4 N           1.0479    3.0506   22.4902 N.3     1  UNL1       -0.2695
      5 C           0.5324    2.7801   21.1077 C.3     1  UNL1        0.0938
      6 C           1.4441    2.2001   20.0674 C.3     1  UNL1        0.1081
      7 C           4.3060   -4.6415   18.8202 C.3     1  UNL1        0.0521
      8 C           4.1753   -3.1535   18.9575 C.ar    1  UNL1        0.0593
      9 C           3.2635   -2.5735   19.9978 C.ar    1  UNL1        0.0148
     10 C           3.1328   -1.0855   20.1350 C.ar    1  UNL1        0.0039
     11 C           3.9138   -0.1775   19.2320 C.ar    1  UNL1        0.0310
     12 C           3.7831    1.3105   19.3692 C.ar    1  UNL1        0.0493
     13 C           4.5642    2.2184   18.4661 C.ar    1  UNL1        0.0146
     14 C           5.4759    1.6384   17.4258 C.ar    1  UNL1        0.0028
     15 C           5.6066    0.1504   17.2885 C.ar    1  UNL1        0.0192
     16 C           4.8256   -0.7575   18.1916 C.ar    1  UNL1        0.0821
     17 N           4.9563   -2.2455   18.0543 N.ar    1  UNL1       -0.2496
     18 C           0.1362    3.6306   23.5305 C.3     1  UNL1        0.0770
     19 C          -0.7721    2.7323   24.3167 C.3     1  UNL1        0.0468
     20 C          -2.0844    3.2517   24.8250 C.ar    1  UNL1        0.0147
     21 C          -2.2994    3.4326   26.2984 C.ar    1  UNL1       -0.0011
     22 C          -3.6116    3.9519   26.8066 C.ar    1  UNL1        0.0014
     23 C          -4.7088    4.2904   25.8413 C.ar    1  UNL1        0.0223
     24 C          -4.4937    4.1095   24.3679 C.ar    1  UNL1        0.1177
     25 C          -3.1815    3.5901   23.8598 C.ar    1  UNL1        0.1527
     26 O          -2.9664    3.4092   22.3863 O.3     1  UNL1       -0.4677
     27 C          -4.0636    3.7477   21.4210 C.3     1  UNL1        0.2522
     28 C          -5.3759    4.2671   21.9293 C.ar    1  UNL1        0.1210
     29 C          -6.6323    4.6822   21.2230 C.ar    1  UNL1        0.0996
     30 C          -6.8576    4.6631   19.7401 C.3     1  UNL1        0.0555
     31 N          -7.6240    5.1196   22.2599 N.ar    1  UNL1       -0.1331
     32 N          -6.9804    4.9749   23.6071 N.ar    1  UNL1       -0.0600
     33 N          -5.5909    4.4480   23.4027 N.ar    1  UNL1       -0.2083
@<TRIPOS>BOND
     1     7     8    1
     2     8     9   ar
     3     9    10   ar
     4    10    11   ar
     5    11    12   ar
     6    12     1    1
     7     1     2    1
     8     2     3    1
     9     3     4    1
    10     4    18    1
    11    18    19    1
    12    19    20    1
    13    20    21   ar
    14    21    22   ar
    15    22    23   ar
    16    23    24   ar
    17    24    25   ar
    18    25    26    1
    19    26    27    1
    20    27    28    1
    21    28    29   ar
    22    29    30    1
    23    29    31   ar
    24    31    32   ar
    25    32    33   ar
    26     4     5    1
    27     5     6    1
    28    12    13   ar
    29    13    14   ar
    30    14    15   ar
    31    15    16   ar
    32    16    17   ar
    33    17     8   ar
    34    16    11   ar
    35     6     1    1
    36    25    20   ar
    37    33    28   ar
    38    33    24    1
@<TRIPOS>MOLECULE
*****
 33 38 0 0 0
SMALL
GASTEIGER

@<TRIPOS>ATOM
      1 N         -11.5698   -2.9830   18.0307 N.pl3   1  UNL1       -0.3046
      2 C         -11.5094   -2.4919   16.6146 C.3     1  UNL1        0.1081
      3 C         -11.8157   -1.0565   16.3049 C.3     1  UNL1        0.0938
      4 N         -12.1823   -0.1122   17.4112 N.3     1  UNL1       -0.2695
      5 C         -12.2426   -0.6033   18.8273 C.3     1  UNL1        0.0938
      6 C         -11.9364   -2.0387   19.1370 C.3     1  UNL1        0.1081
      7 C         -15.6524   -8.5086   18.2536 C.3     1  UNL1        0.0521
      8 C         -14.5552   -7.4860   18.2753 C.ar    1  UNL1        0.0593
      9 C         -14.8614   -6.0506   17.9656 C.ar    1  UNL1        0.0148
     10 C         -13.7642   -5.0281   17.9873 C.ar    1  UNL1        0.0039
     11 C         -12.3608   -5.4409   18.3187 C.ar    1  UNL1        0.0310
     12 C         -11.2635   -4.4183   18.3404 C.ar    1  UNL1        0.0493
     13 C          -9.8600   -4.8311   18.6717 C.ar    1  UNL1        0.0146
     14 C          -9.5538   -6.2665   18.9814 C.ar    1  UNL1        0.0028
     15 C         -10.6510   -7.2890   18.9598 C.ar    1  UNL1        0.0192
     16 C         -12.0544   -6.8763   18.6284 C.ar    1  UNL1        0.0821
     17 N         -13.1517   -7.8988   18.6067 N.ar    1  UNL1       -0.2496
     18 C         -12.4885    1.3231   17.1015 C.3     1  UNL1        0.0770
     19 C         -13.8903    1.7344   16.7609 C.3     1  UNL1        0.0468
     20 C         -14.9166    1.8707   17.8464 C.ar    1  UNL1        0.0147
     21 C         -15.1568    3.2050   18.4881 C.ar    1  UNL1       -0.0011
     22 C         -16.1830    3.3413   19.5735 C.ar    1  UNL1        0.0014
     23 C         -16.9691    2.1433   20.0172 C.ar    1  UNL1        0.0223
     24 C         -16.7290    0.8090   19.3754 C.ar    1  UNL1        0.1177
     25 C         -15.7027    0.6727   18.2900 C.ar    1  UNL1        0.1527
     26 O         -15.4625   -0.6617   17.6482 O.3     1  UNL1       -0.4677
     27 C         -16.2486   -1.8597   18.0918 C.3     1  UNL1        0.2522
     28 C         -17.2749   -1.7233   19.1773 C.ar    1  UNL1        0.1210
     29 C         -18.1958   -2.7186   19.8185 C.ar    1  UNL1        0.0996
     30 C         -18.2907   -4.1771   19.4809 C.3     1  UNL1        0.0555
     31 N         -19.0052   -1.9994   20.8566 N.ar    1  UNL1       -0.1331
     32 N         -18.5845   -0.5597   20.8569 N.ar    1  UNL1       -0.0600
     33 N         -17.5151   -0.3890   19.8190 N.ar    1  UNL1       -0.2083
@<TRIPOS>BOND
     1     7     8    1
     2     8     9   ar
     3     9    10   ar
     4    10    11   ar
     5    11    12   ar
     6    12     1    1
     7     1     2    1
     8     2     3    1
     9     3     4    1
    10     4    18    1
    11    18    19    1
    12    19    20    1
    13    20    21   ar
    14    21    22   ar
    15    22    23   ar
    16    23    24   ar
    17    24    25   ar
    18    25    26    1
    19    26    27    1
    20    27    28    1
    21    28    29   ar
    22    29    30    1
    23    29    31   ar
    24    31    32   ar
    25    32    33   ar
    26     4     5    1
    27     5     6    1
    28    12    13   ar
    29    13    14   ar
    30    14    15   ar
    31    15    16   ar
    32    16    17   ar
    33    17     8   ar
    34    16    11   ar
    35     6     1    1
    36    25    20   ar
    37    33    28   ar
    38    33    24    1
