@<TRIPOS>MOLECULE
*****
 32 36 0 0 0
SMALL
GASTEIGER

@<TRIPOS>ATOM
      1 C          -8.8049  -19.8656   22.1566 C.ar    1  UNL1        0.0023
      2 C          -9.4140  -19.5947   23.5003 C.ar    1  UNL1        0.0162
      3 C         -10.6392  -18.7362   23.6091 C.ar    1  UNL1        0.0823
      4 N         -11.2553  -18.1485   22.3742 N.ar    1  UNL1       -0.2759
      5 C         -12.4546  -17.2707   22.1710 C.ar    1  UNL1        0.1471
      6 N         -12.5867  -16.9991   20.7017 N.ar    1  UNL1       -0.1330
      7 N         -11.4691  -17.7090   19.9968 N.ar    1  UNL1       -0.1288
      8 C         -10.6462  -18.4194   21.0304 C.ar    1  UNL1        0.1737
      9 C          -9.4211  -19.2779   20.9216 C.ar    1  UNL1        0.1049
     10 C          -8.8120  -19.5488   19.5779 C.3     1  UNL1        0.4212
     11 F          -8.2029  -19.8197   18.2341 F       1  UNL1       -0.1658
     12 F          -7.7590  -18.5149   19.8467 F       1  UNL1       -0.1658
     13 F          -9.8649  -20.5827   19.3090 F       1  UNL1       -0.1658
     14 C          -7.5798  -20.7241   22.0478 C.3     1  UNL1        0.0993
     15 N          -3.6107  -18.8623   21.0327 N.pl3   1  UNL1       -0.3029
     16 C          -4.1541  -19.9769   20.1887 C.3     1  UNL1        0.1082
     17 C          -5.4771  -20.5975   20.5270 C.3     1  UNL1        0.0941
     18 N          -6.2568  -20.1035   21.7094 N.3     1  UNL1       -0.2660
     19 C          -5.7134  -18.9889   22.5535 C.3     1  UNL1        0.0941
     20 C          -4.3904  -18.3683   22.2151 C.3     1  UNL1        0.1082
     21 F           1.6814  -16.3801   19.6792 F       1  UNL1       -0.2041
     22 C           0.3584  -17.0007   20.0176 C.ar    1  UNL1        0.1425
     23 C           0.0250  -18.3752   19.5180 C.ar    1  UNL1        0.0311
     24 C          -1.2980  -18.9957   19.8564 C.ar    1  UNL1        0.0191
     25 C          -2.2876  -18.2417   20.6944 C.ar    1  UNL1        0.0759
     26 C          -1.9543  -16.8672   21.1939 C.ar    1  UNL1        0.1556
     27 F          -2.9439  -16.1133   22.0319 F       1  UNL1       -0.2028
     28 C          -0.6313  -16.2467   20.8555 C.ar    1  UNL1        0.0605
     29 C         -13.3623  -16.7551   23.2481 C.3     1  UNL1        0.0662
     30 C         -14.0329  -17.7141   24.1865 C.3     1  UNL1        0.0076
     31 C         -14.0112  -18.5294   25.4455 C.3     1  UNL1        0.0005
     32 C         -15.2163  -18.5599   24.5529 C.3     1  UNL1        0.0005
@<TRIPOS>BOND
     1    21    22    1
     2    22    23   ar
     3    23    24   ar
     4    24    25   ar
     5    25    15    1
     6    15    16    1
     7    16    17    1
     8    17    18    1
     9    18    14    1
    10    14     1    1
    11     1     2   ar
    12     2     3   ar
    13     3     4   ar
    14     4     5   ar
    15     5    29    1
    16    29    30    1
    17    30    31    1
    18    31    32    1
    19     5     6   ar
    20     6     7   ar
    21     7     8   ar
    22     8     9   ar
    23     9    10    1
    24    10    11    1
    25    10    12    1
    26    10    13    1
    27    18    19    1
    28    19    20    1
    29    25    26   ar
    30    26    27    1
    31    26    28   ar
    32    28    22   ar
    33    20    15    1
    34     9     1   ar
    35     8     4   ar
    36    32    30    1
@<TRIPOS>MOLECULE
*****
 32 36 0 0 0
SMALL
GASTEIGER

@<TRIPOS>ATOM
      1 C         -16.5502    0.5483   19.5549 C.ar    1  UNL1        0.0023
      2 C         -17.3540    0.6166   20.8195 C.ar    1  UNL1        0.0162
      3 C         -17.2830    1.8373   21.6884 C.ar    1  UNL1        0.0823
      4 N         -16.4082    2.9897   21.2925 N.ar    1  UNL1       -0.2759
      5 C         -16.1373    4.3139   21.9430 C.ar    1  UNL1        0.1471
      6 N         -15.1661    5.0641   21.0804 N.ar    1  UNL1       -0.1330
      7 N         -14.8368    4.2035   19.8968 N.ar    1  UNL1       -0.1288
      8 C         -15.6045    2.9215   20.0279 C.ar    1  UNL1        0.1737
      9 C         -15.6755    1.7008   19.1591 C.ar    1  UNL1        0.1049
     10 C         -14.8717    1.6326   17.8944 C.3     1  UNL1        0.4212
     11 F         -14.0680    1.5643   16.6298 F       1  UNL1       -0.1658
     12 F         -16.0178    2.2308   17.1338 F       1  UNL1       -0.1658
     13 F         -13.7256    1.0343   18.6551 F       1  UNL1       -0.1658
     14 C         -16.6212   -0.6724   18.6861 C.3     1  UNL1        0.0993
     15 N         -13.2936   -3.7002   18.7840 N.pl3   1  UNL1       -0.3029
     16 C         -13.8315   -3.1352   20.0652 C.3     1  UNL1        0.1082
     17 C         -14.9407   -2.1260   20.0326 C.3     1  UNL1        0.0941
     18 N         -15.5120   -1.6816   18.7187 N.3     1  UNL1       -0.2660
     19 C         -14.9741   -2.2466   17.4375 C.3     1  UNL1        0.0941
     20 C         -13.8649   -3.2559   17.4702 C.3     1  UNL1        0.1082
     21 F          -8.8569   -7.7374   18.9147 F       1  UNL1       -0.2041
     22 C          -9.9662   -6.7281   18.8820 C.ar    1  UNL1        0.1425
     23 C         -11.3943   -7.1844   18.8360 C.ar    1  UNL1        0.0311
     24 C         -12.5034   -6.1751   18.8033 C.ar    1  UNL1        0.0191
     25 C         -12.1844   -4.7095   18.8167 C.ar    1  UNL1        0.0759
     26 C         -10.7563   -4.2532   18.8627 C.ar    1  UNL1        0.1556
     27 F         -10.4373   -2.7875   18.8761 F       1  UNL1       -0.2028
     28 C          -9.6472   -5.2624   18.8954 C.ar    1  UNL1        0.0605
     29 C         -16.7330    4.8022   23.2302 C.3     1  UNL1        0.0662
     30 C         -15.8917    4.8630   24.4705 C.3     1  UNL1        0.0076
     31 C         -15.7448    5.1966   25.9256 C.3     1  UNL1        0.0005
     32 C         -14.5813    4.6346   25.1638 C.3     1  UNL1        0.0005
@<TRIPOS>BOND
     1    21    22    1
     2    22    23   ar
     3    23    24   ar
     4    24    25   ar
     5    25    15    1
     6    15    16    1
     7    16    17    1
     8    17    18    1
     9    18    14    1
    10    14     1    1
    11     1     2   ar
    12     2     3   ar
    13     3     4   ar
    14     4     5   ar
    15     5    29    1
    16    29    30    1
    17    30    31    1
    18    31    32    1
    19     5     6   ar
    20     6     7   ar
    21     7     8   ar
    22     8     9   ar
    23     9    10    1
    24    10    11    1
    25    10    12    1
    26    10    13    1
    27    18    19    1
    28    19    20    1
    29    25    26   ar
    30    26    27    1
    31    26    28   ar
    32    28    22   ar
    33    20    15    1
    34     9     1   ar
    35     8     4   ar
    36    32    30    1
@<TRIPOS>MOLECULE
*****
 32 36 0 0 0
SMALL
GASTEIGER

@<TRIPOS>ATOM
      1 C           6.8656   -3.5212   19.8947 C.ar    1  UNL1        0.0023
      2 C           7.9863   -2.5377   19.7309 C.ar    1  UNL1        0.0162
      3 C           7.8150   -1.3481   18.8334 C.ar    1  UNL1        0.0823
      4 N           6.5231   -1.1420   18.0997 N.ar    1  UNL1       -0.2759
      5 C           6.0659   -0.0717   17.1534 C.ar    1  UNL1        0.1471
      6 N           4.6627   -0.3936   16.7323 N.ar    1  UNL1       -0.1330
      7 N           4.2526   -1.6629   17.4184 N.ar    1  UNL1       -0.1288
      8 C           5.4024   -2.1254   18.2635 C.ar    1  UNL1        0.1737
      9 C           5.5736   -3.3151   19.1609 C.ar    1  UNL1        0.1049
     10 C           4.4529   -4.2985   19.3247 C.3     1  UNL1        0.4212
     11 F           3.3322   -5.2820   19.4884 F       1  UNL1       -0.1658
     12 F           5.0360   -5.1449   18.2321 F       1  UNL1       -0.1658
     13 F           3.8699   -3.4522   20.4173 F       1  UNL1       -0.1658
     14 C           7.0369   -4.7108   20.7921 C.3     1  UNL1        0.0993
     15 N           6.9441   -4.1898   25.2609 N.pl3   1  UNL1       -0.3029
     16 C           8.0094   -5.0337   24.6262 C.3     1  UNL1        0.1082
     17 C           8.0404   -5.2074   23.1366 C.3     1  UNL1        0.0941
     18 N           7.0059   -4.5372   22.2817 N.3     1  UNL1       -0.2660
     19 C           5.9406   -3.6932   22.9164 C.3     1  UNL1        0.0941
     20 C           5.9097   -3.5196   24.4061 C.3     1  UNL1        0.1082
     21 F           6.8206   -3.4951   31.2193 F       1  UNL1       -0.2041
     22 C           6.8515   -3.6688   29.7297 C.ar    1  UNL1        0.1425
     23 C           7.1979   -2.5071   28.8462 C.ar    1  UNL1        0.0311
     24 C           7.2287   -2.6808   27.3566 C.ar    1  UNL1        0.0191
     25 C           6.9132   -4.0162   26.7505 C.ar    1  UNL1        0.0759
     26 C           6.5668   -5.1778   27.6340 C.ar    1  UNL1        0.1556
     27 F           6.2513   -6.5131   27.0279 F       1  UNL1       -0.2028
     28 C           6.5360   -5.0041   29.1236 C.ar    1  UNL1        0.0605
     29 C           6.8707    1.1127   16.7067 C.3     1  UNL1        0.0662
     30 C           6.2892    2.4924   16.7985 C.3     1  UNL1        0.0076
     31 C           6.1615    3.8868   16.2605 C.3     1  UNL1        0.0005
     32 C           5.4097    3.4876   17.4955 C.3     1  UNL1        0.0005
@<TRIPOS>BOND
     1    21    22    1
     2    22    23   ar
     3    23    24   ar
     4    24    25   ar
     5    25    15    1
     6    15    16    1
     7    16    17    1
     8    17    18    1
     9    18    14    1
    10    14     1    1
    11     1     2   ar
    12     2     3   ar
    13     3     4   ar
    14     4     5   ar
    15     5    29    1
    16    29    30    1
    17    30    31    1
    18    31    32    1
    19     5     6   ar
    20     6     7   ar
    21     7     8   ar
    22     8     9   ar
    23     9    10    1
    24    10    11    1
    25    10    12    1
    26    10    13    1
    27    18    19    1
    28    19    20    1
    29    25    26   ar
    30    26    27    1
    31    26    28   ar
    32    28    22   ar
    33    20    15    1
    34     9     1   ar
    35     8     4   ar
    36    32    30    1
@<TRIPOS>MOLECULE
*****
 32 36 0 0 0
SMALL
GASTEIGER

@<TRIPOS>ATOM
      1 C           7.8756   -3.6357   26.9257 C.ar    1  UNL1        0.0023
      2 C           7.8055   -2.3691   27.7261 C.ar    1  UNL1        0.0162
      3 C           7.5103   -2.4258   29.1957 C.ar    1  UNL1        0.0823
      4 N           7.2853   -3.7493   29.8649 N.ar    1  UNL1       -0.2759
      5 C           6.9780   -4.1157   31.2866 C.ar    1  UNL1        0.1471
      6 N           6.8581   -5.6089   31.3649 N.ar    1  UNL1       -0.1330
      7 N           7.0914   -6.1652   29.9916 N.ar    1  UNL1       -0.1288
      8 C           7.3554   -5.0160   29.0645 C.ar    1  UNL1        0.1737
      9 C           7.6505   -4.9592   27.5949 C.ar    1  UNL1        0.1049
     10 C           7.7206   -6.2259   26.7946 C.3     1  UNL1        0.4212
     11 F           7.7907   -7.4926   25.9942 F       1  UNL1       -0.1658
     12 F           9.1923   -6.3182   27.0695 F       1  UNL1       -0.1658
     13 F           6.2489   -6.1336   26.5196 F       1  UNL1       -0.1658
     14 C           8.1708   -3.5790   25.4561 C.3     1  UNL1        0.0993
     15 N           5.0675   -2.0158   22.5967 N.pl3   1  UNL1       -0.3029
     16 C           5.1088   -3.4769   22.9335 C.3     1  UNL1        0.1082
     17 C           6.1432   -3.9980   23.8867 C.3     1  UNL1        0.0941
     18 N           7.1364   -3.0579   24.5030 N.3     1  UNL1       -0.2660
     19 C           7.0952   -1.5968   24.1662 C.3     1  UNL1        0.0941
     20 C           6.0607   -1.0757   23.2131 C.3     1  UNL1        0.1082
     21 F           0.9298    0.0683   18.7841 F       1  UNL1       -0.2041
     22 C           1.9643   -0.4527   19.7373 C.ar    1  UNL1        0.1425
     23 C           3.1856   -1.1476   19.2123 C.ar    1  UNL1        0.0311
     24 C           4.2200   -1.6686   20.1654 C.ar    1  UNL1        0.0191
     25 C           4.0331   -1.4947   21.6436 C.ar    1  UNL1        0.0759
     26 C           2.8118   -0.7999   22.1685 C.ar    1  UNL1        0.1556
     27 F           2.6249   -0.6261   23.6467 F       1  UNL1       -0.2028
     28 C           1.7774   -0.2789   21.2154 C.ar    1  UNL1        0.0605
     29 C           6.8185   -3.1573   32.4293 C.3     1  UNL1        0.0662
     30 C           5.4788   -2.5452   32.7135 C.3     1  UNL1        0.0076
     31 C           4.3323   -2.3060   33.6508 C.3     1  UNL1        0.0005
     32 C           4.3050   -1.7243   32.2684 C.3     1  UNL1        0.0005
@<TRIPOS>BOND
     1    21    22    1
     2    22    23   ar
     3    23    24   ar
     4    24    25   ar
     5    25    15    1
     6    15    16    1
     7    16    17    1
     8    17    18    1
     9    18    14    1
    10    14     1    1
    11     1     2   ar
    12     2     3   ar
    13     3     4   ar
    14     4     5   ar
    15     5    29    1
    16    29    30    1
    17    30    31    1
    18    31    32    1
    19     5     6   ar
    20     6     7   ar
    21     7     8   ar
    22     8     9   ar
    23     9    10    1
    24    10    11    1
    25    10    12    1
    26    10    13    1
    27    18    19    1
    28    19    20    1
    29    25    26   ar
    30    26    27    1
    31    26    28   ar
    32    28    22   ar
    33    20    15    1
    34     9     1   ar
    35     8     4   ar
    36    32    30    1
@<TRIPOS>MOLECULE
*****
 32 36 0 0 0
SMALL
GASTEIGER

@<TRIPOS>ATOM
      1 C           4.0239    0.0522   32.4821 C.ar    1  UNL1        0.0023
      2 C           3.0764    1.1619   32.8299 C.ar    1  UNL1        0.0162
      3 C           2.9654    1.6363   34.2486 C.ar    1  UNL1        0.0823
      4 N           3.8019    1.0011   35.3195 N.ar    1  UNL1       -0.2759
      5 C           3.9074    1.2557   36.7939 C.ar    1  UNL1        0.1471
      6 N           4.9202    0.3034   37.3575 N.ar    1  UNL1       -0.1330
      7 N           5.4405   -0.5397   36.2313 N.ar    1  UNL1       -0.1288
      8 C           4.7494   -0.1086   34.9717 C.ar    1  UNL1        0.1737
      9 C           4.8604   -0.5830   33.5531 C.ar    1  UNL1        0.1049
     10 C           5.8079   -1.6926   33.2053 C.3     1  UNL1        0.4212
     11 F           6.7554   -2.8023   32.8576 F       1  UNL1       -0.1658
     12 F           6.8890   -0.6868   32.9414 F       1  UNL1       -0.1658
     13 F           4.7269   -2.6984   33.4693 F       1  UNL1       -0.1658
     14 C           4.1349   -0.4222   31.0635 C.3     1  UNL1        0.0993
     15 N           1.3540    1.2058   27.9225 N.pl3   1  UNL1       -0.3029
     16 C           0.9548    0.0051   28.7282 C.3     1  UNL1        0.1082
     17 C           1.8817   -0.5375   29.7751 C.3     1  UNL1        0.0941
     18 N           3.2080    0.1205   30.0165 N.3     1  UNL1       -0.2660
     19 C           3.6072    1.3211   29.2109 C.3     1  UNL1        0.0941
     20 C           2.6802    1.8638   28.1639 C.3     1  UNL1        0.1082
     21 F          -2.3541    3.3764   23.7346 F       1  UNL1       -0.2041
     22 C          -1.4270    2.8337   24.7816 C.ar    1  UNL1        0.1425
     23 C          -1.7088    3.0814   26.2339 C.ar    1  UNL1        0.0311
     24 C          -0.7818    2.5387   27.2808 C.ar    1  UNL1        0.0191
     25 C           0.4270    1.7484   26.8755 C.ar    1  UNL1        0.0759
     26 C           0.7087    1.5008   25.4232 C.ar    1  UNL1        0.1556
     27 F           1.9175    0.7105   25.0178 F       1  UNL1       -0.2028
     28 C          -0.2183    2.0435   24.3762 C.ar    1  UNL1        0.0605
     29 C           3.1357    2.2823   37.5688 C.3     1  UNL1        0.0662
     30 C           2.0355    1.8531   38.4936 C.3     1  UNL1        0.0076
     31 C           0.8573    2.1939   39.3573 C.3     1  UNL1        0.0005
     32 C           1.3081    0.7688   39.2319 C.3     1  UNL1        0.0005
@<TRIPOS>BOND
     1    21    22    1
     2    22    23   ar
     3    23    24   ar
     4    24    25   ar
     5    25    15    1
     6    15    16    1
     7    16    17    1
     8    17    18    1
     9    18    14    1
    10    14     1    1
    11     1     2   ar
    12     2     3   ar
    13     3     4   ar
    14     4     5   ar
    15     5    29    1
    16    29    30    1
    17    30    31    1
    18    31    32    1
    19     5     6   ar
    20     6     7   ar
    21     7     8   ar
    22     8     9   ar
    23     9    10    1
    24    10    11    1
    25    10    12    1
    26    10    13    1
    27    18    19    1
    28    19    20    1
    29    25    26   ar
    30    26    27    1
    31    26    28   ar
    32    28    22   ar
    33    20    15    1
    34     9     1   ar
    35     8     4   ar
    36    32    30    1
@<TRIPOS>MOLECULE
*****
 32 36 0 0 0
SMALL
GASTEIGER

@<TRIPOS>ATOM
      1 C           6.5532   -0.5328   20.8878 C.ar    1  UNL1        0.0023
      2 C           5.3885    0.2705   21.3861 C.ar    1  UNL1        0.0162
      3 C           4.1940    0.4859   20.5047 C.ar    1  UNL1        0.0823
      4 N           4.1642   -0.1020   19.1251 N.ar    1  UNL1       -0.2759
      5 C           3.1321   -0.0584   18.0375 C.ar    1  UNL1        0.1471
      6 N           3.6588   -0.8347   16.8671 N.ar    1  UNL1       -0.1330
      7 N           5.0165   -1.3581   17.2313 N.ar    1  UNL1       -0.1288
      8 C           5.3289   -0.9053   18.6268 C.ar    1  UNL1        0.1737
      9 C           6.5233   -1.1207   19.5081 C.ar    1  UNL1        0.1049
     10 C           7.6880   -1.9240   19.0098 C.3     1  UNL1        0.4212
     11 F           8.8527   -2.7273   18.5116 F       1  UNL1       -0.1658
     12 F           8.3484   -0.6668   18.5268 F       1  UNL1       -0.1658
     13 F           7.0276   -3.1812   19.4929 F       1  UNL1       -0.1658
     14 C           7.7476   -0.7481   21.7692 C.3     1  UNL1        0.0993
     15 N           7.9222   -4.3311   24.4861 N.pl3   1  UNL1       -0.3029
     16 C           6.6727   -4.0392   23.7091 C.3     1  UNL1        0.1082
     17 C           6.6145   -2.8449   22.8035 C.3     1  UNL1        0.0941
     18 N           7.8058   -1.9424   22.6748 N.3     1  UNL1       -0.2660
     19 C           9.0553   -2.2343   23.4518 C.3     1  UNL1        0.0941
     20 C           9.1134   -3.4287   24.3575 C.3     1  UNL1        0.1082
     21 F           8.1547   -9.1084   28.1087 F       1  UNL1       -0.2041
     22 C           8.0966   -7.9141   27.2031 C.ar    1  UNL1        0.1425
     23 C           7.8940   -6.5444   27.7801 C.ar    1  UNL1        0.0311
     24 C           7.8358   -5.3502   26.8745 C.ar    1  UNL1        0.0191
     25 C           7.9803   -5.5255   25.3918 C.ar    1  UNL1        0.0759
     26 C           8.1830   -6.8951   24.8147 C.ar    1  UNL1        0.1556
     27 F           8.3275   -7.0705   23.3320 F       1  UNL1       -0.2028
     28 C           8.2411   -8.0894   25.7204 C.ar    1  UNL1        0.0605
     29 C           1.8060    0.6391   18.1080 C.3     1  UNL1        0.0662
     30 C           0.9830    0.5608   19.3596 C.3     1  UNL1        0.0076
     31 C           0.4584   -0.2287   20.5223 C.3     1  UNL1        0.0005
     32 C           0.0819    1.2147   20.3649 C.3     1  UNL1        0.0005
@<TRIPOS>BOND
     1    21    22    1
     2    22    23   ar
     3    23    24   ar
     4    24    25   ar
     5    25    15    1
     6    15    16    1
     7    16    17    1
     8    17    18    1
     9    18    14    1
    10    14     1    1
    11     1     2   ar
    12     2     3   ar
    13     3     4   ar
    14     4     5   ar
    15     5    29    1
    16    29    30    1
    17    30    31    1
    18    31    32    1
    19     5     6   ar
    20     6     7   ar
    21     7     8   ar
    22     8     9   ar
    23     9    10    1
    24    10    11    1
    25    10    12    1
    26    10    13    1
    27    18    19    1
    28    19    20    1
    29    25    26   ar
    30    26    27    1
    31    26    28   ar
    32    28    22   ar
    33    20    15    1
    34     9     1   ar
    35     8     4   ar
    36    32    30    1
@<TRIPOS>MOLECULE
*****
 32 36 0 0 0
SMALL
GASTEIGER

@<TRIPOS>ATOM
      1 C           0.7219    1.7604   19.9645 C.ar    1  UNL1        0.0023
      2 C           0.3596    0.3571   20.3512 C.ar    1  UNL1        0.0162
      3 C           1.4372   -0.6655   20.5593 C.ar    1  UNL1        0.0823
      4 N           2.8770   -0.2847   20.3806 N.ar    1  UNL1       -0.2759
      5 C           4.1474   -1.0708   20.5162 C.ar    1  UNL1        0.1471
      6 N           5.2948   -0.1533   20.2132 N.ar    1  UNL1       -0.1330
      7 N           4.7335    1.1997   19.8904 N.ar    1  UNL1       -0.1288
      8 C           3.2393    1.1185   19.9938 C.ar    1  UNL1        0.1737
      9 C           2.1618    2.1411   19.7857 C.ar    1  UNL1        0.1049
     10 C           2.5241    3.5444   19.3990 C.3     1  UNL1        0.4212
     11 F           2.8863    4.9476   19.0122 F       1  UNL1       -0.1658
     12 F           2.4969    3.1523   17.9513 F       1  UNL1       -0.1658
     13 F           2.5512    3.9364   20.8466 F       1  UNL1       -0.1658
     14 C          -0.3556    2.7829   19.7564 C.3     1  UNL1        0.0993
     15 N          -2.9235    4.0812   23.2162 N.pl3   1  UNL1       -0.3029
     16 C          -1.4294    4.1660   23.3179 C.3     1  UNL1        0.1082
     17 C          -0.5734    3.7333   22.1647 C.3     1  UNL1        0.0941
     18 N          -1.2116    3.2157   20.9097 N.3     1  UNL1       -0.2660
     19 C          -2.7057    3.1309   20.8080 C.3     1  UNL1        0.0941
     20 C          -3.5617    3.5637   21.9613 C.3     1  UNL1        0.1082
     21 F          -6.3472    5.8123   27.8295 F       1  UNL1       -0.2041
     22 C          -5.4913    5.3795   26.6761 C.ar    1  UNL1        0.1425
     23 C          -4.4782    4.2891   26.8618 C.ar    1  UNL1        0.0311
     24 C          -3.6223    3.8564   25.7085 C.ar    1  UNL1        0.0191
     25 C          -3.7795    4.5140   24.3696 C.ar    1  UNL1        0.0759
     26 C          -4.7926    5.6045   24.1839 C.ar    1  UNL1        0.1556
     27 F          -4.9498    6.2622   22.8450 F       1  UNL1       -0.2028
     28 C          -5.6485    6.0372   25.3372 C.ar    1  UNL1        0.0605
     29 C           4.2519   -2.5199   20.8892 C.3     1  UNL1        0.0662
     30 C           4.0374   -3.5794   19.8494 C.3     1  UNL1        0.0076
     31 C           3.1171   -4.4966   19.0998 C.3     1  UNL1        0.0005
     32 C           4.5863   -4.4975   18.7977 C.3     1  UNL1        0.0005
@<TRIPOS>BOND
     1    21    22    1
     2    22    23   ar
     3    23    24   ar
     4    24    25   ar
     5    25    15    1
     6    15    16    1
     7    16    17    1
     8    17    18    1
     9    18    14    1
    10    14     1    1
    11     1     2   ar
    12     2     3   ar
    13     3     4   ar
    14     4     5   ar
    15     5    29    1
    16    29    30    1
    17    30    31    1
    18    31    32    1
    19     5     6   ar
    20     6     7   ar
    21     7     8   ar
    22     8     9   ar
    23     9    10    1
    24    10    11    1
    25    10    12    1
    26    10    13    1
    27    18    19    1
    28    19    20    1
    29    25    26   ar
    30    26    27    1
    31    26    28   ar
    32    28    22   ar
    33    20    15    1
    34     9     1   ar
    35     8     4   ar
    36    32    30    1
@<TRIPOS>MOLECULE
*****
 32 36 0 0 0
SMALL
GASTEIGER

@<TRIPOS>ATOM
      1 C          -3.8819    5.2778   20.7820 C.ar    1  UNL1        0.0023
      2 C          -3.3388    6.1896   21.8420 C.ar    1  UNL1        0.0162
      3 C          -4.0898    6.3770   23.1270 C.ar    1  UNL1        0.0823
      4 N          -5.3839    5.6525   23.3518 N.ar    1  UNL1       -0.2759
      5 C          -6.3390    5.6393   24.5084 C.ar    1  UNL1        0.1471
      6 N          -7.4723    4.7194   24.1632 N.ar    1  UNL1       -0.1330
      7 N          -7.2177    4.1640   22.7932 N.ar    1  UNL1       -0.1288
      8 C          -5.9270    4.7407   22.2918 C.ar    1  UNL1        0.1737
      9 C          -5.1760    4.5534   21.0069 C.ar    1  UNL1        0.1049
     10 C          -5.7191    3.6416   19.9469 C.3     1  UNL1        0.4212
     11 F          -6.2622    2.7298   18.8868 F       1  UNL1       -0.1658
     12 F          -6.5005    4.7825   19.3658 F       1  UNL1       -0.1658
     13 F          -4.9378    2.5006   20.5280 F       1  UNL1       -0.1658
     14 C          -3.1310    5.0905   19.4971 C.3     1  UNL1        0.0993
     15 N           0.2537    2.1330   19.2800 N.pl3   1  UNL1       -0.3029
     16 C          -0.5390    2.2741   20.5456 C.3     1  UNL1        0.1082
     17 C          -1.6672    3.2599   20.6180 C.3     1  UNL1        0.0941
     18 N          -2.0028    4.1047   19.4247 N.3     1  UNL1       -0.2660
     19 C          -1.2101    3.9636   18.1591 C.3     1  UNL1        0.0941
     20 C          -0.0819    2.9777   18.0868 C.3     1  UNL1        0.1082
     21 F           4.7666   -1.8103   18.9905 F       1  UNL1       -0.2041
     22 C           3.6384   -0.8244   19.0629 C.ar    1  UNL1        0.1425
     23 C           3.7687    0.5145   18.3995 C.ar    1  UNL1        0.0311
     24 C           2.6405    1.5003   18.4718 C.ar    1  UNL1        0.0191
     25 C           1.3819    1.1471   19.2076 C.ar    1  UNL1        0.0759
     26 C           1.2516   -0.1918   19.8711 C.ar    1  UNL1        0.1556
     27 F          -0.0069   -0.5450   20.6069 F       1  UNL1       -0.2028
     28 C           2.3799   -1.1776   19.7987 C.ar    1  UNL1        0.0605
     29 C          -6.1873    6.4107   25.7859 C.3     1  UNL1        0.0662
     30 C          -4.9777    6.2029   26.6484 C.3     1  UNL1        0.0076
     31 C          -4.0861    6.6556   27.7665 C.3     1  UNL1        0.0005
     32 C          -3.7743    5.3901   27.0241 C.3     1  UNL1        0.0005
@<TRIPOS>BOND
     1    21    22    1
     2    22    23   ar
     3    23    24   ar
     4    24    25   ar
     5    25    15    1
     6    15    16    1
     7    16    17    1
     8    17    18    1
     9    18    14    1
    10    14     1    1
    11     1     2   ar
    12     2     3   ar
    13     3     4   ar
    14     4     5   ar
    15     5    29    1
    16    29    30    1
    17    30    31    1
    18    31    32    1
    19     5     6   ar
    20     6     7   ar
    21     7     8   ar
    22     8     9   ar
    23     9    10    1
    24    10    11    1
    25    10    12    1
    26    10    13    1
    27    18    19    1
    28    19    20    1
    29    25    26   ar
    30    26    27    1
    31    26    28   ar
    32    28    22   ar
    33    20    15    1
    34     9     1   ar
    35     8     4   ar
    36    32    30    1
@<TRIPOS>MOLECULE
*****
 32 36 0 0 0
SMALL
GASTEIGER

@<TRIPOS>ATOM
      1 C          -2.0352    4.6032   21.6568 C.ar    1  UNL1        0.0023
      2 C          -1.3850    4.7260   23.0029 C.ar    1  UNL1        0.0162
      3 C          -2.2201    4.6659   24.2475 C.ar    1  UNL1        0.0823
      4 N          -3.7054    4.4830   24.1460 N.ar    1  UNL1       -0.2759
      5 C          -4.7786    4.3875   25.1896 C.ar    1  UNL1        0.1471
      6 N          -6.0922    4.2057   24.4885 N.ar    1  UNL1       -0.1330
      7 N          -5.8307    4.1888   23.0115 N.ar    1  UNL1       -0.1288
      8 C          -4.3557    4.3602   22.7998 C.ar    1  UNL1        0.1737
      9 C          -3.5206    4.4203   21.5553 C.ar    1  UNL1        0.1049
     10 C          -4.1709    4.2975   20.2091 C.3     1  UNL1        0.4212
     11 F          -4.8211    4.1747   18.8630 F       1  UNL1       -0.1658
     12 F          -3.9023    2.8217   20.2140 F       1  UNL1       -0.1658
     13 F          -4.4395    5.7732   20.2042 F       1  UNL1       -0.1658
     14 C          -1.2002    4.6633   20.4122 C.3     1  UNL1        0.0993
     15 N           1.5237    1.2386   19.3629 N.pl3   1  UNL1       -0.3029
     16 C           0.3197    1.0020   20.2256 C.3     1  UNL1        0.1082
     17 C          -0.5883    2.1436   20.5754 C.3     1  UNL1        0.0941
     18 N          -0.2922    3.5218   20.0624 N.3     1  UNL1       -0.2660
     19 C           0.9118    3.7583   19.1997 C.3     1  UNL1        0.0941
     20 C           1.8198    2.6166   18.8499 C.3     1  UNL1        0.1082
     21 F           5.1556   -3.3279   17.9638 F       1  UNL1       -0.2041
     22 C           4.2476   -2.1863   18.3135 C.ar    1  UNL1        0.1425
     23 C           3.9974   -1.0942   17.3161 C.ar    1  UNL1        0.0311
     24 C           3.0895    0.0474   17.6659 C.ar    1  UNL1        0.0191
     25 C           2.4317    0.0969   19.0131 C.ar    1  UNL1        0.0759
     26 C           2.6819   -0.9951   20.0105 C.ar    1  UNL1        0.1556
     27 F           2.0241   -0.9456   21.3577 F       1  UNL1       -0.2028
     28 C           3.5898   -2.1367   19.6607 C.ar    1  UNL1        0.0605
     29 C          -4.5742    4.4609   26.6738 C.3     1  UNL1        0.0662
     30 C          -3.9026    5.6574   27.2801 C.3     1  UNL1        0.0076
     31 C          -3.9833    7.0425   27.8501 C.3     1  UNL1        0.0005
     32 C          -2.6587    6.3445   27.7602 C.3     1  UNL1        0.0005
@<TRIPOS>BOND
     1    21    22    1
     2    22    23   ar
     3    23    24   ar
     4    24    25   ar
     5    25    15    1
     6    15    16    1
     7    16    17    1
     8    17    18    1
     9    18    14    1
    10    14     1    1
    11     1     2   ar
    12     2     3   ar
    13     3     4   ar
    14     4     5   ar
    15     5    29    1
    16    29    30    1
    17    30    31    1
    18    31    32    1
    19     5     6   ar
    20     6     7   ar
    21     7     8   ar
    22     8     9   ar
    23     9    10    1
    24    10    11    1
    25    10    12    1
    26    10    13    1
    27    18    19    1
    28    19    20    1
    29    25    26   ar
    30    26    27    1
    31    26    28   ar
    32    28    22   ar
    33    20    15    1
    34     9     1   ar
    35     8     4   ar
    36    32    30    1
