@<TRIPOS>MOLECULE
*****
 27 29 0 0 0
SMALL
GASTEIGER

@<TRIPOS>ATOM
      1 N          -8.1268  -17.4288   22.4762 N.pl3   1  UNL1       -0.3038
      2 C          -9.5284  -17.6764   22.9497 C.ar    1  UNL1        0.0490
      3 C          -9.8140  -18.8133   23.8856 C.ar    1  UNL1        0.0153
      4 C         -11.2157  -19.0609   24.3591 C.ar    1  UNL1        0.0124
      5 C         -12.3316  -18.1716   23.8967 C.ar    1  UNL1        0.0791
      6 C         -12.0459  -17.0347   22.9608 C.ar    1  UNL1        0.0685
      7 CL        -13.1619  -16.1454   22.4984 Cl      1  UNL1       -0.0815
      8 C         -10.6443  -16.7871   22.4873 C.ar    1  UNL1        0.0266
      9 C         -13.7332  -18.4192   24.3702 C.1     1  UNL1        0.1013
     10 N         -15.1348  -18.6668   24.8437 N.1     1  UNL1       -0.1908
     11 C          -4.3956  -20.4901   20.3344 C.3     1  UNL1        0.0897
     12 N          -5.7201  -19.8521   20.6319 N.3     1  UNL1       -0.2700
     13 C          -7.0215  -20.1650   19.9548 C.3     1  UNL1        0.0739
     14 C          -8.0815  -19.2953   20.5633 C.3     1  UNL1        0.0385
     15 C          -7.4351  -18.4450   21.6164 C.3     1  UNL1        0.0904
     16 C          -5.9757  -18.7890   21.6589 C.3     1  UNL1        0.0921
     17 C          -7.4168  -16.1652   22.8625 C.3     1  UNL1        0.1176
     18 C          -7.1208  -15.8823   24.3055 C.ar    1  UNL1        0.0015
     19 C          -8.2462  -15.6789   25.2761 C.ar    1  UNL1       -0.0027
     20 C          -7.9502  -15.3960   26.7191 C.ar    1  UNL1       -0.0003
     21 C          -6.5288  -15.3165   27.1916 C.ar    1  UNL1       -0.0001
     22 C          -5.4033  -15.5200   26.2210 C.ar    1  UNL1        0.0036
     23 C          -5.6993  -15.8028   24.7780 C.ar    1  UNL1        0.0691
     24 C          -4.5739  -16.0063   23.8074 C.3     1  UNL1        0.4183
     25 F          -3.4486  -16.2097   22.8368 F       1  UNL1       -0.1659
     26 F          -4.7933  -14.6256   23.2636 F       1  UNL1       -0.1659
     27 F          -4.3545  -17.3869   24.3511 F       1  UNL1       -0.1659
@<TRIPOS>BOND
     1    11    12    1
     2    12    13    1
     3    13    14    1
     4    14    15    1
     5    15     1    1
     6     1    17    1
     7    17    18    1
     8    18    19   ar
     9    19    20   ar
    10    20    21   ar
    11    21    22   ar
    12    22    23   ar
    13    23    24    1
    14    24    25    1
    15    24    26    1
    16    24    27    1
    17     1     2    1
    18     2     3   ar
    19     3     4   ar
    20     4     5   ar
    21     5     9    1
    22     9    10    3
    23     5     6   ar
    24     6     7    1
    25     6     8   ar
    26    15    16    1
    27    16    12    1
    28    23    18   ar
    29     8     2   ar
@<TRIPOS>MOLECULE
*****
 27 29 0 0 0
SMALL
GASTEIGER

@<TRIPOS>ATOM
      1 N          -7.3832  -18.1876   22.5250 N.pl3   1  UNL1       -0.3038
      2 C          -5.9970  -18.3768   21.9840 C.ar    1  UNL1        0.0490
      3 C          -5.7982  -18.9754   20.6231 C.ar    1  UNL1        0.0153
      4 C          -4.4120  -19.1646   20.0821 C.ar    1  UNL1        0.0124
      5 C          -3.2246  -18.7551   20.9020 C.ar    1  UNL1        0.0791
      6 C          -3.4233  -18.1564   22.2630 C.ar    1  UNL1        0.0685
      7 CL         -2.2359  -17.7469   23.0829 Cl      1  UNL1       -0.0815
      8 C          -4.8095  -17.9673   22.8040 C.ar    1  UNL1        0.0266
      9 C          -1.8384  -18.9442   20.3610 C.1     1  UNL1        0.1013
     10 N          -0.4522  -19.1334   19.8200 N.1     1  UNL1       -0.1908
     11 C          -8.3963  -15.3271   26.8460 C.3     1  UNL1        0.0897
     12 N          -8.1484  -15.7169   25.4190 N.3     1  UNL1       -0.2700
     13 C          -8.1389  -14.7888   24.2405 C.3     1  UNL1        0.0739
     14 C          -7.8510  -15.6015   23.0129 C.3     1  UNL1        0.0385
     15 C          -7.6827  -17.0317   23.4328 C.3     1  UNL1        0.0904
     16 C          -7.8665  -17.1030   24.9198 C.3     1  UNL1        0.0921
     17 C          -8.4698  -19.1544   22.1582 C.3     1  UNL1        0.1176
     18 C          -9.8616  -18.6568   21.9027 C.ar    1  UNL1        0.0015
     19 C         -10.1919  -17.9877   20.6015 C.ar    1  UNL1       -0.0027
     20 C         -11.5837  -17.4901   20.3461 C.ar    1  UNL1       -0.0003
     21 C         -12.6452  -17.6615   21.3919 C.ar    1  UNL1       -0.0001
     22 C         -12.3150  -18.3306   22.6932 C.ar    1  UNL1        0.0036
     23 C         -10.9232  -18.8282   22.9486 C.ar    1  UNL1        0.0691
     24 C         -10.5929  -19.4972   24.2499 C.3     1  UNL1        0.4183
     25 F         -10.2626  -20.1662   25.5511 F       1  UNL1       -0.1659
     26 F         -10.6455  -18.1695   24.9459 F       1  UNL1       -0.1659
     27 F         -10.5402  -20.8249   23.5539 F       1  UNL1       -0.1659
@<TRIPOS>BOND
     1    11    12    1
     2    12    13    1
     3    13    14    1
     4    14    15    1
     5    15     1    1
     6     1    17    1
     7    17    18    1
     8    18    19   ar
     9    19    20   ar
    10    20    21   ar
    11    21    22   ar
    12    22    23   ar
    13    23    24    1
    14    24    25    1
    15    24    26    1
    16    24    27    1
    17     1     2    1
    18     2     3   ar
    19     3     4   ar
    20     4     5   ar
    21     5     9    1
    22     9    10    3
    23     5     6   ar
    24     6     7    1
    25     6     8   ar
    26    15    16    1
    27    16    12    1
    28    23    18   ar
    29     8     2   ar
@<TRIPOS>MOLECULE
*****
 27 29 0 0 0
SMALL
GASTEIGER

@<TRIPOS>ATOM
      1 N          -7.7373  -18.2820   22.9578 N.pl3   1  UNL1       -0.3038
      2 C          -6.3949  -18.4711   22.3159 C.ar    1  UNL1        0.0490
      3 C          -6.2931  -19.1203   20.9675 C.ar    1  UNL1        0.0153
      4 C          -4.9506  -19.3094   20.3256 C.ar    1  UNL1        0.0124
      5 C          -3.7100  -18.8494   21.0321 C.ar    1  UNL1        0.0791
      6 C          -3.8117  -18.2002   22.3805 C.ar    1  UNL1        0.0685
      7 CL         -2.5711  -17.7402   23.0870 Cl      1  UNL1       -0.0815
      8 C          -5.1542  -18.0111   23.0224 C.ar    1  UNL1        0.0266
      9 C          -2.3675  -19.0385   20.3901 C.1     1  UNL1        0.1013
     10 N          -1.0251  -19.2277   19.7482 N.1     1  UNL1       -0.1908
     11 C          -8.4516  -15.2178   27.1982 C.3     1  UNL1        0.0897
     12 N          -8.3193  -15.6781   25.7768 N.3     1  UNL1       -0.2700
     13 C          -8.4432  -14.8158   24.5557 C.3     1  UNL1        0.0739
     14 C          -8.2403  -15.6863   23.3510 C.3     1  UNL1        0.0385
     15 C          -7.9910  -17.0865   23.8277 C.3     1  UNL1        0.0904
     16 C          -8.0398  -17.0814   25.3269 C.3     1  UNL1        0.0921
     17 C          -8.8261  -19.2882   22.7299 C.3     1  UNL1        0.1176
     18 C         -10.2603  -18.9018   22.9392 C.ar    1  UNL1        0.0015
     19 C         -10.8556  -18.9453   24.3153 C.ar    1  UNL1       -0.0027
     20 C         -12.2898  -18.5589   24.5247 C.ar    1  UNL1       -0.0003
     21 C         -13.1287  -18.1291   23.3579 C.ar    1  UNL1       -0.0001
     22 C         -12.5334  -18.0856   21.9817 C.ar    1  UNL1        0.0036
     23 C         -11.0992  -18.4719   21.7724 C.ar    1  UNL1        0.0691
     24 C         -10.5039  -18.4285   20.3963 C.3     1  UNL1        0.4183
     25 F          -9.9086  -18.3850   19.0202 F       1  UNL1       -0.1659
     26 F         -10.9616  -19.8361   20.1538 F       1  UNL1       -0.1659
     27 F         -10.0462  -17.0208   20.6388 F       1  UNL1       -0.1659
@<TRIPOS>BOND
     1    11    12    1
     2    12    13    1
     3    13    14    1
     4    14    15    1
     5    15     1    1
     6     1    17    1
     7    17    18    1
     8    18    19   ar
     9    19    20   ar
    10    20    21   ar
    11    21    22   ar
    12    22    23   ar
    13    23    24    1
    14    24    25    1
    15    24    26    1
    16    24    27    1
    17     1     2    1
    18     2     3   ar
    19     3     4   ar
    20     4     5   ar
    21     5     9    1
    22     9    10    3
    23     5     6   ar
    24     6     7    1
    25     6     8   ar
    26    15    16    1
    27    16    12    1
    28    23    18   ar
    29     8     2   ar
@<TRIPOS>MOLECULE
*****
 27 29 0 0 0
SMALL
GASTEIGER

@<TRIPOS>ATOM
      1 N          -7.3167  -18.8592   21.3801 N.pl3   1  UNL1       -0.3038
      2 C          -5.8396  -18.7961   21.1268 C.ar    1  UNL1        0.0490
      3 C          -5.2996  -19.0953   19.7597 C.ar    1  UNL1        0.0153
      4 C          -3.8225  -19.0322   19.5064 C.ar    1  UNL1        0.0124
      5 C          -2.8854  -18.6699   20.6201 C.ar    1  UNL1        0.0791
      6 C          -3.4253  -18.3707   21.9872 C.ar    1  UNL1        0.0685
      7 CL         -2.4881  -18.0083   23.1009 Cl      1  UNL1       -0.0815
      8 C          -4.9024  -18.4338   22.2406 C.ar    1  UNL1        0.0266
      9 C          -1.4083  -18.6068   20.3667 C.1     1  UNL1        0.1013
     10 N           0.0688  -18.5437   20.1134 N.1     1  UNL1       -0.1908
     11 C          -9.1906  -21.5790   17.2605 C.3     1  UNL1        0.0897
     12 N          -9.0983  -20.6431   18.4289 N.3     1  UNL1       -0.2700
     13 C         -10.2077  -19.7852   18.9613 C.3     1  UNL1        0.0739
     14 C          -9.6753  -19.0125   20.1317 C.3     1  UNL1        0.0385
     15 C          -8.2369  -19.3929   20.3225 C.3     1  UNL1        0.0904
     16 C          -7.8803  -20.4006   19.2702 C.3     1  UNL1        0.0921
     17 C          -7.8736  -18.3887   22.6910 C.3     1  UNL1        0.1176
     18 C          -9.2732  -17.8540   22.7627 C.ar    1  UNL1        0.0015
     19 C          -9.6156  -16.5563   22.0930 C.ar    1  UNL1       -0.0027
     20 C         -11.0152  -16.0216   22.1646 C.ar    1  UNL1       -0.0003
     21 C         -12.0725  -16.7848   22.9060 C.ar    1  UNL1       -0.0001
     22 C         -11.7302  -18.0826   23.5758 C.ar    1  UNL1        0.0036
     23 C         -10.3305  -18.6172   23.5041 C.ar    1  UNL1        0.0691
     24 C          -9.9882  -19.9150   24.1738 C.3     1  UNL1        0.4183
     25 F          -9.6458  -21.2127   24.8436 F       1  UNL1       -0.1659
     26 F          -9.6741  -19.1778   25.4418 F       1  UNL1       -0.1659
     27 F         -10.3023  -20.6522   22.9059 F       1  UNL1       -0.1659
@<TRIPOS>BOND
     1    11    12    1
     2    12    13    1
     3    13    14    1
     4    14    15    1
     5    15     1    1
     6     1    17    1
     7    17    18    1
     8    18    19   ar
     9    19    20   ar
    10    20    21   ar
    11    21    22   ar
    12    22    23   ar
    13    23    24    1
    14    24    25    1
    15    24    26    1
    16    24    27    1
    17     1     2    1
    18     2     3   ar
    19     3     4   ar
    20     4     5   ar
    21     5     9    1
    22     9    10    3
    23     5     6   ar
    24     6     7    1
    25     6     8   ar
    26    15    16    1
    27    16    12    1
    28    23    18   ar
    29     8     2   ar
@<TRIPOS>MOLECULE
*****
 27 29 0 0 0
SMALL
GASTEIGER

@<TRIPOS>ATOM
      1 N          -7.9242  -17.5651   22.2421 N.pl3   1  UNL1       -0.3038
      2 C          -9.3095  -17.7750   22.7776 C.ar    1  UNL1        0.0490
      3 C          -9.5885  -18.9170   23.7092 C.ar    1  UNL1        0.0153
      4 C         -10.9739  -19.1268   24.2447 C.ar    1  UNL1        0.0124
      5 C         -12.0802  -18.1946   23.8487 C.ar    1  UNL1        0.0791
      6 C         -11.8013  -17.0524   22.9171 C.ar    1  UNL1        0.0685
      7 CL        -12.9076  -16.1202   22.5211 Cl      1  UNL1       -0.0815
      8 C         -10.4159  -16.8426   22.3816 C.ar    1  UNL1        0.0266
      9 C         -13.4656  -18.4044   24.3842 C.1     1  UNL1        0.1013
     10 N         -14.8509  -18.6142   24.9197 N.1     1  UNL1       -0.1908
     11 C          -4.3297  -20.7571   20.0579 C.3     1  UNL1        0.0897
     12 N          -5.6306  -20.0855   20.3840 N.3     1  UNL1       -0.2700
     13 C          -6.9612  -20.3924   19.7631 C.3     1  UNL1        0.0739
     14 C          -7.9824  -19.4855   20.3837 C.3     1  UNL1        0.0385
     15 C          -7.2828  -18.6183   21.3879 C.3     1  UNL1        0.0904
     16 C          -5.8294  -18.9891   21.3881 C.3     1  UNL1        0.0921
     17 C          -7.1802  -16.3022   22.5607 C.3     1  UNL1        0.1176
     18 C          -6.3972  -16.1943   23.8355 C.ar    1  UNL1        0.0015
     19 C          -4.9498  -16.5873   23.8622 C.ar    1  UNL1       -0.0027
     20 C          -4.1667  -16.4793   25.1370 C.ar    1  UNL1       -0.0003
     21 C          -4.8310  -15.9785   26.3851 C.ar    1  UNL1       -0.0001
     22 C          -6.2784  -15.5855   26.3585 C.ar    1  UNL1        0.0036
     23 C          -7.0615  -15.6934   25.0837 C.ar    1  UNL1        0.0691
     24 C          -8.5089  -15.3005   25.0570 C.3     1  UNL1        0.4183
     25 F          -9.9562  -14.9076   25.0303 F       1  UNL1       -0.1659
     26 F          -8.1616  -14.0751   24.2647 F       1  UNL1       -0.1659
     27 F          -8.8561  -16.5259   25.8493 F       1  UNL1       -0.1659
@<TRIPOS>BOND
     1    11    12    1
     2    12    13    1
     3    13    14    1
     4    14    15    1
     5    15     1    1
     6     1    17    1
     7    17    18    1
     8    18    19   ar
     9    19    20   ar
    10    20    21   ar
    11    21    22   ar
    12    22    23   ar
    13    23    24    1
    14    24    25    1
    15    24    26    1
    16    24    27    1
    17     1     2    1
    18     2     3   ar
    19     3     4   ar
    20     4     5   ar
    21     5     9    1
    22     9    10    3
    23     5     6   ar
    24     6     7    1
    25     6     8   ar
    26    15    16    1
    27    16    12    1
    28    23    18   ar
    29     8     2   ar
@<TRIPOS>MOLECULE
*****
 27 29 0 0 0
SMALL
GASTEIGER

@<TRIPOS>ATOM
      1 N          -7.1042  -19.5073   21.3897 N.pl3   1  UNL1       -0.3038
      2 C          -5.6515  -19.2236   21.1464 C.ar    1  UNL1        0.0490
      3 C          -5.0498  -19.4945   19.7994 C.ar    1  UNL1        0.0153
      4 C          -3.5971  -19.2108   19.5560 C.ar    1  UNL1        0.0124
      5 C          -2.7461  -18.6561   20.6597 C.ar    1  UNL1        0.0791
      6 C          -3.3479  -18.3852   22.0068 C.ar    1  UNL1        0.0685
      7 CL         -2.4969  -17.8305   23.1105 Cl      1  UNL1       -0.0815
      8 C          -4.8005  -18.6689   22.2501 C.ar    1  UNL1        0.0266
      9 C          -1.2935  -18.3724   20.4164 C.1     1  UNL1        0.1013
     10 N           0.1592  -18.0887   20.1731 N.1     1  UNL1       -0.1908
     11 C          -9.1947  -21.5898   17.0109 C.3     1  UNL1        0.0897
     12 N          -8.9822  -20.7270   18.2193 N.3     1  UNL1       -0.2700
     13 C          -9.8829  -19.6203   18.6819 C.3     1  UNL1        0.0739
     14 C          -9.2889  -19.0286   19.9259 C.3     1  UNL1        0.0385
     15 C          -8.0213  -19.7698   20.2320 C.3     1  UNL1        0.0904
     16 C          -7.8317  -20.8194   19.1773 C.3     1  UNL1        0.0921
     17 C          -7.6398  -19.5286   22.7906 C.3     1  UNL1        0.1176
     18 C          -8.9940  -18.9544   23.0846 C.ar    1  UNL1        0.0015
     19 C         -10.1918  -19.8547   23.1524 C.ar    1  UNL1       -0.0027
     20 C         -11.5460  -19.2804   23.4464 C.ar    1  UNL1       -0.0003
     21 C         -11.7023  -17.8059   23.6727 C.ar    1  UNL1       -0.0001
     22 C         -10.5045  -16.9055   23.6049 C.ar    1  UNL1        0.0036
     23 C          -9.1503  -17.4797   23.3109 C.ar    1  UNL1        0.0691
     24 C          -7.9525  -16.5794   23.2431 C.3     1  UNL1        0.4183
     25 F          -6.7547  -15.6792   23.1754 F       1  UNL1       -0.1659
     26 F          -7.8058  -16.6624   24.7336 F       1  UNL1       -0.1659
     27 F          -8.0992  -16.4965   21.7527 F       1  UNL1       -0.1659
@<TRIPOS>BOND
     1    11    12    1
     2    12    13    1
     3    13    14    1
     4    14    15    1
     5    15     1    1
     6     1    17    1
     7    17    18    1
     8    18    19   ar
     9    19    20   ar
    10    20    21   ar
    11    21    22   ar
    12    22    23   ar
    13    23    24    1
    14    24    25    1
    15    24    26    1
    16    24    27    1
    17     1     2    1
    18     2     3   ar
    19     3     4   ar
    20     4     5   ar
    21     5     9    1
    22     9    10    3
    23     5     6   ar
    24     6     7    1
    25     6     8   ar
    26    15    16    1
    27    16    12    1
    28    23    18   ar
    29     8     2   ar
@<TRIPOS>MOLECULE
*****
 27 29 0 0 0
SMALL
GASTEIGER

@<TRIPOS>ATOM
      1 N         -13.5593   -4.4469   18.8718 N.pl3   1  UNL1       -0.3038
      2 C         -14.6312   -3.4506   19.2011 C.ar    1  UNL1        0.0490
      3 C         -14.3126   -1.9850   19.2205 C.ar    1  UNL1        0.0153
      4 C         -15.3845   -0.9888   19.5498 C.ar    1  UNL1        0.0124
      5 C         -16.7751   -1.4581   19.8596 C.ar    1  UNL1        0.0791
      6 C         -17.0938   -2.9238   19.8401 C.ar    1  UNL1        0.0685
      7 CL        -18.4843   -3.3931   20.1499 Cl      1  UNL1       -0.0815
      8 C         -16.0218   -3.9201   19.5109 C.ar    1  UNL1        0.0266
      9 C         -17.8470   -0.4618   20.1888 C.1     1  UNL1        0.1013
     10 N         -18.9190    0.5344   20.5180 N.1     1  UNL1       -0.1908
     11 C         -14.9278   -9.4670   17.9740 C.3     1  UNL1        0.0897
     12 N         -14.5423   -8.0334   17.7598 N.3     1  UNL1       -0.2700
     13 C         -14.3736   -7.3545   16.4328 C.3     1  UNL1        0.0739
     14 C         -13.9848   -5.9283   16.6879 C.3     1  UNL1        0.0385
     15 C         -13.9133   -5.7259   18.1725 C.3     1  UNL1        0.0904
     16 C         -14.2578   -7.0268   18.8349 C.3     1  UNL1        0.0921
     17 C         -12.1334   -4.1643   19.2419 C.3     1  UNL1        0.1176
     18 C         -11.1231   -3.8783   18.1707 C.ar    1  UNL1        0.0015
     19 C         -11.1717   -2.5799   17.4212 C.ar    1  UNL1       -0.0027
     20 C         -10.1614   -2.2940   16.3500 C.ar    1  UNL1       -0.0003
     21 C          -9.1025   -3.3065   16.0282 C.ar    1  UNL1       -0.0001
     22 C          -9.0538   -4.6049   16.7777 C.ar    1  UNL1        0.0036
     23 C         -10.0641   -4.8909   17.8489 C.ar    1  UNL1        0.0691
     24 C         -10.0155   -6.1893   18.5984 C.3     1  UNL1        0.4183
     25 F          -9.9669   -7.4877   19.3479 F       1  UNL1       -0.1659
     26 F         -10.8646   -6.8311   17.5415 F       1  UNL1       -0.1659
     27 F          -9.1664   -5.5474   19.6553 F       1  UNL1       -0.1659
@<TRIPOS>BOND
     1    11    12    1
     2    12    13    1
     3    13    14    1
     4    14    15    1
     5    15     1    1
     6     1    17    1
     7    17    18    1
     8    18    19   ar
     9    19    20   ar
    10    20    21   ar
    11    21    22   ar
    12    22    23   ar
    13    23    24    1
    14    24    25    1
    15    24    26    1
    16    24    27    1
    17     1     2    1
    18     2     3   ar
    19     3     4   ar
    20     4     5   ar
    21     5     9    1
    22     9    10    3
    23     5     6   ar
    24     6     7    1
    25     6     8   ar
    26    15    16    1
    27    16    12    1
    28    23    18   ar
    29     8     2   ar
@<TRIPOS>MOLECULE
*****
 27 29 0 0 0
SMALL
GASTEIGER

@<TRIPOS>ATOM
      1 N          -8.0173  -18.9199   21.7150 N.pl3   1  UNL1       -0.3038
      2 C          -8.1621  -18.0694   22.9421 C.ar    1  UNL1        0.0490
      3 C          -8.7881  -18.6395   24.1802 C.ar    1  UNL1        0.0153
      4 C          -8.9330  -17.7890   25.4072 C.ar    1  UNL1        0.0124
      5 C          -8.4519  -16.3683   25.3961 C.ar    1  UNL1        0.0791
      6 C          -7.8259  -15.7980   24.1579 C.ar    1  UNL1        0.0685
      7 CL         -7.3448  -14.3774   24.1468 Cl      1  UNL1       -0.0815
      8 C          -7.6810  -16.6486   22.9309 C.ar    1  UNL1        0.0266
      9 C          -8.5968  -15.5177   26.6231 C.1     1  UNL1        0.1013
     10 N          -8.7417  -14.6672   27.8502 N.1     1  UNL1       -0.1908
     11 C          -2.8019  -19.7238   21.5318 C.3     1  UNL1        0.0897
     12 N          -4.2688  -19.8019   21.2288 N.3     1  UNL1       -0.2700
     13 C          -4.9048  -20.6404   20.1599 C.3     1  UNL1        0.0739
     14 C          -6.3865  -20.4120   20.2120 C.3     1  UNL1        0.0385
     15 C          -6.6660  -19.4324   21.3130 C.3     1  UNL1        0.0904
     16 C          -5.3573  -19.0554   21.9414 C.3     1  UNL1        0.0921
     17 C          -9.2235  -19.2579   20.8901 C.3     1  UNL1        0.1176
     18 C         -10.3915  -18.3176   20.8488 C.ar    1  UNL1        0.0015
     19 C         -10.4268  -17.2094   19.8386 C.ar    1  UNL1       -0.0027
     20 C         -11.5948  -16.2691   19.7973 C.ar    1  UNL1       -0.0003
     21 C         -12.7273  -16.4369   20.7664 C.ar    1  UNL1       -0.0001
     22 C         -12.6920  -17.5451   21.7767 C.ar    1  UNL1        0.0036
     23 C         -11.5241  -18.4855   21.8180 C.ar    1  UNL1        0.0691
     24 C         -11.4887  -19.5936   22.8282 C.3     1  UNL1        0.4183
     25 F         -11.4533  -20.7018   23.8385 F       1  UNL1       -0.1659
     26 F         -11.2277  -20.5842   21.7325 F       1  UNL1       -0.1659
     27 F         -11.7497  -18.6030   23.9239 F       1  UNL1       -0.1659
@<TRIPOS>BOND
     1    11    12    1
     2    12    13    1
     3    13    14    1
     4    14    15    1
     5    15     1    1
     6     1    17    1
     7    17    18    1
     8    18    19   ar
     9    19    20   ar
    10    20    21   ar
    11    21    22   ar
    12    22    23   ar
    13    23    24    1
    14    24    25    1
    15    24    26    1
    16    24    27    1
    17     1     2    1
    18     2     3   ar
    19     3     4   ar
    20     4     5   ar
    21     5     9    1
    22     9    10    3
    23     5     6   ar
    24     6     7    1
    25     6     8   ar
    26    15    16    1
    27    16    12    1
    28    23    18   ar
    29     8     2   ar
@<TRIPOS>MOLECULE
*****
 27 29 0 0 0
SMALL
GASTEIGER

@<TRIPOS>ATOM
      1 N          -8.1068  -18.1645   21.8940 N.pl3   1  UNL1       -0.3038
      2 C          -8.0977  -17.3722   23.1677 C.ar    1  UNL1        0.0490
      3 C          -7.4723  -16.0092   23.1986 C.ar    1  UNL1        0.0153
      4 C          -7.4632  -15.2169   24.4723 C.ar    1  UNL1        0.0124
      5 C          -8.0794  -15.7877   25.7150 C.ar    1  UNL1        0.0791
      6 C          -8.7048  -17.1508   25.6841 C.ar    1  UNL1        0.0685
      7 CL         -9.3210  -17.7216   26.9269 Cl      1  UNL1       -0.0815
      8 C          -8.7139  -17.9431   24.4105 C.ar    1  UNL1        0.0266
      9 C          -8.0703  -14.9954   26.9887 C.1     1  UNL1        0.1013
     10 N          -8.0611  -14.2032   28.2624 N.1     1  UNL1       -0.1908
     11 C          -3.0844  -19.7521   21.5267 C.3     1  UNL1        0.0897
     12 N          -4.5548  -19.6005   21.2724 N.3     1  UNL1       -0.2700
     13 C          -5.3451  -20.3148   20.2163 C.3     1  UNL1        0.0739
     14 C          -6.7719  -19.8638   20.3206 C.3     1  UNL1        0.0385
     15 C          -6.8633  -18.8708   21.4412 C.3     1  UNL1        0.0904
     16 C          -5.4931  -18.7081   22.0294 C.3     1  UNL1        0.0921
     17 C          -9.3593  -18.2505   21.0732 C.3     1  UNL1        0.1176
     18 C         -10.6937  -18.0062   21.7133 C.ar    1  UNL1        0.0015
     19 C         -11.1992  -18.9394   22.7733 C.ar    1  UNL1       -0.0027
     20 C         -12.5336  -18.6952   23.4133 C.ar    1  UNL1       -0.0003
     21 C         -13.3626  -17.5178   22.9934 C.ar    1  UNL1       -0.0001
     22 C         -12.8571  -16.5845   21.9333 C.ar    1  UNL1        0.0036
     23 C         -11.5227  -16.8287   21.2933 C.ar    1  UNL1        0.0691
     24 C         -11.0173  -15.8955   20.2333 C.3     1  UNL1        0.4183
     25 F         -10.5119  -14.9623   19.1733 F       1  UNL1       -0.1659
     26 F         -10.1015  -15.2551   21.2338 F       1  UNL1       -0.1659
     27 F         -11.9331  -16.5360   19.2328 F       1  UNL1       -0.1659
@<TRIPOS>BOND
     1    11    12    1
     2    12    13    1
     3    13    14    1
     4    14    15    1
     5    15     1    1
     6     1    17    1
     7    17    18    1
     8    18    19   ar
     9    19    20   ar
    10    20    21   ar
    11    21    22   ar
    12    22    23   ar
    13    23    24    1
    14    24    25    1
    15    24    26    1
    16    24    27    1
    17     1     2    1
    18     2     3   ar
    19     3     4   ar
    20     4     5   ar
    21     5     9    1
    22     9    10    3
    23     5     6   ar
    24     6     7    1
    25     6     8   ar
    26    15    16    1
    27    16    12    1
    28    23    18   ar
    29     8     2   ar
