@<TRIPOS>MOLECULE
*****
 22 25 0 0 0
SMALL
GASTEIGER

@<TRIPOS>ATOM
      1 C         -10.5983  -17.5418   22.5816 C.3     1  UNL1        0.0369
      2 C         -11.5547  -18.5014   21.9380 C.3     1  UNL1        0.0225
      3 C         -12.6891  -17.7080   21.3604 C.3     1  UNL1        0.0689
      4 N         -12.4338  -16.2579   21.6470 N.3     1  UNL1       -0.2972
      5 C         -11.1416  -16.1551   22.4018 C.3     1  UNL1        0.0727
      6 H         -13.1945  -15.8771   22.2098 H       1  UNL1        0.1233
      7 C          -9.4794  -16.8413   23.2940 C.2     1  UNL1       -0.0386
      8 C          -8.4730  -16.0489   22.5135 C.2     1  UNL1       -0.0066
      9 C          -7.3541  -15.3484   23.2259 C.2     1  UNL1        0.0182
     10 C          -7.2417  -15.4404   24.7188 C.2     1  UNL1        0.0777
     11 N          -6.2546  -14.8614   25.6886 N.2     1  UNL1       -0.2442
     12 C          -6.6510  -15.2959   27.0684 C.2     1  UNL1        0.0985
     13 C          -7.8831  -16.1435   26.9515 C.2     1  UNL1        0.0182
     14 C          -8.2482  -16.2328   25.4994 C.2     1  UNL1        0.0011
     15 C          -9.3670  -16.9332   24.7869 C.3     1  UNL1        0.0499
     16 C          -9.8211  -18.7818   22.9103 C.3     1  UNL1        0.0509
     17 C          -6.5220  -20.1599   20.1777 C.ar    1  UNL1        0.0207
     18 C          -6.4180  -20.3928   21.6559 C.ar    1  UNL1        0.0028
     19 C          -7.5177  -19.9335   22.5667 C.ar    1  UNL1        0.0147
     20 C          -8.7214  -19.2412   21.9995 C.ar    1  UNL1        0.0594
     21 N          -8.8254  -19.0082   20.5213 N.ar    1  UNL1       -0.2481
     22 C          -7.7257  -19.4675   19.6104 C.ar    1  UNL1        0.0984
@<TRIPOS>BOND
     1    17    18   ar
     2    18    19   ar
     3    19    20   ar
     4    20    16    1
     5    16     1    1
     6     1     7    1
     7     7     8    2
     8     8     9    1
     9     9    10    2
    10    10    11    1
    11    11    12    2
    12    12    13    1
    13    13    14    2
    14    14    15    1
    15     1     2    1
    16     2     3    1
    17     3     4    1
    18     4     5    1
    19    20    21   ar
    20    21    22   ar
    21    22    17   ar
    22     5     1    1
    23    15     7    1
    24    14    10    1
    25     4     6    1
@<TRIPOS>MOLECULE
*****
 22 25 0 0 0
SMALL
GASTEIGER

@<TRIPOS>ATOM
      1 C          -7.6908  -15.9116   24.8976 C.3     1  UNL1        0.0369
      2 C          -6.3466  -15.2741   25.0888 C.3     1  UNL1        0.0225
      3 C          -6.2136  -14.8975   26.5347 C.3     1  UNL1        0.0689
      4 N          -7.4756  -15.3024   27.2371 N.3     1  UNL1       -0.2972
      5 C          -8.3886  -15.9291   26.2254 C.3     1  UNL1        0.0727
      6 H          -7.9230  -14.4817   27.6456 H       1  UNL1        0.1233
      7 C          -8.9440  -16.5746   24.4075 C.2     1  UNL1       -0.0386
      8 C          -9.4574  -17.8067   25.0916 C.2     1  UNL1       -0.0066
      9 C         -10.7106  -18.4696   24.6014 C.2     1  UNL1        0.0182
     10 C         -11.4502  -17.9002   23.4272 C.2     1  UNL1        0.0777
     11 N         -12.7031  -18.3324   22.7247 N.2     1  UNL1       -0.2442
     12 C         -12.9639  -17.3672   21.6065 C.2     1  UNL1        0.0985
     13 C         -11.8722  -16.3386   21.6179 C.2     1  UNL1        0.0182
     14 C         -10.9367  -16.6680   22.7431 C.2     1  UNL1        0.0011
     15 C          -9.6836  -16.0052   23.2333 C.3     1  UNL1        0.0499
     16 C          -7.2550  -16.0328   23.4675 C.3     1  UNL1        0.0509
     17 C          -4.4958  -19.3655   22.2308 C.ar    1  UNL1        0.0207
     18 C          -5.9672  -19.4702   21.9590 C.ar    1  UNL1        0.0028
     19 C          -6.8870  -18.3593   22.3713 C.ar    1  UNL1        0.0147
     20 C          -6.3353  -17.1437   23.0553 C.ar    1  UNL1        0.0594
     21 N          -4.8638  -17.0390   23.3270 N.ar    1  UNL1       -0.2481
     22 C          -3.9440  -18.1498   22.9148 C.ar    1  UNL1        0.0984
@<TRIPOS>BOND
     1    17    18   ar
     2    18    19   ar
     3    19    20   ar
     4    20    16    1
     5    16     1    1
     6     1     7    1
     7     7     8    2
     8     8     9    1
     9     9    10    2
    10    10    11    1
    11    11    12    2
    12    12    13    1
    13    13    14    2
    14    14    15    1
    15     1     2    1
    16     2     3    1
    17     3     4    1
    18     4     5    1
    19    20    21   ar
    20    21    22   ar
    21    22    17   ar
    22     5     1    1
    23    15     7    1
    24    14    10    1
    25     4     6    1
@<TRIPOS>MOLECULE
*****
 22 25 0 0 0
SMALL
GASTEIGER

@<TRIPOS>ATOM
      1 C          -7.7216  -16.9596   23.4700 C.3     1  UNL1        0.0369
      2 C          -8.8881  -16.3296   24.1716 C.3     1  UNL1        0.0225
      3 C          -8.3919  -15.1125   24.8944 C.3     1  UNL1        0.0689
      4 N          -6.9188  -14.9903   24.6395 N.3     1  UNL1       -0.2972
      5 C          -6.5044  -16.1319   23.7592 C.3     1  UNL1        0.0727
      6 H          -6.4101  -15.0319   25.5226 H       1  UNL1        0.1233
      7 C          -6.7677  -17.7995   22.6731 C.2     1  UNL1       -0.0386
      8 C          -7.2822  -18.6790   21.5724 C.2     1  UNL1       -0.0066
      9 C          -6.3284  -19.5189   20.7755 C.2     1  UNL1        0.0182
     10 C          -4.8600  -19.4790   21.0794 C.2     1  UNL1        0.0777
     11 N          -3.6890  -20.1900   20.4685 N.2     1  UNL1       -0.2442
     12 C          -2.4508  -19.7498   21.1917 C.2     1  UNL1        0.0985
     13 C          -2.8565  -18.7667   22.2495 C.2     1  UNL1        0.0182
     14 C          -4.3455  -18.5993   22.1801 C.2     1  UNL1        0.0011
     15 C          -5.2994  -17.7596   22.9769 C.3     1  UNL1        0.0499
     16 C          -8.7392  -17.9629   23.0142 C.3     1  UNL1        0.0509
     17 C         -12.5317  -16.5772   21.0275 C.ar    1  UNL1        0.0207
     18 C         -12.5946  -17.5476   22.1696 C.ar    1  UNL1        0.0028
     19 C         -11.3304  -18.0095   22.8318 C.ar    1  UNL1        0.0147
     20 C         -10.0034  -17.5010   22.3519 C.ar    1  UNL1        0.0594
     21 N          -9.9405  -16.5306   21.2098 N.ar    1  UNL1       -0.2481
     22 C         -11.2046  -16.0687   20.5475 C.ar    1  UNL1        0.0984
@<TRIPOS>BOND
     1    17    18   ar
     2    18    19   ar
     3    19    20   ar
     4    20    16    1
     5    16     1    1
     6     1     7    1
     7     7     8    2
     8     8     9    1
     9     9    10    2
    10    10    11    1
    11    11    12    2
    12    12    13    1
    13    13    14    2
    14    14    15    1
    15     1     2    1
    16     2     3    1
    17     3     4    1
    18     4     5    1
    19    20    21   ar
    20    21    22   ar
    21    22    17   ar
    22     5     1    1
    23    15     7    1
    24    14    10    1
    25     4     6    1
@<TRIPOS>MOLECULE
*****
 22 25 0 0 0
SMALL
GASTEIGER

@<TRIPOS>ATOM
      1 C          -6.6555  -17.0849   23.0914 C.3     1  UNL1        0.0369
      2 C          -5.1995  -16.9922   23.4396 C.3     1  UNL1        0.0225
      3 C          -4.9209  -15.5917   23.8988 C.3     1  UNL1        0.0689
      4 N          -6.2048  -14.8187   23.8345 N.3     1  UNL1       -0.2972
      5 C          -7.2769  -15.7415   23.3354 C.3     1  UNL1        0.0727
      6 H          -6.1023  -14.0299   23.1960 H       1  UNL1        0.1233
      7 C          -8.0424  -17.4753   22.6740 C.2     1  UNL1       -0.0386
      8 C          -8.5043  -18.8928   22.8391 C.2     1  UNL1       -0.0066
      9 C          -9.8911  -19.2833   22.4217 C.2     1  UNL1        0.0182
     10 C         -10.8161  -18.2561   21.8390 C.2     1  UNL1        0.0777
     11 N         -12.2282  -18.3446   21.3409 N.2     1  UNL1       -0.2442
     12 C         -12.6390  -16.9817   20.8679 C.2     1  UNL1        0.0985
     13 C         -11.4808  -16.0509   21.0737 C.2     1  UNL1        0.0182
     14 C         -10.3542  -16.8386   21.6739 C.2     1  UNL1        0.0011
     15 C          -8.9673  -16.4482   22.0913 C.3     1  UNL1        0.0499
     16 C          -6.3242  -18.5097   22.7602 C.3     1  UNL1        0.0509
     17 C          -2.8383  -19.4425   20.0715 C.ar    1  UNL1        0.0207
     18 C          -2.7399  -19.7043   21.5452 C.ar    1  UNL1        0.0028
     19 C          -3.9019  -19.3934   22.4414 C.ar    1  UNL1        0.0147
     20 C          -5.1622  -18.8207   21.8639 C.ar    1  UNL1        0.0594
     21 N          -5.2606  -18.5588   20.3902 N.ar    1  UNL1       -0.2481
     22 C          -4.0987  -18.8697   19.4940 C.ar    1  UNL1        0.0984
@<TRIPOS>BOND
     1    17    18   ar
     2    18    19   ar
     3    19    20   ar
     4    20    16    1
     5    16     1    1
     6     1     7    1
     7     7     8    2
     8     8     9    1
     9     9    10    2
    10    10    11    1
    11    11    12    2
    12    12    13    1
    13    13    14    2
    14    14    15    1
    15     1     2    1
    16     2     3    1
    17     3     4    1
    18     4     5    1
    19    20    21   ar
    20    21    22   ar
    21    22    17   ar
    22     5     1    1
    23    15     7    1
    24    14    10    1
    25     4     6    1
@<TRIPOS>MOLECULE
*****
 22 25 0 0 0
SMALL
GASTEIGER

@<TRIPOS>ATOM
      1 C          -7.6300  -16.0663   24.8709 C.3     1  UNL1        0.0369
      2 C          -6.5119  -15.4399   25.6501 C.3     1  UNL1        0.0225
      3 C          -6.9084  -15.4217   27.0967 C.3     1  UNL1        0.0689
      4 N          -8.2716  -16.0369   27.2114 N.3     1  UNL1       -0.2972
      5 C          -8.7176  -16.4353   25.8359 C.3     1  UNL1        0.0727
      6 H          -8.9251  -15.3595   27.6046 H       1  UNL1        0.1233
      7 C          -8.5616  -16.6408   23.8451 C.2     1  UNL1       -0.0386
      8 C          -9.0099  -15.8017   22.6855 C.2     1  UNL1       -0.0066
      9 C          -9.9415  -16.3761   21.6597 C.2     1  UNL1        0.0182
     10 C         -10.4247  -17.7898   21.7937 C.2     1  UNL1        0.0777
     11 N         -11.3401  -18.6222   20.9456 N.2     1  UNL1       -0.2442
     12 C         -11.4575  -19.9758   21.5811 C.2     1  UNL1        0.0985
     13 C         -10.6147  -19.9801   22.8219 C.2     1  UNL1        0.0182
     14 C          -9.9764  -18.6290   22.9533 C.2     1  UNL1        0.0011
     15 C          -9.0448  -18.0545   23.9790 C.3     1  UNL1        0.0499
     16 C          -6.7373  -15.8175   23.6915 C.3     1  UNL1        0.0509
     17 C          -3.7343  -18.9292   22.4467 C.ar    1  UNL1        0.0207
     18 C          -3.3194  -17.8052   23.3491 C.ar    1  UNL1        0.0028
     19 C          -4.3204  -16.7679   23.7640 C.ar    1  UNL1        0.0147
     20 C          -5.7363  -16.8547   23.2766 C.ar    1  UNL1        0.0594
     21 N          -6.1512  -17.9788   22.3742 N.ar    1  UNL1       -0.2481
     22 C          -5.1503  -19.0161   21.9592 C.ar    1  UNL1        0.0984
@<TRIPOS>BOND
     1    17    18   ar
     2    18    19   ar
     3    19    20   ar
     4    20    16    1
     5    16     1    1
     6     1     7    1
     7     7     8    2
     8     8     9    1
     9     9    10    2
    10    10    11    1
    11    11    12    2
    12    12    13    1
    13    13    14    2
    14    14    15    1
    15     1     2    1
    16     2     3    1
    17     3     4    1
    18     4     5    1
    19    20    21   ar
    20    21    22   ar
    21    22    17   ar
    22     5     1    1
    23    15     7    1
    24    14    10    1
    25     4     6    1
@<TRIPOS>MOLECULE
*****
 22 25 0 0 0
SMALL
GASTEIGER

@<TRIPOS>ATOM
      1 C          -7.3951  -16.8475   23.2055 C.3     1  UNL1        0.0369
      2 C          -5.9379  -17.1415   23.4057 C.3     1  UNL1        0.0225
      3 C          -5.2100  -15.8334   23.5012 C.3     1  UNL1        0.0689
      4 N          -6.2174  -14.7310   23.3600 N.3     1  UNL1       -0.2972
      5 C          -7.5679  -15.3577   23.1773 C.3     1  UNL1        0.0727
      6 H          -5.9899  -14.1561   22.5487 H       1  UNL1        0.1233
      7 C          -8.8812  -16.8657   23.0023 C.2     1  UNL1       -0.0386
      8 C          -9.4992  -16.0424   21.9114 C.2     1  UNL1       -0.0066
      9 C         -10.9853  -16.0606   21.7082 C.2     1  UNL1        0.0182
     10 C         -11.8534  -16.9021   22.5961 C.2     1  UNL1        0.0777
     11 N         -13.3370  -17.1197   22.6349 N.2     1  UNL1       -0.2442
     12 C         -13.6359  -18.0776   23.7498 C.2     1  UNL1        0.0985
     13 C         -12.3370  -18.4519   24.4001 C.2     1  UNL1        0.0182
     14 C         -11.2354  -17.7254   23.6870 C.2     1  UNL1        0.0011
     15 C          -9.7493  -17.7072   23.8902 C.3     1  UNL1        0.0499
     16 C          -7.5332  -18.3410   23.1913 C.3     1  UNL1        0.0509
     17 C          -6.6708  -20.6444   19.4229 C.ar    1  UNL1        0.0207
     18 C          -5.8724  -20.9113   20.6643 C.ar    1  UNL1        0.0028
     19 C          -6.1598  -20.1434   21.9205 C.ar    1  UNL1        0.0147
     20 C          -7.2457  -19.1088   21.9352 C.ar    1  UNL1        0.0594
     21 N          -8.0442  -18.8419   20.6937 N.ar    1  UNL1       -0.2481
     22 C          -7.7568  -19.6097   19.4375 C.ar    1  UNL1        0.0984
@<TRIPOS>BOND
     1    17    18   ar
     2    18    19   ar
     3    19    20   ar
     4    20    16    1
     5    16     1    1
     6     1     7    1
     7     7     8    2
     8     8     9    1
     9     9    10    2
    10    10    11    1
    11    11    12    2
    12    12    13    1
    13    13    14    2
    14    14    15    1
    15     1     2    1
    16     2     3    1
    17     3     4    1
    18     4     5    1
    19    20    21   ar
    20    21    22   ar
    21    22    17   ar
    22     5     1    1
    23    15     7    1
    24    14    10    1
    25     4     6    1
@<TRIPOS>MOLECULE
*****
 22 25 0 0 0
SMALL
GASTEIGER

@<TRIPOS>ATOM
      1 C         -14.4617   -5.2195   19.6372 C.3     1  UNL1        0.0369
      2 C         -13.3316   -4.4540   20.2591 C.3     1  UNL1        0.0225
      3 C         -13.8895   -3.1817   20.8247 C.3     1  UNL1        0.0689
      4 N         -15.3644   -3.1608   20.5525 N.3     1  UNL1       -0.2972
      5 C         -15.7181   -4.4203   19.8185 C.3     1  UNL1        0.0727
      6 H         -15.5995   -2.3494   19.9808 H       1  UNL1        0.1233
      7 C         -15.3689   -6.1947   18.9472 C.2     1  UNL1       -0.0386
      8 C         -15.9338   -5.8674   17.5968 C.2     1  UNL1       -0.0066
      9 C         -16.8410   -6.8426   16.9068 C.2     1  UNL1        0.0182
     10 C         -17.1833   -8.1451   17.5674 C.2     1  UNL1        0.0777
     11 N         -18.0440   -9.2946   17.1339 N.2     1  UNL1       -0.2442
     12 C         -18.0109  -10.3323   18.2165 C.2     1  UNL1        0.0985
     13 C         -17.1299   -9.8242   19.3191 C.2     1  UNL1        0.0182
     14 C         -16.6184   -8.4724   18.9179 C.2     1  UNL1        0.0011
     15 C         -15.7112   -7.4971   19.6078 C.3     1  UNL1        0.0499
     16 C         -13.3951   -6.2225   19.3116 C.3     1  UNL1        0.0509
     17 C          -9.8631   -5.0153   16.7980 C.ar    1  UNL1        0.0207
     18 C          -9.6605   -5.8654   18.0172 C.ar    1  UNL1        0.0028
     19 C         -10.8379   -6.2678   18.8550 C.ar    1  UNL1        0.0147
     20 C         -12.2178   -5.8201   18.4737 C.ar    1  UNL1        0.0594
     21 N         -12.4204   -4.9700   17.2546 N.ar    1  UNL1       -0.2481
     22 C         -11.2431   -4.5675   16.4167 C.ar    1  UNL1        0.0984
@<TRIPOS>BOND
     1    17    18   ar
     2    18    19   ar
     3    19    20   ar
     4    20    16    1
     5    16     1    1
     6     1     7    1
     7     7     8    2
     8     8     9    1
     9     9    10    2
    10    10    11    1
    11    11    12    2
    12    12    13    1
    13    13    14    2
    14    14    15    1
    15     1     2    1
    16     2     3    1
    17     3     4    1
    18     4     5    1
    19    20    21   ar
    20    21    22   ar
    21    22    17   ar
    22     5     1    1
    23    15     7    1
    24    14    10    1
    25     4     6    1
@<TRIPOS>MOLECULE
*****
 22 25 0 0 0
SMALL
GASTEIGER

@<TRIPOS>ATOM
      1 C         -11.1666   -6.3074   18.5582 C.3     1  UNL1        0.0369
      2 C          -9.7493   -6.3027   19.0494 C.3     1  UNL1        0.0225
      3 C          -9.1149   -7.6009   18.6467 C.3     1  UNL1        0.0689
      4 N         -10.1401   -8.4079   17.9066 N.3     1  UNL1       -0.2972
      5 C         -11.4081   -7.6085   17.8519 C.3     1  UNL1        0.0727
      6 H         -10.3065   -9.2878   18.3950 H       1  UNL1        0.1233
      7 C         -12.5959   -6.0278   18.1988 C.2     1  UNL1       -0.0386
      8 C         -13.0295   -6.0653   16.7635 C.2     1  UNL1       -0.0066
      9 C         -14.4588   -5.7858   16.4041 C.2     1  UNL1        0.0182
     10 C         -15.4544   -5.4689   17.4803 C.2     1  UNL1        0.0777
     11 N         -16.9199   -5.1529   17.4304 N.2     1  UNL1       -0.2442
     12 C         -17.3920   -4.9203   18.8350 C.2     1  UNL1        0.0985
     13 C         -16.2183   -5.0924   19.7531 C.2     1  UNL1        0.0182
     14 C         -15.0208   -5.4314   18.9158 C.2     1  UNL1        0.0011
     15 C         -13.5915   -5.7109   19.2751 C.3     1  UNL1        0.0499
     16 C         -11.2239   -4.9479   19.1893 C.3     1  UNL1        0.0509
     17 C         -10.4151   -1.2805   16.7100 C.ar    1  UNL1        0.0207
     18 C          -9.8344   -2.6028   16.3048 C.ar    1  UNL1        0.0028
     19 C         -10.1041   -3.8253   17.1312 C.ar    1  UNL1        0.0147
     20 C         -10.9543   -3.7254   18.3629 C.ar    1  UNL1        0.0594
     21 N         -11.5349   -2.4031   18.7681 N.ar    1  UNL1       -0.2481
     22 C         -11.2654   -1.1806   17.9418 C.ar    1  UNL1        0.0984
@<TRIPOS>BOND
     1    17    18   ar
     2    18    19   ar
     3    19    20   ar
     4    20    16    1
     5    16     1    1
     6     1     7    1
     7     7     8    2
     8     8     9    1
     9     9    10    2
    10    10    11    1
    11    11    12    2
    12    12    13    1
    13    13    14    2
    14    14    15    1
    15     1     2    1
    16     2     3    1
    17     3     4    1
    18     4     5    1
    19    20    21   ar
    20    21    22   ar
    21    22    17   ar
    22     5     1    1
    23    15     7    1
    24    14    10    1
    25     4     6    1
@<TRIPOS>MOLECULE
*****
 22 25 0 0 0
SMALL
GASTEIGER

@<TRIPOS>ATOM
      1 C         -10.5318   -6.0138   18.1490 C.3     1  UNL1        0.0369
      2 C         -10.2539   -7.4506   17.8200 C.3     1  UNL1        0.0225
      3 C          -9.2377   -7.9619   18.7977 C.3     1  UNL1        0.0689
      4 N          -8.8875   -6.8410   19.7310 N.3     1  UNL1       -0.2972
      5 C          -9.6873   -5.6370   19.3301 C.3     1  UNL1        0.0727
      6 H          -7.8912   -6.6329   19.6635 H       1  UNL1        0.1233
      7 C         -11.0070   -4.5936   18.2349 C.2     1  UNL1       -0.0386
      8 C         -12.0082   -4.1997   19.2800 C.2     1  UNL1       -0.0066
      9 C         -12.4834   -2.7794   19.3659 C.2     1  UNL1        0.0182
     10 C         -11.9572   -1.7533   18.4067 C.2     1  UNL1        0.0777
     11 N         -12.2386   -0.2883   18.2501 N.2     1  UNL1       -0.2442
     12 C         -11.4112    0.2232   17.1083 C.2     1  UNL1        0.0985
     13 C         -10.6185   -0.9257   16.5591 C.2     1  UNL1        0.0182
     14 C         -10.9559   -2.1473   17.3616 C.2     1  UNL1        0.0011
     15 C         -10.4808   -3.5674   17.2757 C.3     1  UNL1        0.0499
     16 C         -11.4757   -6.0937   16.9860 C.3     1  UNL1        0.0509
     17 C         -15.3503   -8.3475   17.3835 C.ar    1  UNL1        0.0207
     18 C         -15.0375   -7.6115   16.1145 C.ar    1  UNL1        0.0028
     19 C         -13.7460   -6.8602   15.9820 C.ar    1  UNL1        0.0147
     20 C         -12.7672   -6.8449   17.1185 C.ar    1  UNL1        0.0594
     21 N         -13.0799   -7.5810   18.3875 N.ar    1  UNL1       -0.2481
     22 C         -14.3714   -8.3323   18.5201 C.ar    1  UNL1        0.0984
@<TRIPOS>BOND
     1    17    18   ar
     2    18    19   ar
     3    19    20   ar
     4    20    16    1
     5    16     1    1
     6     1     7    1
     7     7     8    2
     8     8     9    1
     9     9    10    2
    10    10    11    1
    11    11    12    2
    12    12    13    1
    13    13    14    2
    14    14    15    1
    15     1     2    1
    16     2     3    1
    17     3     4    1
    18     4     5    1
    19    20    21   ar
    20    21    22   ar
    21    22    17   ar
    22     5     1    1
    23    15     7    1
    24    14    10    1
    25     4     6    1
