@<TRIPOS>MOLECULE
*****
 19 20 0 0 0
SMALL
GASTEIGER

@<TRIPOS>ATOM
      1 N          -8.1262  -19.6214   22.3510 N.am    1  UNL1       -0.2791
      2 C          -7.1471  -18.6321   21.7917 C.2     1  UNL1        0.2672
      3 O          -7.5588  -17.2046   21.5845 O.2     1  UNL1       -0.2682
      4 H          -7.8561  -20.5582   22.4870 H       1  UNL1        0.1552
      5 C         -11.7821  -18.1148   22.0118 C.ar    1  UNL1        0.1504
      6 C         -10.3914  -18.5531   21.6598 C.ar    1  UNL1        0.0524
      7 C          -9.5169  -19.1831   22.7031 C.ar    1  UNL1        0.0537
      8 C         -10.0332  -19.3749   24.0983 C.ar    1  UNL1        0.0157
      9 C         -11.4238  -18.9367   24.4502 C.ar    1  UNL1        0.0157
     10 C         -12.2983  -18.3066   23.4070 C.ar    1  UNL1        0.0916
     11 CL        -13.6890  -17.8684   23.7590 Cl      1  UNL1       -0.0791
     12 C         -12.1595  -16.3059   20.1855 C.3     1  UNL1        0.2525
     13 O         -12.6565  -17.4848   20.9685 O.3     1  UNL1       -0.4705
     14 C          -5.7564  -19.0703   21.4397 C.ar    1  UNL1        0.1348
     15 C          -5.5456  -20.1452   20.4150 C.ar    1  UNL1        0.0238
     16 C          -4.1548  -20.5834   20.0629 C.ar    1  UNL1        0.0033
     17 C          -2.9750  -19.9466   20.7357 C.ar    1  UNL1        0.0207
     18 C          -3.1859  -18.8717   21.7604 C.ar    1  UNL1        0.0990
     19 N          -4.5765  -18.4336   22.1124 N.ar    1  UNL1       -0.2392
@<TRIPOS>BOND
     1    12    13    1
     2    13     5    1
     3     5     6   ar
     4     6     7   ar
     5     7     1    1
     6     1     2   am
     7     2     3    2
     8     2    14    1
     9    14    15   ar
    10    15    16   ar
    11    16    17   ar
    12    17    18   ar
    13    18    19   ar
    14     7     8   ar
    15     8     9   ar
    16     9    10   ar
    17    10    11    1
    18    10     5   ar
    19    19    14   ar
    20     1     4    1
@<TRIPOS>MOLECULE
*****
 19 20 0 0 0
SMALL
GASTEIGER

@<TRIPOS>ATOM
      1 N          -7.5602  -19.4171   22.2710 N.am    1  UNL1       -0.2791
      2 C          -8.4157  -18.2074   22.0369 C.2     1  UNL1        0.2672
      3 O          -7.8494  -17.0147   21.3250 O.2     1  UNL1       -0.2682
      4 H          -7.9319  -20.1999   22.7383 H       1  UNL1        0.1552
      5 C          -3.6906  -18.5845   21.9834 C.ar    1  UNL1        0.1504
      6 C          -5.1123  -18.5675   22.4612 C.ar    1  UNL1        0.0524
      7 C          -6.1384  -19.4340   21.7932 C.ar    1  UNL1        0.0537
      8 C          -5.7428  -20.3174   20.6473 C.ar    1  UNL1        0.0157
      9 C          -4.3211  -20.3343   20.1695 C.ar    1  UNL1        0.0157
     10 C          -3.2950  -19.4679   20.8376 C.ar    1  UNL1        0.0916
     11 CL         -1.8732  -19.4848   20.3597 Cl      1  UNL1       -0.0791
     12 C          -2.3233  -16.3771   22.0723 C.3     1  UNL1        0.2525
     13 O          -2.6645  -17.7180   22.6515 O.3     1  UNL1       -0.4705
     14 C          -9.8375  -18.1904   22.5147 C.ar    1  UNL1        0.1348
     15 C         -10.1668  -18.6456   23.9055 C.ar    1  UNL1        0.0238
     16 C         -11.5886  -18.6286   24.3833 C.ar    1  UNL1        0.0033
     17 C         -12.6810  -18.1564   23.4703 C.ar    1  UNL1        0.0207
     18 C         -12.3517  -17.7012   22.0795 C.ar    1  UNL1        0.0990
     19 N         -10.9300  -17.7182   21.6017 N.ar    1  UNL1       -0.2392
@<TRIPOS>BOND
     1    12    13    1
     2    13     5    1
     3     5     6   ar
     4     6     7   ar
     5     7     1    1
     6     1     2   am
     7     2     3    2
     8     2    14    1
     9    14    15   ar
    10    15    16   ar
    11    16    17   ar
    12    17    18   ar
    13    18    19   ar
    14     7     8   ar
    15     8     9   ar
    16     9    10   ar
    17    10    11    1
    18    10     5   ar
    19    19    14   ar
    20     1     4    1
@<TRIPOS>MOLECULE
*****
 19 20 0 0 0
SMALL
GASTEIGER

@<TRIPOS>ATOM
      1 N          -6.8706  -17.8209   22.0848 N.am    1  UNL1       -0.2791
      2 C          -6.1409  -19.0769   21.7102 C.2     1  UNL1        0.2672
      3 O          -6.8436  -20.4005   21.7760 O.2     1  UNL1       -0.2682
      4 H          -6.4094  -16.9522   22.0416 H       1  UNL1        0.1552
      5 C         -10.8366  -17.8755   21.9503 C.ar    1  UNL1        0.1504
      6 C          -9.4043  -17.8078   21.5100 C.ar    1  UNL1        0.0524
      7 C          -8.3029  -17.8887   22.5252 C.ar    1  UNL1        0.0537
      8 C          -8.6339  -18.0373   23.9806 C.ar    1  UNL1        0.0157
      9 C         -10.0662  -18.1051   24.4209 C.ar    1  UNL1        0.0157
     10 C         -11.1675  -18.0241   23.4058 C.ar    1  UNL1        0.0916
     11 CL        -12.5999  -18.0919   23.8461 Cl      1  UNL1       -0.0791
     12 C         -12.5021  -16.4606   20.5454 C.3     1  UNL1        0.2525
     13 O         -11.9379  -17.7946   20.9352 O.3     1  UNL1       -0.4705
     14 C          -4.7087  -19.0092   21.2698 C.ar    1  UNL1        0.1348
     15 C          -3.6204  -19.4973   22.1795 C.ar    1  UNL1        0.0238
     16 C          -2.1881  -19.4296   21.7391 C.ar    1  UNL1        0.0033
     17 C          -1.8440  -18.8738   20.3891 C.ar    1  UNL1        0.0207
     18 C          -2.9323  -18.3857   19.4794 C.ar    1  UNL1        0.0990
     19 N          -4.3645  -18.4534   19.9197 N.ar    1  UNL1       -0.2392
@<TRIPOS>BOND
     1    12    13    1
     2    13     5    1
     3     5     6   ar
     4     6     7   ar
     5     7     1    1
     6     1     2   am
     7     2     3    2
     8     2    14    1
     9    14    15   ar
    10    15    16   ar
    11    16    17   ar
    12    17    18   ar
    13    18    19   ar
    14     7     8   ar
    15     8     9   ar
    16     9    10   ar
    17    10    11    1
    18    10     5   ar
    19    19    14   ar
    20     1     4    1
@<TRIPOS>MOLECULE
*****
 19 20 0 0 0
SMALL
GASTEIGER

@<TRIPOS>ATOM
      1 N          -6.8367  -17.7005   22.0726 N.am    1  UNL1       -0.2791
      2 C          -6.3078  -18.8108   21.2138 C.2     1  UNL1        0.2672
      3 O          -7.2513  -19.8158   20.6222 O.2     1  UNL1       -0.2682
      4 H          -6.2175  -17.0409   22.4608 H       1  UNL1        0.1552
      5 C         -10.4486  -18.4700   23.5257 C.ar    1  UNL1        0.1504
      6 C          -8.9764  -18.5752   23.2585 C.ar    1  UNL1        0.0524
      7 C          -8.3090  -17.5952   22.3398 C.ar    1  UNL1        0.0537
      8 C          -9.1137  -16.5099   21.6883 C.ar    1  UNL1        0.0157
      9 C         -10.5859  -16.4046   21.9556 C.ar    1  UNL1        0.0157
     10 C         -11.2534  -17.3847   22.8743 C.ar    1  UNL1        0.0916
     11 CL        -12.7257  -17.2794   23.1415 Cl      1  UNL1       -0.0791
     12 C         -10.3374  -20.6032   25.0045 C.3     1  UNL1        0.2525
     13 O         -11.1161  -19.4500   24.4444 O.3     1  UNL1       -0.4705
     14 C          -4.8356  -18.9161   20.9465 C.ar    1  UNL1        0.1348
     15 C          -3.9110  -19.4034   22.0225 C.ar    1  UNL1        0.0238
     16 C          -2.4387  -19.5087   21.7552 C.ar    1  UNL1        0.0033
     17 C          -1.8911  -19.1268   20.4120 C.ar    1  UNL1        0.0207
     18 C          -2.8157  -18.6395   19.3360 C.ar    1  UNL1        0.0990
     19 N          -4.2879  -18.5342   19.6033 N.ar    1  UNL1       -0.2392
@<TRIPOS>BOND
     1    12    13    1
     2    13     5    1
     3     5     6   ar
     4     6     7   ar
     5     7     1    1
     6     1     2   am
     7     2     3    2
     8     2    14    1
     9    14    15   ar
    10    15    16   ar
    11    16    17   ar
    12    17    18   ar
    13    18    19   ar
    14     7     8   ar
    15     8     9   ar
    16     9    10   ar
    17    10    11    1
    18    10     5   ar
    19    19    14   ar
    20     1     4    1
@<TRIPOS>MOLECULE
*****
 19 20 0 0 0
SMALL
GASTEIGER

@<TRIPOS>ATOM
      1 N          -7.6776  -18.3029   22.7903 N.am    1  UNL1       -0.2791
      2 C          -8.5671  -17.2076   22.2812 C.2     1  UNL1        0.2672
      3 O          -7.9750  -16.0402   21.5485 O.2     1  UNL1       -0.2682
      4 H          -8.0661  -19.0691   23.2712 H       1  UNL1        0.1552
      5 C          -4.0813  -18.9640   21.2476 C.ar    1  UNL1        0.1504
      6 C          -5.5628  -19.0361   21.4711 C.ar    1  UNL1        0.0524
      7 C          -6.1960  -18.2308   22.5668 C.ar    1  UNL1        0.0537
      8 C          -5.3478  -17.3534   23.4389 C.ar    1  UNL1        0.0157
      9 C          -3.8663  -17.2813   23.2154 C.ar    1  UNL1        0.0157
     10 C          -3.2331  -18.0866   22.1197 C.ar    1  UNL1        0.0916
     11 CL         -1.7515  -18.0145   21.8962 Cl      1  UNL1       -0.0791
     12 C          -4.1253  -21.0075   19.6438 C.3     1  UNL1        0.2525
     13 O          -3.4481  -19.7693   20.1519 O.3     1  UNL1       -0.4705
     14 C         -10.0485  -17.2797   22.5046 C.ar    1  UNL1        0.1348
     15 C         -10.6302  -18.3940   23.3231 C.ar    1  UNL1        0.0238
     16 C         -12.1118  -18.4661   23.5466 C.ar    1  UNL1        0.0033
     17 C         -13.0116  -17.4238   22.9516 C.ar    1  UNL1        0.0207
     18 C         -12.4299  -16.3095   22.1331 C.ar    1  UNL1        0.0990
     19 N         -10.9484  -16.2374   21.9096 N.ar    1  UNL1       -0.2392
@<TRIPOS>BOND
     1    12    13    1
     2    13     5    1
     3     5     6   ar
     4     6     7   ar
     5     7     1    1
     6     1     2   am
     7     2     3    2
     8     2    14    1
     9    14    15   ar
    10    15    16   ar
    11    16    17   ar
    12    17    18   ar
    13    18    19   ar
    14     7     8   ar
    15     8     9   ar
    16     9    10   ar
    17    10    11    1
    18    10     5   ar
    19    19    14   ar
    20     1     4    1
@<TRIPOS>MOLECULE
*****
 19 20 0 0 0
SMALL
GASTEIGER

@<TRIPOS>ATOM
      1 N         -14.1516   -6.6703   19.6170 N.am    1  UNL1       -0.2791
      2 C         -14.8508   -7.2841   18.4404 C.2     1  UNL1        0.2672
      3 O         -14.7996   -6.6091   17.1018 O.2     1  UNL1       -0.2682
      4 H         -14.1851   -7.1133   20.4956 H       1  UNL1        0.1552
      5 C         -11.2094   -4.1114   18.8782 C.ar    1  UNL1        0.1504
      6 C         -11.9598   -5.4001   19.0402 C.ar    1  UNL1        0.0524
      7 C         -13.4012   -5.3816   19.4550 C.ar    1  UNL1        0.0537
      8 C         -14.0921   -4.0745   19.7079 C.ar    1  UNL1        0.0157
      9 C         -13.3418   -2.7859   19.5459 C.ar    1  UNL1        0.0157
     10 C         -11.9004   -2.8043   19.1310 C.ar    1  UNL1        0.0916
     11 CL        -11.1500   -1.5156   18.9691 Cl      1  UNL1       -0.0791
     12 C          -9.4055   -4.3129   17.0194 C.3     1  UNL1        0.2525
     13 O          -9.7680   -4.1299   18.4633 O.3     1  UNL1       -0.4705
     14 C         -15.6011   -8.5727   18.6023 C.ar    1  UNL1        0.1348
     15 C         -16.9288   -8.5850   19.3003 C.ar    1  UNL1        0.0238
     16 C         -17.6791   -9.8737   19.4622 C.ar    1  UNL1        0.0033
     17 C         -17.1018  -11.1501   18.9262 C.ar    1  UNL1        0.0207
     18 C         -15.7742  -11.1379   18.2282 C.ar    1  UNL1        0.0990
     19 N         -15.0238   -9.8493   18.0663 N.ar    1  UNL1       -0.2392
@<TRIPOS>BOND
     1    12    13    1
     2    13     5    1
     3     5     6   ar
     4     6     7   ar
     5     7     1    1
     6     1     2   am
     7     2     3    2
     8     2    14    1
     9    14    15   ar
    10    15    16   ar
    11    16    17   ar
    12    17    18   ar
    13    18    19   ar
    14     7     8   ar
    15     8     9   ar
    16     9    10   ar
    17    10    11    1
    18    10     5   ar
    19    19    14   ar
    20     1     4    1
@<TRIPOS>MOLECULE
*****
 19 20 0 0 0
SMALL
GASTEIGER

@<TRIPOS>ATOM
      1 N         -14.2901   -7.5686   19.0672 N.am    1  UNL1       -0.2791
      2 C         -15.0509   -7.8747   17.8113 C.2     1  UNL1        0.2672
      3 O         -14.6408   -7.2440   16.5135 O.2     1  UNL1       -0.2682
      4 H         -14.5592   -7.9826   19.9190 H       1  UNL1        0.1552
      5 C         -12.1353   -4.2457   19.3218 C.ar    1  UNL1        0.1504
      6 C         -13.3060   -5.1824   19.3636 C.ar    1  UNL1        0.0524
      7 C         -13.1193   -6.6318   19.0255 C.ar    1  UNL1        0.0537
      8 C         -11.7618   -7.1445   18.6456 C.ar    1  UNL1        0.0157
      9 C         -10.5910   -6.2077   18.6038 C.ar    1  UNL1        0.0157
     10 C         -10.7778   -4.7583   18.9419 C.ar    1  UNL1        0.0916
     11 CL         -9.6070   -3.8215   18.9002 Cl      1  UNL1       -0.0791
     12 C         -12.7878   -1.8345   18.6074 C.3     1  UNL1        0.2525
     13 O         -12.3220   -2.7963   19.6600 O.3     1  UNL1       -0.4705
     14 C         -16.2216   -8.8114   17.8530 C.ar    1  UNL1        0.1348
     15 C         -17.4974   -8.4491   17.1521 C.ar    1  UNL1        0.0238
     16 C         -18.6682   -9.3860   17.1939 C.ar    1  UNL1        0.0033
     17 C         -18.5632  -10.6850   17.9365 C.ar    1  UNL1        0.0207
     18 C         -17.2874  -11.0473   18.6373 C.ar    1  UNL1        0.0990
     19 N         -16.1167  -10.1106   18.5956 N.ar    1  UNL1       -0.2392
@<TRIPOS>BOND
     1    12    13    1
     2    13     5    1
     3     5     6   ar
     4     6     7   ar
     5     7     1    1
     6     1     2   am
     7     2     3    2
     8     2    14    1
     9    14    15   ar
    10    15    16   ar
    11    16    17   ar
    12    17    18   ar
    13    18    19   ar
    14     7     8   ar
    15     8     9   ar
    16     9    10   ar
    17    10    11    1
    18    10     5   ar
    19    19    14   ar
    20     1     4    1
@<TRIPOS>MOLECULE
*****
 19 20 0 0 0
SMALL
GASTEIGER

@<TRIPOS>ATOM
      1 N         -14.0090   -5.9499   17.7742 N.am    1  UNL1       -0.2791
      2 C         -12.9213   -5.3238   18.5957 C.2     1  UNL1        0.2672
      3 O         -13.0402   -5.2818   20.0905 O.2     1  UNL1       -0.2682
      4 H         -13.9310   -5.9775   16.7932 H       1  UNL1        0.1552
      5 C         -16.4694   -8.5837   19.4353 C.ar    1  UNL1        0.1504
      6 C         -15.2629   -7.9997   18.7622 C.ar    1  UNL1        0.0524
      7 C         -15.2156   -6.5339   18.4473 C.ar    1  UNL1        0.0537
      8 C         -16.3749   -5.6520   18.8056 C.ar    1  UNL1        0.0157
      9 C         -17.5814   -6.2360   19.4787 C.ar    1  UNL1        0.0157
     10 C         -17.6287   -7.7019   19.7936 C.ar    1  UNL1        0.0916
     11 CL        -18.8353   -8.2858   20.4667 Cl      1  UNL1       -0.0791
     12 C         -17.0793  -11.0140   18.7485 C.3     1  UNL1        0.2525
     13 O         -16.5167  -10.0495   19.7501 O.3     1  UNL1       -0.4705
     14 C         -11.7147   -4.7399   17.9227 C.ar    1  UNL1        0.1348
     15 C         -10.4564   -5.5480   17.8057 C.ar    1  UNL1        0.0238
     16 C          -9.2498   -4.9640   17.1326 C.ar    1  UNL1        0.0033
     17 C          -9.3015   -3.5719   16.5765 C.ar    1  UNL1        0.0207
     18 C         -10.5597   -2.7637   16.6934 C.ar    1  UNL1        0.0990
     19 N         -11.7663   -3.3477   17.3665 N.ar    1  UNL1       -0.2392
@<TRIPOS>BOND
     1    12    13    1
     2    13     5    1
     3     5     6   ar
     4     6     7   ar
     5     7     1    1
     6     1     2   am
     7     2     3    2
     8     2    14    1
     9    14    15   ar
    10    15    16   ar
    11    16    17   ar
    12    17    18   ar
    13    18    19   ar
    14     7     8   ar
    15     8     9   ar
    16     9    10   ar
    17    10    11    1
    18    10     5   ar
    19    19    14   ar
    20     1     4    1
@<TRIPOS>MOLECULE
*****
 19 20 0 0 0
SMALL
GASTEIGER

@<TRIPOS>ATOM
      1 N         -15.1073   -6.9530   19.6527 N.am    1  UNL1       -0.2791
      2 C         -16.0352   -7.2282   18.5068 C.2     1  UNL1        0.2672
      3 O         -15.6883   -6.7479   17.1287 O.2     1  UNL1       -0.2682
      4 H         -15.3349   -7.2682   20.5572 H       1  UNL1        0.1552
      5 C         -11.3718   -6.1382   18.5887 C.ar    1  UNL1        0.1504
      6 C         -12.6467   -6.8936   18.8208 C.ar    1  UNL1        0.0524
      7 C         -13.8323   -6.1975   19.4206 C.ar    1  UNL1        0.0537
      8 C         -13.7431   -4.7460   19.7881 C.ar    1  UNL1        0.0157
      9 C         -12.4682   -3.9906   19.5559 C.ar    1  UNL1        0.0157
     10 C         -11.2825   -4.6867   18.9562 C.ar    1  UNL1        0.0916
     11 CL        -10.0076   -3.9312   18.7240 Cl      1  UNL1       -0.0791
     12 C          -9.3615   -7.7669   18.8257 C.3     1  UNL1        0.2525
     13 O         -10.1861   -6.8342   17.9889 O.3     1  UNL1       -0.4705
     14 C         -17.3101   -7.9836   18.7389 C.ar    1  UNL1        0.1348
     15 C         -18.1028   -7.7505   19.9908 C.ar    1  UNL1        0.0238
     16 C         -19.3777   -8.5060   20.2229 C.ar    1  UNL1        0.0033
     17 C         -19.8600   -9.4946   19.2031 C.ar    1  UNL1        0.0207
     18 C         -19.0673   -9.7277   17.9512 C.ar    1  UNL1        0.0990
     19 N         -17.7924   -8.9723   17.7191 N.ar    1  UNL1       -0.2392
@<TRIPOS>BOND
     1    12    13    1
     2    13     5    1
     3     5     6   ar
     4     6     7   ar
     5     7     1    1
     6     1     2   am
     7     2     3    2
     8     2    14    1
     9    14    15   ar
    10    15    16   ar
    11    16    17   ar
    12    17    18   ar
    13    18    19   ar
    14     7     8   ar
    15     8     9   ar
    16     9    10   ar
    17    10    11    1
    18    10     5   ar
    19    19    14   ar
    20     1     4    1
