@<TRIPOS>MOLECULE
*****
 30 33 0 0 0
SMALL
GASTEIGER

@<TRIPOS>ATOM
      1 C           6.4037   -0.9071   33.7587 C.2     1  UNL1        0.2289
      2 O           7.8665   -1.2186   33.6426 O.2     1  UNL1       -0.2745
      3 N           5.4398   -1.4430   32.7420 N.am    1  UNL1       -0.2569
      4 C           3.9771   -1.1315   32.8581 C.3     1  UNL1        0.1200
      5 C           5.9385   -2.2903   31.6092 C.ar    1  UNL1        0.0539
      6 C           6.4997   -3.6541   31.8833 C.ar    1  UNL1        0.0151
      7 C           6.9984   -4.5015   30.7505 C.ar    1  UNL1        0.0059
      8 C           6.9360   -3.9851   29.3436 C.ar    1  UNL1        0.0537
      9 C           6.3749   -2.6213   29.0695 C.ar    1  UNL1        0.0059
     10 C           5.8761   -1.7739   30.2023 C.ar    1  UNL1        0.0151
     11 C           7.4348   -4.8324   28.2108 C.ar    1  UNL1        0.2297
     12 N           7.0025   -4.7321   26.7780 N.ar    1  UNL1       -0.2083
     13 C           7.7539   -5.7666   25.9935 C.ar    1  UNL1        0.1189
     14 C           7.7375   -6.1306   24.5385 C.ar    1  UNL1        0.0223
     15 C           8.6178   -7.2342   24.0315 C.ar    1  UNL1        0.0018
     16 C           9.5144   -7.9739   24.9796 C.ar    1  UNL1        0.0032
     17 C           9.5308   -7.6099   26.4347 C.ar    1  UNL1        0.0391
     18 C           8.6506   -6.5063   26.9416 C.ar    1  UNL1        0.1647
     19 O           8.4533   -5.9289   28.3120 O.2     1  UNL1       -0.4346
     20 C           4.7328    0.6662   36.8889 C.3     1  UNL1        0.0720
     21 C           5.5421    1.8223   36.3804 C.3     1  UNL1        0.0201
     22 C           6.2666    1.3737   35.1459 C.3     1  UNL1        0.0108
     23 C           5.9050   -0.0598   34.8915 C.3     1  UNL1        0.0787
     24 C           4.9571   -0.4970   35.9687 C.3     1  UNL1        0.0286
     25 C           2.5375    1.3910   38.0741 C.2     1  UNL1        0.2224
     26 O           2.1004    2.1037   36.8287 O.2     1  UNL1       -0.2751
     27 N           3.8537    0.6722   38.1042 N.am    1  UNL1       -0.3059
     28 H           4.1406    0.2045   38.9216 H       1  UNL1        0.1494
     29 C           0.8837    0.1675   39.6609 C.3     1  UNL1        0.0101
     30 C           1.6583    1.3971   39.2894 C.3     1  UNL1        0.0851
@<TRIPOS>BOND
     1    29    30    1
     2    30    25    1
     3    25    26    2
     4    25    27   am
     5    20    27    1
     6    20    21    1
     7    21    22    1
     8    22    23    1
     9    23     1    1
    10     1     2    2
    11     1     3   am
    12     3     4    1
    13     3     5    1
    14     5     6   ar
    15     6     7   ar
    16     7     8   ar
    17     8    11    1
    18    11    12   ar
    19    12    13   ar
    20    13    14   ar
    21    14    15   ar
    22    15    16   ar
    23    16    17   ar
    24    17    18   ar
    25    18    19   ar
    26     8     9   ar
    27     9    10   ar
    28    23    24    1
    29    24    20    1
    30    10     5   ar
    31    19    11   ar
    32    18    13   ar
    33    27    28    1
@<TRIPOS>MOLECULE
*****
 30 33 0 0 0
SMALL
GASTEIGER

@<TRIPOS>ATOM
      1 C           7.2287   -4.8482   31.3765 C.2     1  UNL1        0.2289
      2 O           6.3941   -5.4357   32.4758 O.2     1  UNL1       -0.2745
      3 N           7.3790   -3.3601   31.2625 N.am    1  UNL1       -0.2569
      4 C           8.2135   -2.7726   30.1633 C.3     1  UNL1        0.1200
      5 C           6.6947   -2.4595   32.2478 C.ar    1  UNL1        0.0539
      6 C           7.5068   -1.5569   33.1285 C.ar    1  UNL1        0.0151
      7 C           6.8225   -0.6563   34.1137 C.ar    1  UNL1        0.0059
      8 C           5.3262   -0.6583   34.2183 C.ar    1  UNL1        0.0537
      9 C           4.5142   -1.5610   33.3376 C.ar    1  UNL1        0.0059
     10 C           5.1984   -2.4616   32.3523 C.ar    1  UNL1        0.0151
     11 C           4.6420    0.2423   35.2036 C.ar    1  UNL1        0.2297
     12 N           4.7552    0.1628   36.6972 N.ar    1  UNL1       -0.2083
     13 C           3.9076    1.2519   37.2849 C.ar    1  UNL1        0.1189
     14 C           3.6336    1.6555   38.7033 C.ar    1  UNL1        0.0223
     15 C           2.7225    2.8117   38.9914 C.ar    1  UNL1        0.0018
     16 C           2.0853    3.5642   37.8610 C.ar    1  UNL1        0.0032
     17 C           2.3593    3.1606   36.4426 C.ar    1  UNL1        0.0391
     18 C           3.2705    2.0044   36.1546 C.ar    1  UNL1        0.1647
     19 O           3.7243    1.3804   34.8682 O.2     1  UNL1       -0.4346
     20 C           8.3986   -7.0393   28.3939 C.3     1  UNL1        0.0720
     21 C           9.5332   -7.2300   29.3562 C.3     1  UNL1        0.0201
     22 C           9.2331   -6.4325   30.5907 C.3     1  UNL1        0.0108
     23 C           7.9129   -5.7488   30.3912 C.3     1  UNL1        0.0787
     24 C           7.3972   -6.1238   29.0335 C.3     1  UNL1        0.0286
     25 C           8.4004   -6.7961   25.8072 C.2     1  UNL1        0.2224
     26 O           8.6288   -5.3202   25.9461 O.2     1  UNL1       -0.2751
     27 N           8.2853   -7.6557   27.0312 N.am    1  UNL1       -0.3059
     28 H           8.1354   -8.6244   26.9400 H       1  UNL1        0.1494
     29 C           9.4906   -7.4862   23.5522 C.3     1  UNL1        0.0101
     30 C           8.2871   -7.4125   24.4445 C.3     1  UNL1        0.0851
@<TRIPOS>BOND
     1    29    30    1
     2    30    25    1
     3    25    26    2
     4    25    27   am
     5    20    27    1
     6    20    21    1
     7    21    22    1
     8    22    23    1
     9    23     1    1
    10     1     2    2
    11     1     3   am
    12     3     4    1
    13     3     5    1
    14     5     6   ar
    15     6     7   ar
    16     7     8   ar
    17     8    11    1
    18    11    12   ar
    19    12    13   ar
    20    13    14   ar
    21    14    15   ar
    22    15    16   ar
    23    16    17   ar
    24    17    18   ar
    25    18    19   ar
    26     8     9   ar
    27     9    10   ar
    28    23    24    1
    29    24    20    1
    30    10     5   ar
    31    19    11   ar
    32    18    13   ar
    33    27    28    1
@<TRIPOS>MOLECULE
*****
 30 33 0 0 0
SMALL
GASTEIGER

@<TRIPOS>ATOM
      1 C           6.1847   -1.9027   20.5018 C.2     1  UNL1        0.2289
      2 O           6.2029   -0.7037   21.4031 O.2     1  UNL1       -0.2745
      3 N           5.0322   -2.1209   19.5670 N.am    1  UNL1       -0.2569
      4 C           5.0141   -3.3198   18.6658 C.3     1  UNL1        0.1200
      5 C           3.8977   -1.1401   19.5333 C.ar    1  UNL1        0.0539
      6 C           3.8710   -0.0597   18.4932 C.ar    1  UNL1        0.0151
      7 C           2.7366    0.9211   18.4595 C.ar    1  UNL1        0.0059
      8 C           1.6289    0.8215   19.4659 C.ar    1  UNL1        0.0537
      9 C           1.6556   -0.2590   20.5060 C.ar    1  UNL1        0.0059
     10 C           2.7900   -1.2398   20.5397 C.ar    1  UNL1        0.0151
     11 C           0.4944    1.8022   19.4322 C.ar    1  UNL1        0.2297
     12 N          -0.6070    1.9114   20.4445 N.ar    1  UNL1       -0.2083
     13 C          -1.5199    3.0227   20.0183 C.ar    1  UNL1        0.1189
     14 C          -2.7710    3.5832   20.6270 C.ar    1  UNL1        0.0223
     15 C          -3.4848    4.7214   19.9599 C.ar    1  UNL1        0.0018
     16 C          -2.9475    5.2991   18.6841 C.ar    1  UNL1        0.0032
     17 C          -1.6964    4.7385   18.0754 C.ar    1  UNL1        0.0391
     18 C          -0.9826    3.6003   18.7425 C.ar    1  UNL1        0.1647
     19 O           0.2623    2.8461   18.3803 O.2     1  UNL1       -0.4346
     20 C           8.6780   -4.8240   21.0637 C.3     1  UNL1        0.0720
     21 C           9.4518   -3.9616   20.1110 C.3     1  UNL1        0.0201
     22 C           8.6120   -2.7623   19.7845 C.3     1  UNL1        0.0108
     23 C           7.3191   -2.8835   20.5355 C.3     1  UNL1        0.0787
     24 C           7.3599   -4.1576   21.3260 C.3     1  UNL1        0.0286
     25 C           9.0724   -6.3444   23.1331 C.2     1  UNL1        0.2224
     26 O           8.5409   -5.2643   24.0280 O.2     1  UNL1       -0.2751
     27 N           9.1409   -6.1242   21.6509 N.am    1  UNL1       -0.3059
     28 H           9.4897   -6.8331   21.0635 H       1  UNL1        0.1494
     29 C           9.3050   -7.9355   25.1737 C.3     1  UNL1        0.0101
     30 C           9.5354   -7.6447   23.7203 C.3     1  UNL1        0.0851
@<TRIPOS>BOND
     1    29    30    1
     2    30    25    1
     3    25    26    2
     4    25    27   am
     5    20    27    1
     6    20    21    1
     7    21    22    1
     8    22    23    1
     9    23     1    1
    10     1     2    2
    11     1     3   am
    12     3     4    1
    13     3     5    1
    14     5     6   ar
    15     6     7   ar
    16     7     8   ar
    17     8    11    1
    18    11    12   ar
    19    12    13   ar
    20    13    14   ar
    21    14    15   ar
    22    15    16   ar
    23    16    17   ar
    24    17    18   ar
    25    18    19   ar
    26     8     9   ar
    27     9    10   ar
    28    23    24    1
    29    24    20    1
    30    10     5   ar
    31    19    11   ar
    32    18    13   ar
    33    27    28    1
@<TRIPOS>MOLECULE
*****
 30 33 0 0 0
SMALL
GASTEIGER

@<TRIPOS>ATOM
      1 C           5.0041   -1.1560   34.3090 C.2     1  UNL1        0.2289
      2 O           4.0317   -2.2418   33.9547 O.2     1  UNL1       -0.2745
      3 N           6.2114   -0.9210   33.4506 N.am    1  UNL1       -0.2569
      4 C           7.1837    0.1648   33.8049 C.3     1  UNL1        0.1200
      5 C           6.4464   -1.7717   32.2378 C.ar    1  UNL1        0.0539
      6 C           6.8750   -3.2005   32.3955 C.ar    1  UNL1        0.0151
      7 C           7.1101   -4.0513   31.1827 C.ar    1  UNL1        0.0059
      8 C           6.9165   -3.4733   29.8121 C.ar    1  UNL1        0.0537
      9 C           6.4879   -2.0446   29.6544 C.ar    1  UNL1        0.0059
     10 C           6.2529   -1.1938   30.8672 C.ar    1  UNL1        0.0151
     11 C           7.1515   -4.3241   28.5993 C.ar    1  UNL1        0.2297
     12 N           7.3474   -3.8267   27.1978 N.ar    1  UNL1       -0.2083
     13 C           7.5489   -5.0168   26.3074 C.ar    1  UNL1        0.1189
     14 C           7.7881   -5.1371   24.8315 C.ar    1  UNL1        0.0223
     15 C           7.9560   -6.4904   24.2068 C.ar    1  UNL1        0.0018
     16 C           7.8846   -7.7234   25.0579 C.ar    1  UNL1        0.0032
     17 C           7.6454   -7.6032   26.5338 C.ar    1  UNL1        0.0391
     18 C           7.4776   -6.2499   27.1585 C.ar    1  UNL1        0.1647
     19 O           7.2320   -5.8217   28.5750 O.2     1  UNL1       -0.4346
     20 C           3.7328    1.1963   37.1227 C.3     1  UNL1        0.0720
     21 C           5.0819    0.8119   37.6538 C.3     1  UNL1        0.0201
     22 C           5.7224   -0.1160   36.6644 C.3     1  UNL1        0.0108
     23 C           4.7690   -0.3052   35.5219 C.3     1  UNL1        0.0787
     24 C           3.5394    0.5059   35.8051 C.3     1  UNL1        0.0286
     25 C           1.6841    1.5433   38.6823 C.2     1  UNL1        0.2224
     26 O           1.6017    0.0621   38.9037 O.2     1  UNL1       -0.2751
     27 N           2.7497    2.1104   37.7917 N.am    1  UNL1       -0.3059
     28 H           2.8037    3.0826   37.6464 H       1  UNL1        0.1494
     29 C           0.5323    2.4163   40.8413 C.3     1  UNL1        0.0101
     30 C           0.7010    2.4575   39.3514 C.3     1  UNL1        0.0851
@<TRIPOS>BOND
     1    29    30    1
     2    30    25    1
     3    25    26    2
     4    25    27   am
     5    20    27    1
     6    20    21    1
     7    21    22    1
     8    22    23    1
     9    23     1    1
    10     1     2    2
    11     1     3   am
    12     3     4    1
    13     3     5    1
    14     5     6   ar
    15     6     7   ar
    16     7     8   ar
    17     8    11    1
    18    11    12   ar
    19    12    13   ar
    20    13    14   ar
    21    14    15   ar
    22    15    16   ar
    23    16    17   ar
    24    17    18   ar
    25    18    19   ar
    26     8     9   ar
    27     9    10   ar
    28    23    24    1
    29    24    20    1
    30    10     5   ar
    31    19    11   ar
    32    18    13   ar
    33    27    28    1
@<TRIPOS>MOLECULE
*****
 30 33 0 0 0
SMALL
GASTEIGER

@<TRIPOS>ATOM
      1 C           4.9081    0.2995   32.3475 C.2     1  UNL1        0.2289
      2 O           4.9911    1.5638   31.5445 O.2     1  UNL1       -0.2745
      3 N           4.6306   -1.0064   31.6637 N.am    1  UNL1       -0.2569
      4 C           4.5476   -2.2706   32.4667 C.3     1  UNL1        0.1200
      5 C           4.4361   -1.0481   30.1770 C.ar    1  UNL1        0.0539
      6 C           3.1175   -0.6522   29.5817 C.ar    1  UNL1        0.0151
      7 C           2.9230   -0.6939   28.0950 C.ar    1  UNL1        0.0059
      8 C           4.0471   -1.1315   27.2035 C.ar    1  UNL1        0.0537
      9 C           5.3658   -1.5273   27.7988 C.ar    1  UNL1        0.0059
     10 C           5.5603   -1.4856   29.2855 C.ar    1  UNL1        0.0151
     11 C           3.8526   -1.1731   25.7167 C.ar    1  UNL1        0.2297
     12 N           2.9785   -0.2543   24.9158 N.ar    1  UNL1       -0.2083
     13 C           3.0837   -0.6543   23.4739 C.ar    1  UNL1        0.1189
     14 C           2.4456   -0.1073   22.2315 C.ar    1  UNL1        0.0223
     15 C           2.7468   -0.7265   20.8988 C.ar    1  UNL1        0.0018
     16 C           3.6860   -1.8926   20.8087 C.ar    1  UNL1        0.0032
     17 C           4.3241   -2.4395   22.0511 C.ar    1  UNL1        0.0391
     18 C           4.0229   -1.8203   23.3837 C.ar    1  UNL1        0.1647
     19 O           4.4981   -2.1410   24.7699 O.2     1  UNL1       -0.4346
     20 C           4.6583    0.3990   36.2196 C.3     1  UNL1        0.0720
     21 C           6.1455    0.4117   36.0247 C.3     1  UNL1        0.0201
     22 C           6.4202    0.3760   34.5505 C.3     1  UNL1        0.0108
     23 C           5.1026    0.3412   33.8342 C.3     1  UNL1        0.0787
     24 C           4.0138    0.3555   34.8658 C.3     1  UNL1        0.0286
     25 C           2.7675    1.3379   37.7339 C.2     1  UNL1        0.2224
     26 O           2.3102    2.2241   36.6134 O.2     1  UNL1       -0.2751
     27 N           3.9416    0.4253   37.5370 N.am    1  UNL1       -0.3059
     28 H           4.2417   -0.1564   38.2724 H       1  UNL1        0.1494
     29 C           1.2625    0.1695   39.5003 C.3     1  UNL1        0.0101
     30 C           2.0506    1.3642   39.0512 C.3     1  UNL1        0.0851
@<TRIPOS>BOND
     1    29    30    1
     2    30    25    1
     3    25    26    2
     4    25    27   am
     5    20    27    1
     6    20    21    1
     7    21    22    1
     8    22    23    1
     9    23     1    1
    10     1     2    2
    11     1     3   am
    12     3     4    1
    13     3     5    1
    14     5     6   ar
    15     6     7   ar
    16     7     8   ar
    17     8    11    1
    18    11    12   ar
    19    12    13   ar
    20    13    14   ar
    21    14    15   ar
    22    15    16   ar
    23    16    17   ar
    24    17    18   ar
    25    18    19   ar
    26     8     9   ar
    27     9    10   ar
    28    23    24    1
    29    24    20    1
    30    10     5   ar
    31    19    11   ar
    32    18    13   ar
    33    27    28    1
@<TRIPOS>MOLECULE
*****
 30 33 0 0 0
SMALL
GASTEIGER

@<TRIPOS>ATOM
      1 C           6.4906   -0.6457   33.6323 C.2     1  UNL1        0.2289
      2 O           7.8113   -0.3588   32.9813 O.2     1  UNL1       -0.2745
      3 N           5.6119   -1.7371   33.0969 N.am    1  UNL1       -0.2569
      4 C           4.2914   -2.0240   33.7479 C.3     1  UNL1        0.1200
      5 C           6.0538   -2.5416   31.9105 C.ar    1  UNL1        0.0539
      6 C           5.9325   -1.9696   30.5292 C.ar    1  UNL1        0.0151
      7 C           6.3744   -2.7742   29.3428 C.ar    1  UNL1        0.0059
      8 C           6.9375   -4.1507   29.5378 C.ar    1  UNL1        0.0537
      9 C           7.0587   -4.7227   30.9191 C.ar    1  UNL1        0.0059
     10 C           6.6169   -3.9181   32.1055 C.ar    1  UNL1        0.0151
     11 C           7.3793   -4.9552   28.3514 C.ar    1  UNL1        0.2297
     12 N           7.0037   -4.6979   26.9222 N.ar    1  UNL1       -0.2083
     13 C           7.6666   -5.7420   26.0734 C.ar    1  UNL1        0.1189
     14 C           7.6566   -5.9874   24.5937 C.ar    1  UNL1        0.0223
     15 C           8.4319   -7.1354   24.0186 C.ar    1  UNL1        0.0018
     16 C           9.2173   -8.0381   24.9233 C.ar    1  UNL1        0.0032
     17 C           9.2273   -7.7927   26.4030 C.ar    1  UNL1        0.0391
     18 C           8.4520   -6.6447   26.9781 C.ar    1  UNL1        0.1647
     19 O           8.2744   -6.1584   28.3859 O.2     1  UNL1       -0.4346
     20 C           5.0312    1.8861   36.1869 C.3     1  UNL1        0.0720
     21 C           5.7064    0.9078   37.1018 C.3     1  UNL1        0.0201
     22 C           6.3353   -0.1598   36.2562 C.3     1  UNL1        0.0108
     23 C           6.0488    0.1588   34.8187 C.3     1  UNL1        0.0787
     24 C           5.2428    1.4232   34.7759 C.3     1  UNL1        0.0286
     25 C           2.8746    2.9884   37.1269 C.2     1  UNL1        0.2224
     26 O           2.2267    1.6389   37.2228 O.2     1  UNL1       -0.2751
     27 N           4.2769    3.1119   36.6090 N.am    1  UNL1       -0.3059
     28 H           4.7022    3.9976   36.5460 H       1  UNL1        0.1494
     29 C           1.2777    4.9561   36.5541 C.3     1  UNL1        0.0101
     30 C           2.1202    4.2142   37.5490 C.3     1  UNL1        0.0851
@<TRIPOS>BOND
     1    29    30    1
     2    30    25    1
     3    25    26    2
     4    25    27   am
     5    20    27    1
     6    20    21    1
     7    21    22    1
     8    22    23    1
     9    23     1    1
    10     1     2    2
    11     1     3   am
    12     3     4    1
    13     3     5    1
    14     5     6   ar
    15     6     7   ar
    16     7     8   ar
    17     8    11    1
    18    11    12   ar
    19    12    13   ar
    20    13    14   ar
    21    14    15   ar
    22    15    16   ar
    23    16    17   ar
    24    17    18   ar
    25    18    19   ar
    26     8     9   ar
    27     9    10   ar
    28    23    24    1
    29    24    20    1
    30    10     5   ar
    31    19    11   ar
    32    18    13   ar
    33    27    28    1
@<TRIPOS>MOLECULE
*****
 30 33 0 0 0
SMALL
GASTEIGER

@<TRIPOS>ATOM
      1 C          -0.1486    1.7871   28.6793 C.2     1  UNL1        0.2289
      2 O          -1.0653    0.6750   28.2632 O.2     1  UNL1       -0.2745
      3 N          -0.0867    3.0498   27.8721 N.am    1  UNL1       -0.2569
      4 C           0.8300    4.1618   28.2882 C.3     1  UNL1        0.1200
      5 C          -0.9415    3.2006   26.6487 C.ar    1  UNL1        0.0539
      6 C          -2.3896    3.5667   26.7861 C.ar    1  UNL1        0.0151
      7 C          -3.2445    3.7174   25.5628 C.ar    1  UNL1        0.0059
      8 C          -2.6512    3.5021   24.2021 C.ar    1  UNL1        0.0537
      9 C          -1.2031    3.1360   24.0647 C.ar    1  UNL1        0.0059
     10 C          -0.3483    2.9852   25.2880 C.ar    1  UNL1        0.0151
     11 C          -3.5060    3.6528   22.9787 C.ar    1  UNL1        0.2297
     12 N          -4.9001    4.2051   22.9398 N.ar    1  UNL1       -0.2083
     13 C          -5.3725    4.1714   21.5166 C.ar    1  UNL1        0.1189
     14 C          -6.6639    4.5885   20.8775 C.ar    1  UNL1        0.0223
     15 C          -6.8531    4.4325   19.3977 C.ar    1  UNL1        0.0018
     16 C          -5.7510    3.8594   18.5570 C.ar    1  UNL1        0.0032
     17 C          -4.4596    3.4423   19.1960 C.ar    1  UNL1        0.0391
     18 C          -4.2704    3.5983   20.6758 C.ar    1  UNL1        0.1647
     19 O          -3.1169    3.2778   21.5795 O.2     1  UNL1       -0.4346
     20 C           1.5047    1.7657   32.1909 C.3     1  UNL1        0.0720
     21 C           2.5387    1.0430   31.3794 C.3     1  UNL1        0.0201
     22 C           2.0453    0.9630   29.9651 C.3     1  UNL1        0.0108
     23 C           0.7063    1.6363   29.9026 C.3     1  UNL1        0.0787
     24 C           0.3723    2.1323   31.2782 C.3     1  UNL1        0.0286
     25 C           1.9863    3.4393   34.1188 C.2     1  UNL1        0.2224
     26 O           2.3000    4.5072   33.1134 O.2     1  UNL1       -0.2751
     27 N           1.5886    2.0684   33.6576 N.am    1  UNL1       -0.3059
     28 H           1.3827    1.3675   34.3175 H       1  UNL1        0.1494
     29 C           1.3139    4.9054   36.1556 C.3     1  UNL1        0.0101
     30 C           2.0701    3.7421   35.5855 C.3     1  UNL1        0.0851
@<TRIPOS>BOND
     1    29    30    1
     2    30    25    1
     3    25    26    2
     4    25    27   am
     5    20    27    1
     6    20    21    1
     7    21    22    1
     8    22    23    1
     9    23     1    1
    10     1     2    2
    11     1     3   am
    12     3     4    1
    13     3     5    1
    14     5     6   ar
    15     6     7   ar
    16     7     8   ar
    17     8    11    1
    18    11    12   ar
    19    12    13   ar
    20    13    14   ar
    21    14    15   ar
    22    15    16   ar
    23    16    17   ar
    24    17    18   ar
    25    18    19   ar
    26     8     9   ar
    27     9    10   ar
    28    23    24    1
    29    24    20    1
    30    10     5   ar
    31    19    11   ar
    32    18    13   ar
    33    27    28    1
@<TRIPOS>MOLECULE
*****
 30 33 0 0 0
SMALL
GASTEIGER

@<TRIPOS>ATOM
      1 C           2.7626    1.0323   20.0359 C.2     1  UNL1        0.2289
      2 O           2.6399    1.0139   21.5308 O.2     1  UNL1       -0.2745
      3 N           3.6355    0.0288   19.3426 N.am    1  UNL1       -0.2569
      4 C           3.7582    0.0473   17.8478 C.3     1  UNL1        0.1200
      5 C           4.3858   -0.9933   20.1441 C.ar    1  UNL1        0.0539
      6 C           3.7820   -2.3441   20.3905 C.ar    1  UNL1        0.0151
      7 C           4.5323   -3.3662   21.1920 C.ar    1  UNL1        0.0059
      8 C           5.8864   -3.0375   21.7472 C.ar    1  UNL1        0.0537
      9 C           6.4902   -1.6867   21.5008 C.ar    1  UNL1        0.0059
     10 C           5.7399   -0.6646   20.6993 C.ar    1  UNL1        0.0151
     11 C           6.6367   -4.0596   22.5487 C.ar    1  UNL1        0.2297
     12 N           6.6074   -4.2044   24.0414 N.ar    1  UNL1       -0.2083
     13 C           7.5006   -5.3506   24.4135 C.ar    1  UNL1        0.1189
     14 C           7.8597   -5.9540   25.7390 C.ar    1  UNL1        0.0223
     15 C           8.8001   -7.1209   25.8017 C.ar    1  UNL1        0.0018
     16 C           9.3814   -7.6844   24.5390 C.ar    1  UNL1        0.0032
     17 C           9.0222   -7.0811   23.2135 C.ar    1  UNL1        0.0391
     18 C           8.0819   -5.9142   23.1507 C.ar    1  UNL1        0.1647
     19 O           7.5479   -5.1163   21.9983 O.2     1  UNL1       -0.4346
     20 C           0.3069    3.1317   17.8847 C.3     1  UNL1        0.0720
     21 C           1.4085    4.1228   18.1173 C.3     1  UNL1        0.0201
     22 C           2.4626    3.4570   18.9515 C.3     1  UNL1        0.0108
     23 C           2.0123    2.0544   19.2344 C.3     1  UNL1        0.0787
     24 C           0.6800    1.8534   18.5751 C.3     1  UNL1        0.0286
     25 C          -2.1858    3.8584   17.7954 C.2     1  UNL1        0.2224
     26 O          -2.1695    4.0963   19.2763 O.2     1  UNL1       -0.2751
     27 N          -0.9476    3.3761   17.0996 N.am    1  UNL1       -0.3059
     28 H          -0.9582    3.2199   16.1276 H       1  UNL1        0.1494
     29 C          -4.7786    3.8303   17.6308 C.3     1  UNL1        0.0101
     30 C          -3.4404    4.1028   17.0103 C.3     1  UNL1        0.0851
@<TRIPOS>BOND
     1    29    30    1
     2    30    25    1
     3    25    26    2
     4    25    27   am
     5    20    27    1
     6    20    21    1
     7    21    22    1
     8    22    23    1
     9    23     1    1
    10     1     2    2
    11     1     3   am
    12     3     4    1
    13     3     5    1
    14     5     6   ar
    15     6     7   ar
    16     7     8   ar
    17     8    11    1
    18    11    12   ar
    19    12    13   ar
    20    13    14   ar
    21    14    15   ar
    22    15    16   ar
    23    16    17   ar
    24    17    18   ar
    25    18    19   ar
    26     8     9   ar
    27     9    10   ar
    28    23    24    1
    29    24    20    1
    30    10     5   ar
    31    19    11   ar
    32    18    13   ar
    33    27    28    1
@<TRIPOS>MOLECULE
*****
 30 33 0 0 0
SMALL
GASTEIGER

@<TRIPOS>ATOM
      1 C           1.5060    0.6362   29.2751 C.2     1  UNL1        0.2289
      2 O           0.1871   -0.0746   29.3481 O.2     1  UNL1       -0.2745
      3 N           1.7075    1.7433   28.2833 N.am    1  UNL1       -0.2569
      4 C           3.0264    2.4540   28.2104 C.3     1  UNL1        0.1200
      5 C           0.5901    2.1396   27.3644 C.ar    1  UNL1        0.0539
      6 C           0.4832    1.5197   26.0027 C.ar    1  UNL1        0.0151
      7 C          -0.6341    1.9161   25.0838 C.ar    1  UNL1        0.0059
      8 C          -1.6446    2.9323   25.5266 C.ar    1  UNL1        0.0537
      9 C          -1.5377    3.5522   26.8883 C.ar    1  UNL1        0.0059
     10 C          -0.4203    3.1559   27.8072 C.ar    1  UNL1        0.0151
     11 C          -2.7620    3.3287   24.6077 C.ar    1  UNL1        0.2297
     12 N          -4.1800    3.6042   25.0116 N.ar    1  UNL1       -0.2083
     13 C          -4.9520    3.9649   23.7771 C.ar    1  UNL1        0.1189
     14 C          -6.3901    4.3344   23.5647 C.ar    1  UNL1        0.0223
     15 C          -6.8873    4.6513   22.1855 C.ar    1  UNL1        0.0018
     16 C          -5.9462    4.5988   21.0186 C.ar    1  UNL1        0.0032
     17 C          -4.5081    4.2292   21.2309 C.ar    1  UNL1        0.0391
     18 C          -4.0110    3.9123   22.6101 C.ar    1  UNL1        0.1647
     19 O          -2.6575    3.5191   23.1235 O.2     1  UNL1       -0.4346
     20 C           4.0642    0.0787   32.1405 C.3     1  UNL1        0.0720
     21 C           4.6216   -0.8188   31.0757 C.3     1  UNL1        0.0201
     22 C           3.7311   -0.7192   29.8726 C.3     1  UNL1        0.0108
     23 C           2.6234    0.2399   30.1940 C.3     1  UNL1        0.0787
     24 C           2.8292    0.7330   31.5956 C.3     1  UNL1        0.0286
     25 C           4.5597   -0.8104   34.5309 C.2     1  UNL1        0.2224
     26 O           3.9025   -2.1130   34.1826 O.2     1  UNL1       -0.2751
     27 N           4.6405    0.2855   33.5098 N.am    1  UNL1       -0.3059
     28 H           5.0719    1.1405   33.7383 H       1  UNL1        0.1494
     29 C           4.4664    0.3323   36.8623 C.3     1  UNL1        0.0101
     30 C           5.1361   -0.6036   35.9002 C.3     1  UNL1        0.0851
@<TRIPOS>BOND
     1    29    30    1
     2    30    25    1
     3    25    26    2
     4    25    27   am
     5    20    27    1
     6    20    21    1
     7    21    22    1
     8    22    23    1
     9    23     1    1
    10     1     2    2
    11     1     3   am
    12     3     4    1
    13     3     5    1
    14     5     6   ar
    15     6     7   ar
    16     7     8   ar
    17     8    11    1
    18    11    12   ar
    19    12    13   ar
    20    13    14   ar
    21    14    15   ar
    22    15    16   ar
    23    16    17   ar
    24    17    18   ar
    25    18    19   ar
    26     8     9   ar
    27     9    10   ar
    28    23    24    1
    29    24    20    1
    30    10     5   ar
    31    19    11   ar
    32    18    13   ar
    33    27    28    1
