@<TRIPOS>MOLECULE
*****
 31 33 0 0 0
SMALL
GASTEIGER

@<TRIPOS>ATOM
      1 N         -12.1168  -18.3526   21.1288 N.3     1  UNL1       -0.2972
      2 H         -12.8750  -19.0334   21.0853 H       1  UNL1        0.1233
      3 C         -11.0537  -20.1447   21.5266 C.3     1  UNL1        0.0161
      4 C         -10.9039  -19.0174   20.5484 C.3     1  UNL1        0.0461
      5 C         -10.7542  -17.8902   19.5701 C.3     1  UNL1        0.0161
      6 C          -9.6911  -19.6823   19.9679 C.3     1  UNL1        0.0408
      7 C          -8.3482  -19.4812   20.6053 C.ar    1  UNL1       -0.0209
      8 C          -8.2367  -18.7284   21.8980 C.ar    1  UNL1       -0.0042
      9 C          -6.8939  -18.5272   22.5354 C.ar    1  UNL1       -0.0003
     10 C          -5.6624  -19.0788   21.8801 C.ar    1  UNL1       -0.0000
     11 C          -4.3196  -18.8776   22.5175 C.ar    1  UNL1       -0.0000
     12 C          -3.0882  -19.4292   21.8623 C.ar    1  UNL1       -0.0000
     13 C          -3.1997  -20.1820   20.5696 C.ar    1  UNL1       -0.0000
     14 C          -4.5425  -20.3831   19.9322 C.ar    1  UNL1       -0.0000
     15 C          -5.7739  -19.8316   20.5875 C.ar    1  UNL1       -0.0003
     16 C          -7.1168  -20.0327   19.9501 C.ar    1  UNL1       -0.0042
     17 C         -12.0848  -17.8292   22.5342 C.3     1  UNL1        0.1020
     18 C         -11.1297  -16.7336   22.9050 C.3     1  UNL1        0.1697
     19 O         -11.0603  -15.4863   22.0747 O.3     1  UNL1       -0.3793
     20 H         -11.6933  -15.5497   21.3425 H       1  UNL1        0.2106
     21 C         -10.2440  -16.8854   24.1061 C.3     1  UNL1        0.2358
     22 O          -9.7167  -15.6689   24.8076 O.3     1  UNL1       -0.4721
     23 C          -8.2742  -15.6036   25.2136 C.ar    1  UNL1        0.1490
     24 C          -7.8926  -15.7673   26.6550 C.ar    1  UNL1        0.0377
     25 C          -6.4501  -15.7020   27.0610 C.ar    1  UNL1        0.0040
     26 C          -5.3891  -15.4729   26.0256 C.ar    1  UNL1        0.0123
     27 C          -5.7707  -15.3091   24.5843 C.ar    1  UNL1        0.0702
     28 CL         -4.7098  -15.0800   23.5489 Cl      1  UNL1       -0.0814
     29 C          -7.2132  -15.3745   24.1783 C.ar    1  UNL1        0.1128
     30 C          -7.5949  -15.2107   22.7369 C.1     1  UNL1        0.1043
     31 N          -7.9766  -15.0469   21.2955 N.1     1  UNL1       -0.1907
@<TRIPOS>BOND
     1     3     4    1
     2     4     5    1
     3     4     6    1
     4     6     7    1
     5     7     8   ar
     6     8     9   ar
     7     9    10   ar
     8    10    11   ar
     9    11    12   ar
    10    12    13   ar
    11    13    14   ar
    12    14    15   ar
    13    15    16   ar
    14     4     1    1
    15     1    17    1
    16    17    18    1
    17    18    19    1
    18    18    21    1
    19    21    22    1
    20    22    23    1
    21    23    24   ar
    22    24    25   ar
    23    25    26   ar
    24    26    27   ar
    25    27    28    1
    26    27    29   ar
    27    29    30    1
    28    30    31    3
    29    16     7   ar
    30    29    23   ar
    31    15    10   ar
    32     1     2    1
    33    19    20    1
@<TRIPOS>MOLECULE
*****
 31 33 0 0 0
SMALL
GASTEIGER

@<TRIPOS>ATOM
      1 N          -9.3162  -19.0051   21.4260 N.3     1  UNL1       -0.2972
      2 H          -9.8117  -19.0115   20.5345 H       1  UNL1        0.1233
      3 C          -7.9028  -20.0103   22.6475 C.3     1  UNL1        0.0161
      4 C          -7.9913  -19.6677   21.1898 C.3     1  UNL1        0.0461
      5 C          -8.0798  -19.3250   19.7322 C.3     1  UNL1        0.0161
      6 C          -6.6665  -20.3303   20.9536 C.3     1  UNL1        0.0408
      7 C          -5.3982  -19.5411   21.0906 C.ar    1  UNL1       -0.0209
      8 C          -5.0492  -18.9042   22.4030 C.ar    1  UNL1       -0.0042
      9 C          -3.7810  -18.1151   22.5400 C.ar    1  UNL1       -0.0003
     10 C          -2.8617  -17.9627   21.3644 C.ar    1  UNL1       -0.0000
     11 C          -1.5935  -17.1735   21.5014 C.ar    1  UNL1       -0.0000
     12 C          -0.6743  -17.0212   20.3259 C.ar    1  UNL1       -0.0000
     13 C          -1.0234  -17.6580   19.0134 C.ar    1  UNL1       -0.0000
     14 C          -2.2916  -18.4472   18.8764 C.ar    1  UNL1       -0.0000
     15 C          -3.2108  -18.5995   20.0520 C.ar    1  UNL1       -0.0003
     16 C          -4.4791  -19.3887   19.9150 C.ar    1  UNL1       -0.0042
     17 C         -10.2606  -19.5608   22.4504 C.3     1  UNL1        0.1020
     18 C         -10.9051  -18.6469   23.4501 C.3     1  UNL1        0.1697
     19 O         -12.3121  -18.1731   23.2353 O.3     1  UNL1       -0.3793
     20 H         -12.6568  -18.5476   22.4095 H       1  UNL1        0.2106
     21 C         -10.1428  -18.2068   24.6646 C.3     1  UNL1        0.2358
     22 O          -9.8670  -16.7496   24.8898 O.3     1  UNL1       -0.4721
     23 C          -8.5217  -16.3089   25.3859 C.ar    1  UNL1        0.1490
     24 C          -8.2570  -16.2234   26.8598 C.ar    1  UNL1        0.0377
     25 C          -6.9118  -15.7826   27.3559 C.ar    1  UNL1        0.0040
     26 C          -5.8313  -15.4274   26.3779 C.ar    1  UNL1        0.0123
     27 C          -6.0960  -15.5129   24.9040 C.ar    1  UNL1        0.0702
     28 CL         -5.0155  -15.1577   23.9261 Cl      1  UNL1       -0.0814
     29 C          -7.4412  -15.9537   24.4080 C.ar    1  UNL1        0.1128
     30 C          -7.7060  -16.0392   22.9339 C.1     1  UNL1        0.1043
     31 N          -7.9707  -16.1247   21.4600 N.1     1  UNL1       -0.1907
@<TRIPOS>BOND
     1     3     4    1
     2     4     5    1
     3     4     6    1
     4     6     7    1
     5     7     8   ar
     6     8     9   ar
     7     9    10   ar
     8    10    11   ar
     9    11    12   ar
    10    12    13   ar
    11    13    14   ar
    12    14    15   ar
    13    15    16   ar
    14     4     1    1
    15     1    17    1
    16    17    18    1
    17    18    19    1
    18    18    21    1
    19    21    22    1
    20    22    23    1
    21    23    24   ar
    22    24    25   ar
    23    25    26   ar
    24    26    27   ar
    25    27    28    1
    26    27    29   ar
    27    29    30    1
    28    30    31    3
    29    16     7   ar
    30    29    23   ar
    31    15    10   ar
    32     1     2    1
    33    19    20    1
@<TRIPOS>MOLECULE
*****
 31 33 0 0 0
SMALL
GASTEIGER

@<TRIPOS>ATOM
      1 N          -9.4602  -18.9551   21.7073 N.3     1  UNL1       -0.2972
      2 H          -9.4725  -18.7009   22.6950 H       1  UNL1        0.1233
      3 C          -8.0932  -20.0612   22.8939 C.3     1  UNL1        0.0161
      4 C          -8.1527  -19.6452   21.4539 C.3     1  UNL1        0.0461
      5 C          -8.2121  -19.2293   20.0140 C.3     1  UNL1        0.0161
      6 C          -6.8451  -20.3353   21.2006 C.3     1  UNL1        0.0408
      7 C          -5.5621  -19.5616   21.2744 C.ar    1  UNL1       -0.0209
      8 C          -5.1553  -18.9048   22.5601 C.ar    1  UNL1       -0.0042
      9 C          -3.8723  -18.1311   22.6338 C.ar    1  UNL1       -0.0003
     10 C          -2.9962  -18.0143   21.4219 C.ar    1  UNL1       -0.0000
     11 C          -1.7132  -17.2406   21.4956 C.ar    1  UNL1       -0.0000
     12 C          -0.8372  -17.1239   20.2837 C.ar    1  UNL1       -0.0000
     13 C          -1.2440  -17.7807   18.9980 C.ar    1  UNL1       -0.0000
     14 C          -2.5270  -18.5544   18.9242 C.ar    1  UNL1       -0.0000
     15 C          -3.4030  -18.6712   20.1362 C.ar    1  UNL1       -0.0003
     16 C          -4.6861  -19.4448   20.0624 C.ar    1  UNL1       -0.0042
     17 C          -9.8169  -17.7182   20.9373 C.3     1  UNL1        0.1020
     18 C          -9.7993  -16.3809   21.6164 C.3     1  UNL1        0.1697
     19 O         -11.0877  -15.7295   22.0238 O.3     1  UNL1       -0.3793
     20 H         -11.8313  -16.3013   21.7769 H       1  UNL1        0.2106
     21 C          -8.4933  -15.6948   21.8880 C.3     1  UNL1        0.2358
     22 O          -7.3945  -16.4282   22.5985 O.3     1  UNL1       -0.4721
     23 C          -7.0416  -16.0654   24.0106 C.ar    1  UNL1        0.1490
     24 C          -5.7559  -15.3498   24.3022 C.ar    1  UNL1        0.0377
     25 C          -5.4031  -14.9871   25.7142 C.ar    1  UNL1        0.0040
     26 C          -6.3358  -15.3399   26.8346 C.ar    1  UNL1        0.0123
     27 C          -7.6215  -16.0555   26.5431 C.ar    1  UNL1        0.0702
     28 CL         -8.5543  -16.4083   27.6635 Cl      1  UNL1       -0.0814
     29 C          -7.9743  -16.4182   25.1311 C.ar    1  UNL1        0.1128
     30 C          -9.2600  -17.1338   24.8394 C.1     1  UNL1        0.1043
     31 N         -10.5457  -17.8493   24.5478 N.1     1  UNL1       -0.1907
@<TRIPOS>BOND
     1     3     4    1
     2     4     5    1
     3     4     6    1
     4     6     7    1
     5     7     8   ar
     6     8     9   ar
     7     9    10   ar
     8    10    11   ar
     9    11    12   ar
    10    12    13   ar
    11    13    14   ar
    12    14    15   ar
    13    15    16   ar
    14     4     1    1
    15     1    17    1
    16    17    18    1
    17    18    19    1
    18    18    21    1
    19    21    22    1
    20    22    23    1
    21    23    24   ar
    22    24    25   ar
    23    25    26   ar
    24    26    27   ar
    25    27    28    1
    26    27    29   ar
    27    29    30    1
    28    30    31    3
    29    16     7   ar
    30    29    23   ar
    31    15    10   ar
    32     1     2    1
    33    19    20    1
@<TRIPOS>MOLECULE
*****
 31 33 0 0 0
SMALL
GASTEIGER

@<TRIPOS>ATOM
      1 N          -6.2745  -14.7078   25.7006 N.3     1  UNL1       -0.2972
      2 H          -6.0275  -14.3117   26.6075 H       1  UNL1        0.1233
      3 C          -7.2007  -15.9029   27.1885 C.3     1  UNL1        0.0161
      4 C          -7.6216  -15.3480   25.8600 C.3     1  UNL1        0.0461
      5 C          -8.0425  -14.7932   24.5314 C.3     1  UNL1        0.0161
      6 C          -8.9687  -15.9882   26.0193 C.3     1  UNL1        0.0408
      7 C          -9.4188  -17.0399   25.0490 C.ar    1  UNL1       -0.0209
      8 C          -9.6506  -18.4451   25.5201 C.ar    1  UNL1       -0.0042
      9 C         -10.1006  -19.4967   24.5499 C.ar    1  UNL1       -0.0003
     10 C         -10.3190  -19.1433   23.1085 C.ar    1  UNL1       -0.0000
     11 C         -10.7690  -20.1950   22.1383 C.ar    1  UNL1       -0.0000
     12 C         -10.9873  -19.8415   20.6970 C.ar    1  UNL1       -0.0000
     13 C         -10.7556  -18.4364   20.2259 C.ar    1  UNL1       -0.0000
     14 C         -10.3055  -17.3847   21.1961 C.ar    1  UNL1       -0.0000
     15 C         -10.0872  -17.7382   22.6374 C.ar    1  UNL1       -0.0003
     16 C          -9.6371  -16.6865   23.6077 C.ar    1  UNL1       -0.0042
     17 C          -5.1019  -15.5293   25.2531 C.3     1  UNL1        0.1020
     18 C          -4.7124  -15.5538   23.8047 C.3     1  UNL1        0.1697
     19 O          -5.1172  -14.4278   22.9001 O.3     1  UNL1       -0.3793
     20 H          -5.6211  -13.7715   23.4063 H       1  UNL1        0.2106
     21 C          -3.9182  -16.7042   23.2610 C.3     1  UNL1        0.2358
     22 O          -4.3674  -18.1126   23.5155 O.3     1  UNL1       -0.4721
     23 C          -5.0331  -18.8965   22.4235 C.ar    1  UNL1        0.1490
     24 C          -6.5279  -19.0165   22.3906 C.ar    1  UNL1        0.0377
     25 C          -7.1935  -19.8003   21.2986 C.ar    1  UNL1        0.0040
     26 C          -6.3642  -20.4642   20.2395 C.ar    1  UNL1        0.0123
     27 C          -4.8694  -20.3441   20.2724 C.ar    1  UNL1        0.0702
     28 CL         -4.0402  -21.0080   19.2133 Cl      1  UNL1       -0.0814
     29 C          -4.2039  -19.5603   21.3644 C.ar    1  UNL1        0.1128
     30 C          -2.7090  -19.4403   21.3973 C.1     1  UNL1        0.1043
     31 N          -1.2142  -19.3202   21.4302 N.1     1  UNL1       -0.1907
@<TRIPOS>BOND
     1     3     4    1
     2     4     5    1
     3     4     6    1
     4     6     7    1
     5     7     8   ar
     6     8     9   ar
     7     9    10   ar
     8    10    11   ar
     9    11    12   ar
    10    12    13   ar
    11    13    14   ar
    12    14    15   ar
    13    15    16   ar
    14     4     1    1
    15     1    17    1
    16    17    18    1
    17    18    19    1
    18    18    21    1
    19    21    22    1
    20    22    23    1
    21    23    24   ar
    22    24    25   ar
    23    25    26   ar
    24    26    27   ar
    25    27    28    1
    26    27    29   ar
    27    29    30    1
    28    30    31    3
    29    16     7   ar
    30    29    23   ar
    31    15    10   ar
    32     1     2    1
    33    19    20    1
@<TRIPOS>MOLECULE
*****
 31 33 0 0 0
SMALL
GASTEIGER

@<TRIPOS>ATOM
      1 N          -6.3938  -14.4807   24.6107 N.3     1  UNL1       -0.2972
      2 H          -6.0730  -13.7563   23.9683 H       1  UNL1        0.1233
      3 C          -4.7810  -15.0641   23.3623 C.3     1  UNL1        0.0161
      4 C          -5.2923  -15.4945   24.7052 C.3     1  UNL1        0.0461
      5 C          -5.8036  -15.9249   26.0481 C.3     1  UNL1        0.0161
      6 C          -4.1908  -16.5083   24.7996 C.3     1  UNL1        0.0408
      7 C          -3.9456  -17.4574   23.6642 C.ar    1  UNL1       -0.0209
      8 C          -2.5685  -17.5950   23.0857 C.ar    1  UNL1       -0.0042
      9 C          -2.3233  -18.5441   21.9504 C.ar    1  UNL1       -0.0003
     10 C          -3.4553  -19.3556   21.3935 C.ar    1  UNL1       -0.0000
     11 C          -3.2101  -20.3047   20.2581 C.ar    1  UNL1       -0.0000
     12 C          -4.3420  -21.1162   19.7012 C.ar    1  UNL1       -0.0000
     13 C          -5.7191  -20.9787   20.2797 C.ar    1  UNL1       -0.0000
     14 C          -5.9643  -20.0296   21.4151 C.ar    1  UNL1       -0.0000
     15 C          -4.8324  -19.2181   21.9719 C.ar    1  UNL1       -0.0003
     16 C          -5.0775  -18.2689   23.1074 C.ar    1  UNL1       -0.0042
     17 C          -7.7585  -14.8970   24.1474 C.3     1  UNL1        0.1020
     18 C          -7.9167  -15.6429   22.8557 C.3     1  UNL1        0.1697
     19 O          -8.0622  -14.8888   21.5671 O.3     1  UNL1       -0.3793
     20 H          -8.0333  -13.9358   21.7452 H       1  UNL1        0.2106
     21 C          -7.9296  -17.1428   22.8525 C.3     1  UNL1        0.2358
     22 O          -8.8344  -17.8831   21.9126 O.3     1  UNL1       -0.4721
     23 C         -10.3090  -17.6077   21.9183 C.ar    1  UNL1        0.1490
     24 C         -10.9347  -16.8499   20.7851 C.ar    1  UNL1        0.0377
     25 C         -12.4092  -16.5746   20.7908 C.ar    1  UNL1        0.0040
     26 C         -13.2579  -17.0570   21.9297 C.ar    1  UNL1        0.0123
     27 C         -12.6321  -17.8147   23.0628 C.ar    1  UNL1        0.0702
     28 CL        -13.4808  -18.2971   24.2017 Cl      1  UNL1       -0.0814
     29 C         -11.1576  -18.0901   23.0572 C.ar    1  UNL1        0.1128
     30 C         -10.5318  -18.8478   24.1904 C.1     1  UNL1        0.1043
     31 N          -9.9059  -19.6055   25.3236 N.1     1  UNL1       -0.1907
@<TRIPOS>BOND
     1     3     4    1
     2     4     5    1
     3     4     6    1
     4     6     7    1
     5     7     8   ar
     6     8     9   ar
     7     9    10   ar
     8    10    11   ar
     9    11    12   ar
    10    12    13   ar
    11    13    14   ar
    12    14    15   ar
    13    15    16   ar
    14     4     1    1
    15     1    17    1
    16    17    18    1
    17    18    19    1
    18    18    21    1
    19    21    22    1
    20    22    23    1
    21    23    24   ar
    22    24    25   ar
    23    25    26   ar
    24    26    27   ar
    25    27    28    1
    26    27    29   ar
    27    29    30    1
    28    30    31    3
    29    16     7   ar
    30    29    23   ar
    31    15    10   ar
    32     1     2    1
    33    19    20    1
@<TRIPOS>MOLECULE
*****
 31 33 0 0 0
SMALL
GASTEIGER

@<TRIPOS>ATOM
      1 N          -6.8028  -14.5483   24.3057 N.3     1  UNL1       -0.2972
      2 H          -6.5134  -13.8079   23.6666 H       1  UNL1        0.1233
      3 C          -6.2308  -16.0129   25.7297 C.3     1  UNL1        0.0161
      4 C          -5.6238  -15.4602   24.4743 C.3     1  UNL1        0.0461
      5 C          -5.0168  -14.9075   23.2189 C.3     1  UNL1        0.0161
      6 C          -4.4448  -16.3721   24.6429 C.3     1  UNL1        0.0408
      7 C          -4.1072  -17.3673   23.5725 C.ar    1  UNL1       -0.0209
      8 C          -2.6884  -17.5193   23.1102 C.ar    1  UNL1       -0.0042
      9 C          -2.3508  -18.5144   22.0399 C.ar    1  UNL1       -0.0003
     10 C          -3.4321  -19.3576   21.4317 C.ar    1  UNL1       -0.0000
     11 C          -3.0945  -20.3528   20.3614 C.ar    1  UNL1       -0.0000
     12 C          -4.1758  -21.1959   19.7533 C.ar    1  UNL1       -0.0000
     13 C          -5.5947  -21.0439   20.2156 C.ar    1  UNL1       -0.0000
     14 C          -5.9323  -20.0488   21.2859 C.ar    1  UNL1       -0.0000
     15 C          -4.8510  -19.2057   21.8940 C.ar    1  UNL1       -0.0003
     16 C          -5.1885  -18.2104   22.9644 C.ar    1  UNL1       -0.0042
     17 C          -8.1005  -15.0892   23.7826 C.3     1  UNL1        0.1020
     18 C          -8.2170  -15.4985   22.3442 C.3     1  UNL1        0.1697
     19 O          -8.6452  -14.4978   21.3120 O.3     1  UNL1       -0.3793
     20 H          -8.8062  -13.6418   21.7387 H       1  UNL1        0.2106
     21 C          -7.9053  -16.9084   21.9380 C.3     1  UNL1        0.2358
     22 O          -9.0196  -17.8625   21.6251 O.3     1  UNL1       -0.4721
     23 C          -9.9773  -18.2766   22.7029 C.ar    1  UNL1        0.1490
     24 C          -9.4926  -19.0939   23.8635 C.ar    1  UNL1        0.0377
     25 C         -10.4502  -19.5079   24.9411 C.ar    1  UNL1        0.0040
     26 C         -11.8926  -19.1046   24.8582 C.ar    1  UNL1        0.0123
     27 C         -12.3773  -18.2873   23.6976 C.ar    1  UNL1        0.0702
     28 CL        -13.8197  -17.8840   23.6147 Cl      1  UNL1       -0.0814
     29 C         -11.4197  -17.8733   22.6200 C.ar    1  UNL1        0.1128
     30 C         -11.9044  -17.0560   21.4593 C.1     1  UNL1        0.1043
     31 N         -12.3890  -16.2386   20.2987 N.1     1  UNL1       -0.1907
@<TRIPOS>BOND
     1     3     4    1
     2     4     5    1
     3     4     6    1
     4     6     7    1
     5     7     8   ar
     6     8     9   ar
     7     9    10   ar
     8    10    11   ar
     9    11    12   ar
    10    12    13   ar
    11    13    14   ar
    12    14    15   ar
    13    15    16   ar
    14     4     1    1
    15     1    17    1
    16    17    18    1
    17    18    19    1
    18    18    21    1
    19    21    22    1
    20    22    23    1
    21    23    24   ar
    22    24    25   ar
    23    25    26   ar
    24    26    27   ar
    25    27    28    1
    26    27    29   ar
    27    29    30    1
    28    30    31    3
    29    16     7   ar
    30    29    23   ar
    31    15    10   ar
    32     1     2    1
    33    19    20    1
@<TRIPOS>MOLECULE
*****
 31 33 0 0 0
SMALL
GASTEIGER

@<TRIPOS>ATOM
      1 N          -8.2345  -15.6165   25.2489 N.3     1  UNL1       -0.2972
      2 H          -8.5901  -14.6896   25.0146 H       1  UNL1        0.1233
      3 C          -7.1893  -15.3050   23.4293 C.3     1  UNL1        0.0161
      4 C          -6.7928  -15.6442   24.8357 C.3     1  UNL1        0.0461
      5 C          -6.3962  -15.9833   26.2420 C.3     1  UNL1        0.0161
      6 C          -5.3511  -15.6719   24.4224 C.3     1  UNL1        0.0408
      7 C          -4.8608  -16.7323   23.4816 C.ar    1  UNL1       -0.0209
      8 C          -3.4114  -16.7833   23.0986 C.ar    1  UNL1       -0.0042
      9 C          -2.9211  -17.8437   22.1578 C.ar    1  UNL1       -0.0003
     10 C          -3.8802  -18.8532   21.5999 C.ar    1  UNL1       -0.0000
     11 C          -3.3900  -19.9135   20.6591 C.ar    1  UNL1       -0.0000
     12 C          -4.3491  -20.9229   20.1012 C.ar    1  UNL1       -0.0000
     13 C          -5.7984  -20.8719   20.4842 C.ar    1  UNL1       -0.0000
     14 C          -6.2887  -19.8116   21.4250 C.ar    1  UNL1       -0.0000
     15 C          -5.3296  -18.8022   21.9829 C.ar    1  UNL1       -0.0003
     16 C          -5.8199  -17.7417   22.9237 C.ar    1  UNL1       -0.0042
     17 C          -9.1994  -16.6092   24.6714 C.3     1  UNL1        0.1020
     18 C          -9.5152  -17.8705   25.4194 C.3     1  UNL1        0.1697
     19 O          -9.3232  -17.9289   26.9060 O.3     1  UNL1       -0.3793
     20 H          -8.9919  -17.0742   27.2231 H       1  UNL1        0.2106
     21 C         -10.0231  -19.0733   24.6809 C.3     1  UNL1        0.2358
     22 O         -11.2012  -18.9465   23.7612 O.3     1  UNL1       -0.4721
     23 C         -10.9904  -18.8753   22.2778 C.ar    1  UNL1        0.1490
     24 C         -10.4100  -20.0488   21.5456 C.ar    1  UNL1        0.0377
     25 C         -10.1992  -19.9776   20.0622 C.ar    1  UNL1        0.0040
     26 C         -10.5688  -18.7330   19.3110 C.ar    1  UNL1        0.0123
     27 C         -11.1493  -17.5596   20.0432 C.ar    1  UNL1        0.0702
     28 CL        -11.5189  -16.3149   19.2920 Cl      1  UNL1       -0.0814
     29 C         -11.3601  -17.6307   21.5266 C.ar    1  UNL1        0.1128
     30 C         -11.9405  -16.4573   22.2588 C.1     1  UNL1        0.1043
     31 N         -12.5209  -15.2838   22.9910 N.1     1  UNL1       -0.1907
@<TRIPOS>BOND
     1     3     4    1
     2     4     5    1
     3     4     6    1
     4     6     7    1
     5     7     8   ar
     6     8     9   ar
     7     9    10   ar
     8    10    11   ar
     9    11    12   ar
    10    12    13   ar
    11    13    14   ar
    12    14    15   ar
    13    15    16   ar
    14     4     1    1
    15     1    17    1
    16    17    18    1
    17    18    19    1
    18    18    21    1
    19    21    22    1
    20    22    23    1
    21    23    24   ar
    22    24    25   ar
    23    25    26   ar
    24    26    27   ar
    25    27    28    1
    26    27    29   ar
    27    29    30    1
    28    30    31    3
    29    16     7   ar
    30    29    23   ar
    31    15    10   ar
    32     1     2    1
    33    19    20    1
@<TRIPOS>MOLECULE
*****
 31 33 0 0 0
SMALL
GASTEIGER

@<TRIPOS>ATOM
      1 N          -8.5473  -16.0467   24.8210 N.3     1  UNL1       -0.2972
      2 H          -9.0486  -15.2473   24.4337 H       1  UNL1        0.1233
      3 C          -7.3101  -15.6387   23.1468 C.3     1  UNL1        0.0161
      4 C          -7.0849  -15.7779   24.6233 C.3     1  UNL1        0.0461
      5 C          -6.8597  -15.9171   26.0997 C.3     1  UNL1        0.0161
      6 C          -5.6225  -15.5091   24.4256 C.3     1  UNL1        0.0408
      7 C          -4.7987  -16.4308   23.5759 C.ar    1  UNL1       -0.0209
      8 C          -5.1626  -17.8824   23.4736 C.ar    1  UNL1       -0.0042
      9 C          -4.3389  -18.8041   22.6240 C.ar    1  UNL1       -0.0003
     10 C          -3.1511  -18.2742   21.8766 C.ar    1  UNL1       -0.0000
     11 C          -2.3274  -19.1959   21.0270 C.ar    1  UNL1       -0.0000
     12 C          -1.1396  -18.6660   20.2797 C.ar    1  UNL1       -0.0000
     13 C          -0.7757  -17.2144   20.3820 C.ar    1  UNL1       -0.0000
     14 C          -1.5994  -16.2927   21.2316 C.ar    1  UNL1       -0.0000
     15 C          -2.7871  -16.8226   21.9789 C.ar    1  UNL1       -0.0003
     16 C          -3.6109  -15.9009   22.8286 C.ar    1  UNL1       -0.0042
     17 C          -9.1705  -17.2764   24.2298 C.3     1  UNL1        0.1020
     18 C          -9.4834  -18.4536   25.1052 C.3     1  UNL1        0.1697
     19 O          -9.6451  -18.2660   26.5847 O.3     1  UNL1       -0.3793
     20 H          -9.5166  -17.3308   26.8080 H       1  UNL1        0.2106
     21 C          -9.6346  -19.8182   24.5013 C.3     1  UNL1        0.2358
     22 O         -10.7495  -20.0918   23.5358 O.3     1  UNL1       -0.4721
     23 C         -10.8429  -19.3123   22.2576 C.ar    1  UNL1        0.1490
     24 C          -9.8717  -19.5763   21.1454 C.ar    1  UNL1        0.0377
     25 C          -9.9651  -18.7968   19.8673 C.ar    1  UNL1        0.0040
     26 C         -11.0298  -17.7533   19.7014 C.ar    1  UNL1        0.0123
     27 C         -12.0010  -17.4893   20.8136 C.ar    1  UNL1        0.0702
     28 CL        -13.0657  -16.4458   20.6476 Cl      1  UNL1       -0.0814
     29 C         -11.9076  -18.2688   22.0917 C.ar    1  UNL1        0.1128
     30 C         -12.8788  -18.0048   23.2039 C.1     1  UNL1        0.1043
     31 N         -13.8500  -17.7408   24.3161 N.1     1  UNL1       -0.1907
@<TRIPOS>BOND
     1     3     4    1
     2     4     5    1
     3     4     6    1
     4     6     7    1
     5     7     8   ar
     6     8     9   ar
     7     9    10   ar
     8    10    11   ar
     9    11    12   ar
    10    12    13   ar
    11    13    14   ar
    12    14    15   ar
    13    15    16   ar
    14     4     1    1
    15     1    17    1
    16    17    18    1
    17    18    19    1
    18    18    21    1
    19    21    22    1
    20    22    23    1
    21    23    24   ar
    22    24    25   ar
    23    25    26   ar
    24    26    27   ar
    25    27    28    1
    26    27    29   ar
    27    29    30    1
    28    30    31    3
    29    16     7   ar
    30    29    23   ar
    31    15    10   ar
    32     1     2    1
    33    19    20    1
@<TRIPOS>MOLECULE
*****
 31 33 0 0 0
SMALL
GASTEIGER

@<TRIPOS>ATOM
      1 N          -9.4042  -19.4326   21.2226 N.3     1  UNL1       -0.2972
      2 H         -10.0869  -19.7058   21.9294 H       1  UNL1        0.1233
      3 C          -8.6256  -20.0542   23.0954 C.3     1  UNL1        0.0161
      4 C          -8.0641  -19.8943   21.7137 C.3     1  UNL1        0.0461
      5 C          -7.5026  -19.7343   20.3320 C.3     1  UNL1        0.0161
      6 C          -6.7241  -20.3559   22.2048 C.3     1  UNL1        0.0408
      7 C          -5.4712  -19.8442   21.5579 C.ar    1  UNL1       -0.0209
      8 C          -4.9592  -20.4862   20.3026 C.ar    1  UNL1       -0.0042
      9 C          -3.7064  -19.9746   19.6557 C.ar    1  UNL1       -0.0003
     10 C          -2.9654  -18.8208   20.2640 C.ar    1  UNL1       -0.0000
     11 C          -1.7126  -18.3092   19.6171 C.ar    1  UNL1       -0.0000
     12 C          -0.9717  -17.1555   20.2255 C.ar    1  UNL1       -0.0000
     13 C          -1.4837  -16.5135   21.4808 C.ar    1  UNL1       -0.0000
     14 C          -2.7365  -17.0252   22.1277 C.ar    1  UNL1       -0.0000
     15 C          -3.4774  -18.1788   21.5193 C.ar    1  UNL1       -0.0003
     16 C          -4.7303  -18.6905   22.1662 C.ar    1  UNL1       -0.0042
     17 C          -9.6373  -17.9791   20.9343 C.3     1  UNL1        0.1020
     18 C         -10.5718  -17.1839   21.7970 C.3     1  UNL1        0.1697
     19 O         -12.0546  -17.3685   21.6650 O.3     1  UNL1       -0.3793
     20 H         -12.2382  -18.0332   20.9828 H       1  UNL1        0.2106
     21 C         -10.0236  -16.2040   22.7916 C.3     1  UNL1        0.2358
     22 O          -8.5559  -16.1908   23.1008 O.3     1  UNL1       -0.4721
     23 C          -8.0900  -16.1294   24.5253 C.ar    1  UNL1        0.1490
     24 C          -8.9793  -16.6241   25.6272 C.ar    1  UNL1        0.0377
     25 C          -8.5134  -16.5627   27.0517 C.ar    1  UNL1        0.0040
     26 C          -7.1581  -16.0066   27.3742 C.ar    1  UNL1        0.0123
     27 C          -6.2688  -15.5119   26.2723 C.ar    1  UNL1        0.0702
     28 CL         -4.9135  -14.9559   26.5948 Cl      1  UNL1       -0.0814
     29 C          -6.7347  -15.5734   24.8478 C.ar    1  UNL1        0.1128
     30 C          -5.8454  -15.0787   23.7458 C.1     1  UNL1        0.1043
     31 N          -4.9560  -14.5840   22.6438 N.1     1  UNL1       -0.1907
@<TRIPOS>BOND
     1     3     4    1
     2     4     5    1
     3     4     6    1
     4     6     7    1
     5     7     8   ar
     6     8     9   ar
     7     9    10   ar
     8    10    11   ar
     9    11    12   ar
    10    12    13   ar
    11    13    14   ar
    12    14    15   ar
    13    15    16   ar
    14     4     1    1
    15     1    17    1
    16    17    18    1
    17    18    19    1
    18    18    21    1
    19    21    22    1
    20    22    23    1
    21    23    24   ar
    22    24    25   ar
    23    25    26   ar
    24    26    27   ar
    25    27    28    1
    26    27    29   ar
    27    29    30    1
    28    30    31    3
    29    16     7   ar
    30    29    23   ar
    31    15    10   ar
    32     1     2    1
    33    19    20    1
