@<TRIPOS>MOLECULE
*****
 43 47 0 0 0
SMALL
GASTEIGER

@<TRIPOS>ATOM
      1 C           6.6703   -3.2984   26.9121 C.ar    1  UNL1        0.0040
      2 C           6.6778   -4.4520   25.9534 C.ar    1  UNL1        0.0719
      3 C           6.8614   -5.7122   26.7460 C.ar    1  UNL1        0.1049
      4 N           6.9673   -5.3374   28.1946 N.ar    1  UNL1       -0.2242
      5 N           7.1560   -6.1618   29.4334 N.ar    1  UNL1       -0.1422
      6 C           7.2266   -5.4944   30.7748 C.ar    1  UNL1        0.2211
      7 N           7.1085   -4.0026   30.8775 N.ar    1  UNL1       -0.2060
      8 C           6.9198   -3.1782   29.6387 C.ar    1  UNL1        0.1515
      9 C           6.8492   -3.8456   28.2972 C.ar    1  UNL1        0.1107
     10 C           6.5281   -4.3614   24.4636 C.ar    1  UNL1        0.2525
     11 N           7.4103   -5.0233   23.4469 N.ar    1  UNL1       -0.1057
     12 N           6.8974   -4.6639   22.0839 N.ar    1  UNL1       -0.0923
     13 C           5.6981   -3.7799   22.2582 C.ar    1  UNL1        0.3086
     14 O           5.4699   -3.5930   23.7289 O.2     1  UNL1       -0.4048
     15 N           4.8721   -3.1870   21.1555 N.pl3   1  UNL1       -0.2871
     16 H           4.7688   -2.2102   21.0885 H       1  UNL1        0.1512
     17 C           4.2035   -4.0822   20.1547 C.3     1  UNL1        0.0912
     18 C           4.5268   -3.9496   18.6961 C.3     1  UNL1        0.0227
     19 C           5.1328   -2.6804   18.1746 C.3     1  UNL1        0.0186
     20 C           4.2504   -1.5272   17.7983 C.3     1  UNL1        0.0652
     21 N           3.8466   -1.3275   16.3675 N.3     1  UNL1       -0.3211
     22 H           4.6704   -1.1010   15.8102 H       1  UNL1        0.1189
     23 H           3.1747   -0.5625   16.3075 H       1  UNL1        0.1189
     24 C           7.7221   -1.0133   26.2624 C.3     1  UNL1        0.0047
     25 C           6.5117   -1.8516   26.5494 C.3     1  UNL1        0.0241
     26 C           5.1429   -1.2430   26.4736 C.3     1  UNL1        0.0047
     27 N           6.8017   -1.6864   29.7413 N.pl3   1  UNL1       -0.2949
     28 H           7.3902   -1.1079   29.2044 H       1  UNL1        0.1537
     29 C           5.7869   -1.0760   30.6620 C.ar    1  UNL1        0.0775
     30 C           4.4178   -0.7377   30.1507 C.ar    1  UNL1        0.0237
     31 C           3.4031   -0.1273   31.0713 C.ar    1  UNL1        0.0821
     32 C           3.7574    0.1450   32.5033 C.ar    1  UNL1        0.1468
     33 F           2.7425    0.7554   33.4239 F       1  UNL1       -0.2039
     34 C           5.1263   -0.1932   33.0145 C.ar    1  UNL1        0.0607
     35 C           6.1412   -0.8037   32.0939 C.ar    1  UNL1        0.1557
     36 F           7.5101   -1.1419   32.6052 F       1  UNL1       -0.2028
     37 C           2.0340    0.2110   30.5601 C.2     1  UNL1        0.2480
     38 O           1.2477    1.3179   31.1975 O.2     1  UNL1       -0.2701
     39 N           1.4514   -0.5578   29.4114 N.am    1  UNL1       -0.3024
     40 H           1.9675   -1.2843   28.9930 H       1  UNL1        0.1497
     41 C           0.0824   -0.2196   28.9001 C.3     1  UNL1        0.0720
     42 C          -0.8175    0.6519   28.0751 C.3     1  UNL1        0.0213
     43 C          -1.3889   -0.5052   28.8396 C.3     1  UNL1        0.0213
@<TRIPOS>BOND
     1    24    25    1
     2    25    26    1
     3    25     1    1
     4     1     2   ar
     5     2    10    1
     6    10    11   ar
     7    11    12   ar
     8    12    13   ar
     9    13    15    1
    10    15    17    1
    11    17    18    1
    12    18    19    1
    13    19    20    1
    14    20    21    1
    15    13    14   ar
    16     2     3   ar
    17     3     4   ar
    18     4     5   ar
    19     5     6   ar
    20     6     7   ar
    21     7     8   ar
    22     8    27    1
    23    27    29    1
    24    29    30   ar
    25    30    31   ar
    26    31    37    1
    27    37    38    2
    28    37    39   am
    29    39    41    1
    30    41    42    1
    31    42    43    1
    32    31    32   ar
    33    32    33    1
    34    32    34   ar
    35    34    35   ar
    36    35    36    1
    37     8     9   ar
    38     9     1   ar
    39    14    10   ar
    40     9     4   ar
    41    35    29   ar
    42    43    41    1
    43    15    16    1
    44    21    22    1
    45    21    23    1
    46    27    28    1
    47    39    40    1
@<TRIPOS>MOLECULE
*****
 43 47 0 0 0
SMALL
GASTEIGER

@<TRIPOS>ATOM
      1 C         -14.6116   -0.3751   18.6798 C.ar    1  UNL1        0.0040
      2 C         -13.4536   -1.3172   18.8264 C.ar    1  UNL1        0.0719
      3 C         -12.2329   -0.6400   18.2775 C.ar    1  UNL1        0.1049
      4 N         -12.6364    0.7206   17.7918 N.ar    1  UNL1       -0.2242
      5 N         -11.8551    1.8315   17.1552 N.ar    1  UNL1       -0.1422
      6 C         -12.5439    3.1062   16.7673 C.ar    1  UNL1        0.2211
      7 N         -14.0141    3.2700   17.0159 N.ar    1  UNL1       -0.2060
      8 C         -14.7954    2.1591   17.6525 C.ar    1  UNL1        0.1515
      9 C         -14.1065    0.8843   18.0404 C.ar    1  UNL1        0.1107
     10 C         -13.5070   -2.6946   19.4179 C.ar    1  UNL1        0.2525
     11 N         -13.9707   -3.0427   20.8013 N.ar    1  UNL1       -0.1057
     12 N         -13.8564   -4.5290   20.9683 N.ar    1  UNL1       -0.0923
     13 C         -13.3220   -5.0995   19.6880 C.ar    1  UNL1        0.3086
     14 O         -13.1061   -3.9658   18.7299 O.2     1  UNL1       -0.4048
     15 N         -13.0511   -6.5492   19.4141 N.pl3   1  UNL1       -0.2871
     16 H         -13.4127   -7.2397   20.0154 H       1  UNL1        0.1512
     17 C         -12.2292   -6.9467   18.2239 C.3     1  UNL1        0.0912
     18 C         -10.7428   -7.0989   18.3560 C.3     1  UNL1        0.0227
     19 C          -9.8441   -5.9225   18.1148 C.3     1  UNL1        0.0186
     20 C          -9.6328   -4.9057   19.1972 C.3     1  UNL1        0.0652
     21 N          -9.9967   -3.4701   18.9591 N.3     1  UNL1       -0.3211
     22 H          -9.3896   -3.0805   18.2381 H       1  UNL1        0.1189
     23 H          -9.8800   -2.9418   19.8238 H       1  UNL1        0.1189
     24 C         -16.9711   -1.3277   18.1549 C.3     1  UNL1        0.0047
     25 C         -16.0263   -0.6449   19.0991 C.3     1  UNL1        0.0241
     26 C         -16.4963   -0.2322   20.4623 C.3     1  UNL1        0.0047
     27 N         -16.2655    2.3228   17.9011 N.pl3   1  UNL1       -0.2949
     28 H         -16.9162    1.8415   17.3405 H       1  UNL1        0.1537
     29 C         -16.7444    3.2198   19.0039 C.ar    1  UNL1        0.0775
     30 C         -15.9745    3.3058   20.2884 C.ar    1  UNL1        0.0237
     31 C         -16.4533    4.2028   21.3912 C.ar    1  UNL1        0.0821
     32 C         -17.7020    5.0138   21.2094 C.ar    1  UNL1        0.1468
     33 F         -18.1808    5.9109   22.3123 F       1  UNL1       -0.2039
     34 C         -18.4718    4.9279   19.9250 C.ar    1  UNL1        0.0607
     35 C         -17.9930    4.0309   18.8221 C.ar    1  UNL1        0.1557
     36 F         -18.7629    3.9449   17.5377 F       1  UNL1       -0.2028
     37 C         -15.6834    4.2888   22.6757 C.2     1  UNL1        0.2480
     38 O         -16.3161    3.8429   23.9606 O.2     1  UNL1       -0.2701
     39 N         -14.2809    4.8206   22.6753 N.am    1  UNL1       -0.3024
     40 H         -13.8657    5.1132   21.8320 H       1  UNL1        0.1497
     41 C         -13.5110    4.9066   23.9598 C.3     1  UNL1        0.0720
     42 C         -13.4028    5.3755   25.3805 C.3     1  UNL1        0.0213
     43 C         -12.2859    4.5867   24.7639 C.3     1  UNL1        0.0213
@<TRIPOS>BOND
     1    24    25    1
     2    25    26    1
     3    25     1    1
     4     1     2   ar
     5     2    10    1
     6    10    11   ar
     7    11    12   ar
     8    12    13   ar
     9    13    15    1
    10    15    17    1
    11    17    18    1
    12    18    19    1
    13    19    20    1
    14    20    21    1
    15    13    14   ar
    16     2     3   ar
    17     3     4   ar
    18     4     5   ar
    19     5     6   ar
    20     6     7   ar
    21     7     8   ar
    22     8    27    1
    23    27    29    1
    24    29    30   ar
    25    30    31   ar
    26    31    37    1
    27    37    38    2
    28    37    39   am
    29    39    41    1
    30    41    42    1
    31    42    43    1
    32    31    32   ar
    33    32    33    1
    34    32    34   ar
    35    34    35   ar
    36    35    36    1
    37     8     9   ar
    38     9     1   ar
    39    14    10   ar
    40     9     4   ar
    41    35    29   ar
    42    43    41    1
    43    15    16    1
    44    21    22    1
    45    21    23    1
    46    27    28    1
    47    39    40    1
@<TRIPOS>MOLECULE
*****
 43 47 0 0 0
SMALL
GASTEIGER

@<TRIPOS>ATOM
      1 C           5.9329   -3.0531   20.2156 C.ar    1  UNL1        0.0040
      2 C           7.3633   -3.4455   20.4388 C.ar    1  UNL1        0.0719
      3 C           8.2285   -2.5208   19.6349 C.ar    1  UNL1        0.1049
      4 N           7.3328   -1.5569   18.9148 N.ar    1  UNL1       -0.2242
      5 N           7.6258   -0.4221   17.9787 N.ar    1  UNL1       -0.1422
      6 C           6.5000    0.3837   17.4015 C.ar    1  UNL1        0.2211
      7 N           5.0812    0.0548   17.7604 N.ar    1  UNL1       -0.2060
      8 C           4.7882   -1.0800   18.6965 C.ar    1  UNL1        0.1515
      9 C           5.9140   -1.8858   19.2737 C.ar    1  UNL1        0.1107
     10 C           7.8441   -4.5660   21.3126 C.ar    1  UNL1        0.2525
     11 N           8.3832   -5.8835   20.8400 N.ar    1  UNL1       -0.1057
     12 N           8.7425   -6.6975   22.0476 N.ar    1  UNL1       -0.0923
     13 C           8.4254   -5.8830   23.2667 C.ar    1  UNL1        0.3086
     14 O           7.8702   -4.5656   22.8123 O.2     1  UNL1       -0.4048
     15 N           8.6280   -6.3106   24.6900 N.pl3   1  UNL1       -0.2871
     16 H           9.1048   -5.7211   25.3180 H       1  UNL1        0.1512
     17 C           8.1041   -7.6364   25.1567 C.3     1  UNL1        0.0912
     18 C           7.5297   -7.7726   26.5356 C.3     1  UNL1        0.0227
     19 C           7.5698   -6.6103   27.4829 C.3     1  UNL1        0.0186
     20 C           6.4775   -5.5825   27.4557 C.3     1  UNL1        0.0652
     21 N           6.3503   -4.6541   26.2844 N.3     1  UNL1       -0.3211
     22 H           7.1637   -4.0397   26.2476 H       1  UNL1        0.1189
     23 H           5.5046   -4.0928   26.3857 H       1  UNL1        0.1189
     24 C           4.4332   -3.5225   22.2847 C.3     1  UNL1        0.0047
     25 C           4.7321   -3.7121   20.8269 C.3     1  UNL1        0.0241
     26 C           3.8301   -4.5607   19.9807 C.3     1  UNL1        0.0047
     27 N           3.3694   -1.4089   19.0554 N.pl3   1  UNL1       -0.2949
     28 H           2.9215   -2.1788   18.6362 H       1  UNL1        0.1537
     29 C           2.6332   -0.5648   20.0531 C.ar    1  UNL1        0.0775
     30 C           3.1142   -0.4895   21.4720 C.ar    1  UNL1        0.0237
     31 C           2.3779    0.3546   22.4696 C.ar    1  UNL1        0.0821
     32 C           1.1607    1.1234   22.0486 C.ar    1  UNL1        0.1468
     33 F           0.4245    1.9675   23.0463 F       1  UNL1       -0.2039
     34 C           0.6797    1.0482   20.6298 C.ar    1  UNL1        0.0607
     35 C           1.4160    0.2040   19.6320 C.ar    1  UNL1        0.1557
     36 F           0.9350    0.1288   18.2132 F       1  UNL1       -0.2028
     37 C           2.8589    0.4299   23.8885 C.2     1  UNL1        0.2480
     38 O           3.1359    1.7635   24.5167 O.2     1  UNL1       -0.2701
     39 N           3.0628   -0.8285   24.6791 N.am    1  UNL1       -0.3024
     40 H           2.8810   -1.7038   24.2667 H       1  UNL1        0.1497
     41 C           3.5437   -0.7532   26.0978 C.3     1  UNL1        0.0720
     42 C           4.4800   -0.1869   27.1238 C.3     1  UNL1        0.0213
     43 C           3.4404   -1.1892   27.5293 C.3     1  UNL1        0.0213
@<TRIPOS>BOND
     1    24    25    1
     2    25    26    1
     3    25     1    1
     4     1     2   ar
     5     2    10    1
     6    10    11   ar
     7    11    12   ar
     8    12    13   ar
     9    13    15    1
    10    15    17    1
    11    17    18    1
    12    18    19    1
    13    19    20    1
    14    20    21    1
    15    13    14   ar
    16     2     3   ar
    17     3     4   ar
    18     4     5   ar
    19     5     6   ar
    20     6     7   ar
    21     7     8   ar
    22     8    27    1
    23    27    29    1
    24    29    30   ar
    25    30    31   ar
    26    31    37    1
    27    37    38    2
    28    37    39   am
    29    39    41    1
    30    41    42    1
    31    42    43    1
    32    31    32   ar
    33    32    33    1
    34    32    34   ar
    35    34    35   ar
    36    35    36    1
    37     8     9   ar
    38     9     1   ar
    39    14    10   ar
    40     9     4   ar
    41    35    29   ar
    42    43    41    1
    43    15    16    1
    44    21    22    1
    45    21    23    1
    46    27    28    1
    47    39    40    1
@<TRIPOS>MOLECULE
*****
 43 47 0 0 0
SMALL
GASTEIGER

@<TRIPOS>ATOM
      1 C           1.0337    1.6414   26.3298 C.ar    1  UNL1        0.0040
      2 C          -0.3671    1.9591   26.7618 C.ar    1  UNL1        0.0719
      3 C          -0.5902    1.3343   28.1071 C.ar    1  UNL1        0.1049
      4 N           0.6727    0.6304   28.5065 N.ar    1  UNL1       -0.2242
      5 N           1.0385   -0.1588   29.7285 N.ar    1  UNL1       -0.1422
      6 C           2.4079   -0.7583   29.8520 C.ar    1  UNL1        0.2211
      7 N           3.4116   -0.5685   28.7535 N.ar    1  UNL1       -0.2060
      8 C           3.0458    0.2207   27.5316 C.ar    1  UNL1        0.1515
      9 C           1.6764    0.8202   27.4080 C.ar    1  UNL1        0.1107
     10 C          -1.3689    2.7609   25.9850 C.ar    1  UNL1        0.2525
     11 N          -2.5380    3.5055   26.5586 N.ar    1  UNL1       -0.1057
     12 N          -3.2692    4.1636   25.4263 N.ar    1  UNL1       -0.0923
     13 C          -2.5521    3.8259   24.1528 C.ar    1  UNL1        0.3086
     14 O          -1.3777    2.9590   24.4982 O.2     1  UNL1       -0.4048
     15 N          -2.9410    4.2760   22.7758 N.pl3   1  UNL1       -0.2871
     16 H          -2.5044    5.0610   22.3729 H       1  UNL1        0.1512
     17 C          -3.9953    3.5301   22.0128 C.3     1  UNL1        0.0912
     18 C          -5.3469    3.3073   22.6238 C.3     1  UNL1        0.0227
     19 C          -6.4346    4.3215   22.4284 C.3     1  UNL1        0.0186
     20 C          -7.4413    4.5604   23.5146 C.3     1  UNL1        0.0652
     21 N          -8.6898    3.7312   23.5756 N.3     1  UNL1       -0.3211
     22 H          -9.2691    3.9283   22.7596 H       1  UNL1        0.1189
     23 H          -9.2083    3.9593   24.4238 H       1  UNL1        0.1189
     24 C           1.5529    1.2124   23.8205 C.3     1  UNL1        0.0047
     25 C           1.6787    2.0696   25.0450 C.3     1  UNL1        0.0241
     26 C           2.4495    3.3550   24.9847 C.3     1  UNL1        0.0047
     27 N           4.0495    0.4105   26.4331 N.pl3   1  UNL1       -0.2949
     28 H           4.3289    1.3180   26.1730 H       1  UNL1        0.1537
     29 C           4.6273   -0.7823   25.7308 C.ar    1  UNL1        0.0775
     30 C           4.2078   -1.1020   24.3266 C.ar    1  UNL1        0.0237
     31 C           4.7856   -2.2948   23.6243 C.ar    1  UNL1        0.0821
     32 C           5.7831   -3.1680   24.3262 C.ar    1  UNL1        0.1468
     33 F           6.3609   -4.3609   23.6239 F       1  UNL1       -0.2039
     34 C           6.2026   -2.8484   25.7304 C.ar    1  UNL1        0.0607
     35 C           5.6248   -1.6555   26.4327 C.ar    1  UNL1        0.1557
     36 F           6.0443   -1.3359   27.8369 F       1  UNL1       -0.2028
     37 C           4.3661   -2.6145   22.2201 C.2     1  UNL1        0.2480
     38 O           3.6515   -1.5835   21.3977 O.2     1  UNL1       -0.2701
     39 N           4.6611   -3.9652   21.6383 N.am    1  UNL1       -0.3024
     40 H           5.1301   -4.6419   22.1781 H       1  UNL1        0.1497
     41 C           4.2416   -4.2850   20.2341 C.3     1  UNL1        0.0720
     42 C           4.5777   -4.7811   18.8590 C.3     1  UNL1        0.0213
     43 C           3.1789   -4.3426   19.1771 C.3     1  UNL1        0.0213
@<TRIPOS>BOND
     1    24    25    1
     2    25    26    1
     3    25     1    1
     4     1     2   ar
     5     2    10    1
     6    10    11   ar
     7    11    12   ar
     8    12    13   ar
     9    13    15    1
    10    15    17    1
    11    17    18    1
    12    18    19    1
    13    19    20    1
    14    20    21    1
    15    13    14   ar
    16     2     3   ar
    17     3     4   ar
    18     4     5   ar
    19     5     6   ar
    20     6     7   ar
    21     7     8   ar
    22     8    27    1
    23    27    29    1
    24    29    30   ar
    25    30    31   ar
    26    31    37    1
    27    37    38    2
    28    37    39   am
    29    39    41    1
    30    41    42    1
    31    42    43    1
    32    31    32   ar
    33    32    33    1
    34    32    34   ar
    35    34    35   ar
    36    35    36    1
    37     8     9   ar
    38     9     1   ar
    39    14    10   ar
    40     9     4   ar
    41    35    29   ar
    42    43    41    1
    43    15    16    1
    44    21    22    1
    45    21    23    1
    46    27    28    1
    47    39    40    1
@<TRIPOS>MOLECULE
*****
 43 47 0 0 0
SMALL
GASTEIGER

@<TRIPOS>ATOM
      1 C           6.2451   -1.6960   29.9808 C.ar    1  UNL1        0.0040
      2 C           5.7087   -1.7594   31.3802 C.ar    1  UNL1        0.0719
      3 C           5.8691   -3.1664   31.8747 C.ar    1  UNL1        0.1049
      4 N           6.5046   -3.9726   30.7810 N.ar    1  UNL1       -0.2242
      5 N           6.9017   -5.4168   30.6996 N.ar    1  UNL1       -0.1422
      6 C           7.5311   -5.9522   29.4478 C.ar    1  UNL1        0.2211
      7 N           7.7634   -5.0434   28.2773 N.ar    1  UNL1       -0.2060
      8 C           7.3663   -3.5992   28.3586 C.ar    1  UNL1        0.1515
      9 C           6.7369   -3.0638   29.6104 C.ar    1  UNL1        0.1107
     10 C           5.1161   -0.6165   32.1499 C.ar    1  UNL1        0.2525
     11 N           5.8825    0.4518   32.8720 N.ar    1  UNL1       -0.1057
     12 N           4.8931    1.3874   33.5011 N.ar    1  UNL1       -0.0923
     13 C           3.5151    0.8973   33.1677 C.ar    1  UNL1        0.3086
     14 O           3.6530   -0.3411   32.3327 O.2     1  UNL1       -0.4048
     15 N           2.2257    1.5339   33.5945 N.pl3   1  UNL1       -0.2871
     16 H           1.9391    1.4829   34.5350 H       1  UNL1        0.1512
     17 C           1.3728    2.2483   32.5883 C.3     1  UNL1        0.0912
     18 C           1.7871    2.2879   31.1473 C.3     1  UNL1        0.0227
     19 C           0.8500    1.7973   30.0838 C.3     1  UNL1        0.0186
     20 C           1.1001    0.4786   29.4138 C.3     1  UNL1        0.0652
     21 N           1.7158   -0.6502   30.1863 N.3     1  UNL1       -0.3211
     22 H           2.6720   -0.4049   30.4428 H       1  UNL1        0.1189
     23 H           1.7235   -1.4920   29.6103 H       1  UNL1        0.1189
     24 C           5.0072    0.0968   28.5652 C.3     1  UNL1        0.0047
     25 C           6.2829   -0.4785   29.1054 C.3     1  UNL1        0.0241
     26 C           7.5963    0.1636   28.7701 C.3     1  UNL1        0.0047
     27 N           7.5987   -2.6904   27.1881 N.pl3   1  UNL1       -0.2949
     28 H           8.3486   -2.0527   27.2012 H       1  UNL1        0.1537
     29 C           6.6885   -2.7533   25.9975 C.ar    1  UNL1        0.0775
     30 C           5.6070   -1.7282   25.8253 C.ar    1  UNL1        0.0237
     31 C           4.6967   -1.7910   24.6347 C.ar    1  UNL1        0.0821
     32 C           4.8680   -2.8789   23.6163 C.ar    1  UNL1        0.1468
     33 F           3.9577   -2.9417   22.4257 F       1  UNL1       -0.2039
     34 C           5.9494   -3.9040   23.7885 C.ar    1  UNL1        0.0607
     35 C           6.8597   -3.8412   24.9791 C.ar    1  UNL1        0.1557
     36 F           7.9411   -4.8663   25.1513 F       1  UNL1       -0.2028
     37 C           3.6152   -0.7659   24.4625 C.2     1  UNL1        0.2480
     38 O           3.3221   -0.2062   23.1021 O.2     1  UNL1       -0.2701
     39 N           2.8269   -0.3006   25.6507 N.am    1  UNL1       -0.3024
     40 H           3.0192   -0.6680   26.5436 H       1  UNL1        0.1497
     41 C           1.7454    0.7245   25.4786 C.3     1  UNL1        0.0720
     42 C           1.1774    2.0779   25.7875 C.3     1  UNL1        0.0213
     43 C           0.4403    1.1465   24.8715 C.3     1  UNL1        0.0213
@<TRIPOS>BOND
     1    24    25    1
     2    25    26    1
     3    25     1    1
     4     1     2   ar
     5     2    10    1
     6    10    11   ar
     7    11    12   ar
     8    12    13   ar
     9    13    15    1
    10    15    17    1
    11    17    18    1
    12    18    19    1
    13    19    20    1
    14    20    21    1
    15    13    14   ar
    16     2     3   ar
    17     3     4   ar
    18     4     5   ar
    19     5     6   ar
    20     6     7   ar
    21     7     8   ar
    22     8    27    1
    23    27    29    1
    24    29    30   ar
    25    30    31   ar
    26    31    37    1
    27    37    38    2
    28    37    39   am
    29    39    41    1
    30    41    42    1
    31    42    43    1
    32    31    32   ar
    33    32    33    1
    34    32    34   ar
    35    34    35   ar
    36    35    36    1
    37     8     9   ar
    38     9     1   ar
    39    14    10   ar
    40     9     4   ar
    41    35    29   ar
    42    43    41    1
    43    15    16    1
    44    21    22    1
    45    21    23    1
    46    27    28    1
    47    39    40    1
@<TRIPOS>MOLECULE
*****
 43 47 0 0 0
SMALL
GASTEIGER

@<TRIPOS>ATOM
      1 C           4.5293   -0.5328   28.9688 C.ar    1  UNL1        0.0040
      2 C           4.4497   -1.1406   30.3379 C.ar    1  UNL1        0.0719
      3 C           3.0449   -0.9757   30.8372 C.ar    1  UNL1        0.1049
      4 N           2.2563   -0.2661   29.7768 N.ar    1  UNL1       -0.2242
      5 N           0.8213    0.1662   29.7135 N.ar    1  UNL1       -0.1422
      6 C           0.3038    0.8722   28.4954 C.ar    1  UNL1        0.2211
      7 N           1.2212    1.1460   27.3407 N.ar    1  UNL1       -0.2060
      8 C           2.6562    0.7137   27.4040 C.ar    1  UNL1        0.1515
      9 C           3.1737    0.0077   28.6220 C.ar    1  UNL1        0.1107
     10 C           5.5770   -1.7978   31.0777 C.ar    1  UNL1        0.2525
     11 N           6.3212   -1.2199   32.2448 N.ar    1  UNL1       -0.1057
     12 N           7.3621   -2.2133   32.6687 N.ar    1  UNL1       -0.0923
     13 C           7.2613   -3.4051   31.7635 C.ar    1  UNL1        0.3086
     14 O           6.1580   -3.1484   30.7803 O.2     1  UNL1       -0.4048
     15 N           8.1139   -4.6374   31.8300 N.pl3   1  UNL1       -0.2871
     16 H           8.9574   -4.6256   32.3375 H       1  UNL1        0.1512
     17 C           7.6814   -5.8878   31.1232 C.3     1  UNL1        0.0912
     18 C           8.2100   -6.1961   29.7537 C.3     1  UNL1        0.0227
     19 C           8.1157   -5.1690   28.6646 C.3     1  UNL1        0.0186
     20 C           7.0439   -5.2788   27.6209 C.3     1  UNL1        0.0652
     21 N           5.6632   -5.7200   28.0072 N.3     1  UNL1       -0.3211
     22 H           5.6923   -6.6889   28.3247 H       1  UNL1        0.1189
     23 H           5.0441   -5.6451   27.2001 H       1  UNL1        0.1189
     24 C           6.6707    0.7063   28.1758 C.3     1  UNL1        0.0047
     25 C           5.7501   -0.4755   28.0992 C.3     1  UNL1        0.0241
     26 C           6.0505   -1.6000   27.1530 C.3     1  UNL1        0.0047
     27 N           3.5736    0.9874   26.2493 N.pl3   1  UNL1       -0.2949
     28 H           4.4723    1.3552   26.4111 H       1  UNL1        0.1537
     29 C           3.1216    0.7008   24.8480 C.ar    1  UNL1        0.0775
     30 C           3.5806   -0.5463   24.1522 C.ar    1  UNL1        0.0237
     31 C           3.1287   -0.8329   22.7509 C.ar    1  UNL1        0.0821
     32 C           2.2178    0.1276   22.0454 C.ar    1  UNL1        0.1468
     33 F           1.7658   -0.1591   20.6441 F       1  UNL1       -0.2039
     34 C           1.7588    1.3746   22.7412 C.ar    1  UNL1        0.0607
     35 C           2.2107    1.6613   24.1425 C.ar    1  UNL1        0.1557
     36 F           1.7517    2.9083   24.8383 F       1  UNL1       -0.2028
     37 C           3.5877   -2.0800   22.0551 C.2     1  UNL1        0.2480
     38 O           4.1467   -3.2211   22.8522 O.2     1  UNL1       -0.2701
     39 N           3.4877   -2.1859   20.5622 N.am    1  UNL1       -0.3024
     40 H           3.1208   -1.4370   20.0391 H       1  UNL1        0.1497
     41 C           3.9466   -3.4330   19.8664 C.3     1  UNL1        0.0720
     42 C           3.7506   -4.8827   19.5349 C.3     1  UNL1        0.0213
     43 C           4.9376   -4.1432   18.9926 C.3     1  UNL1        0.0213
@<TRIPOS>BOND
     1    24    25    1
     2    25    26    1
     3    25     1    1
     4     1     2   ar
     5     2    10    1
     6    10    11   ar
     7    11    12   ar
     8    12    13   ar
     9    13    15    1
    10    15    17    1
    11    17    18    1
    12    18    19    1
    13    19    20    1
    14    20    21    1
    15    13    14   ar
    16     2     3   ar
    17     3     4   ar
    18     4     5   ar
    19     5     6   ar
    20     6     7   ar
    21     7     8   ar
    22     8    27    1
    23    27    29    1
    24    29    30   ar
    25    30    31   ar
    26    31    37    1
    27    37    38    2
    28    37    39   am
    29    39    41    1
    30    41    42    1
    31    42    43    1
    32    31    32   ar
    33    32    33    1
    34    32    34   ar
    35    34    35   ar
    36    35    36    1
    37     8     9   ar
    38     9     1   ar
    39    14    10   ar
    40     9     4   ar
    41    35    29   ar
    42    43    41    1
    43    15    16    1
    44    21    22    1
    45    21    23    1
    46    27    28    1
    47    39    40    1
@<TRIPOS>MOLECULE
*****
 43 47 0 0 0
SMALL
GASTEIGER

@<TRIPOS>ATOM
      1 C           2.9939    0.9379   19.5548 C.ar    1  UNL1        0.0040
      2 C           4.2611    0.9742   18.7530 C.ar    1  UNL1        0.0719
      3 C           4.3840    2.3385   18.1419 C.ar    1  UNL1        0.1049
      4 N           3.1927    3.1454   18.5659 N.ar    1  UNL1       -0.2242
      5 N           2.7792    4.5565   18.2696 N.ar    1  UNL1       -0.1422
      6 C           1.5066    5.1019   18.8466 C.ar    1  UNL1        0.2211
      7 N           0.6475    4.2363   19.7198 N.ar    1  UNL1       -0.2060
      8 C           1.0609    2.8252   20.0161 C.ar    1  UNL1        0.1515
      9 C           2.3335    2.2797   19.4391 C.ar    1  UNL1        0.1107
     10 C           5.2346   -0.1555   18.5910 C.ar    1  UNL1        0.2525
     11 N           5.6610   -0.7724   17.2919 N.ar    1  UNL1       -0.1057
     12 N           6.6425   -1.8647   17.5975 N.ar    1  UNL1       -0.0923
     13 C           6.8226   -1.9230   19.0855 C.ar    1  UNL1        0.3086
     14 O           5.9525   -0.8666   19.6995 O.2     1  UNL1       -0.4048
     15 N           7.7161   -2.8711   19.8290 N.pl3   1  UNL1       -0.2871
     16 H           8.6928   -2.7508   19.8019 H       1  UNL1        0.1512
     17 C           7.1213   -4.0026   20.6139 C.3     1  UNL1        0.0912
     18 C           5.9392   -3.7579   21.5041 C.3     1  UNL1        0.0227
     19 C           4.5491   -3.8578   20.9493 C.3     1  UNL1        0.0186
     20 C           4.3234   -4.4653   19.5965 C.3     1  UNL1        0.0652
     21 N           4.0037   -3.5866   18.4236 N.3     1  UNL1       -0.3211
     22 H           3.0949   -3.1460   18.5666 H       1  UNL1        0.1189
     23 H           3.9784   -4.1499   17.5736 H       1  UNL1        0.1189
     24 C           1.5131   -1.1920   19.7003 C.3     1  UNL1        0.0047
     25 C           2.4776   -0.2345   20.3352 C.3     1  UNL1        0.0241
     26 C           2.9257   -0.4494   21.7504 C.3     1  UNL1        0.0047
     27 N           0.2018    1.9596   20.8893 N.pl3   1  UNL1       -0.2949
     28 H          -0.0998    1.0799   20.5661 H       1  UNL1        0.1537
     29 C          -0.1978    2.4342   22.2550 C.ar    1  UNL1        0.0775
     30 C           0.5799    1.9932   23.4596 C.ar    1  UNL1        0.0237
     31 C           0.1803    2.4677   24.8252 C.ar    1  UNL1        0.0821
     32 C          -0.9969    3.3834   24.9864 C.ar    1  UNL1        0.1468
     33 F          -1.3964    3.8580   26.3521 F       1  UNL1       -0.2039
     34 C          -1.7745    3.8244   23.7819 C.ar    1  UNL1        0.0607
     35 C          -1.3749    3.3498   22.4162 C.ar    1  UNL1        0.1557
     36 F          -2.1525    3.7908   21.2117 F       1  UNL1       -0.2028
     37 C           0.9579    2.0267   26.0298 C.2     1  UNL1        0.2480
     38 O           2.2004    2.7646   26.4318 O.2     1  UNL1       -0.2701
     39 N           0.4929    0.8478   26.8323 N.am    1  UNL1       -0.3024
     40 H          -0.3226    0.3635   26.5684 H       1  UNL1        0.1497
     41 C           1.2705    0.4068   28.0368 C.3     1  UNL1        0.0720
     42 C           2.2371   -0.5404   28.6837 C.3     1  UNL1        0.0213
     43 C           1.6506    0.5901   29.4762 C.3     1  UNL1        0.0213
@<TRIPOS>BOND
     1    24    25    1
     2    25    26    1
     3    25     1    1
     4     1     2   ar
     5     2    10    1
     6    10    11   ar
     7    11    12   ar
     8    12    13   ar
     9    13    15    1
    10    15    17    1
    11    17    18    1
    12    18    19    1
    13    19    20    1
    14    20    21    1
    15    13    14   ar
    16     2     3   ar
    17     3     4   ar
    18     4     5   ar
    19     5     6   ar
    20     6     7   ar
    21     7     8   ar
    22     8    27    1
    23    27    29    1
    24    29    30   ar
    25    30    31   ar
    26    31    37    1
    27    37    38    2
    28    37    39   am
    29    39    41    1
    30    41    42    1
    31    42    43    1
    32    31    32   ar
    33    32    33    1
    34    32    34   ar
    35    34    35   ar
    36    35    36    1
    37     8     9   ar
    38     9     1   ar
    39    14    10   ar
    40     9     4   ar
    41    35    29   ar
    42    43    41    1
    43    15    16    1
    44    21    22    1
    45    21    23    1
    46    27    28    1
    47    39    40    1
@<TRIPOS>MOLECULE
*****
 43 47 0 0 0
SMALL
GASTEIGER

@<TRIPOS>ATOM
      1 C         -14.6533   -0.6091   18.6090 C.ar    1  UNL1        0.0040
      2 C         -13.5365   -1.5995   18.7569 C.ar    1  UNL1        0.0719
      3 C         -12.2973   -0.9919   18.1692 C.ar    1  UNL1        0.1049
      4 N         -12.6483    0.3740   17.6582 N.ar    1  UNL1       -0.2242
      5 N         -11.8302    1.4329   16.9804 N.ar    1  UNL1       -0.1422
      6 C         -12.4681    2.7283   16.5745 C.ar    1  UNL1        0.2211
      7 N         -13.9242    2.9649   16.8463 N.ar    1  UNL1       -0.2060
      8 C         -14.7423    1.9060   17.5240 C.ar    1  UNL1        0.1515
      9 C         -14.1044    0.6106   17.9300 C.ar    1  UNL1        0.1107
     10 C         -13.6405   -2.9588   19.3826 C.ar    1  UNL1        0.2525
     11 N         -13.6888   -3.2513   20.8530 N.ar    1  UNL1       -0.1057
     12 N         -13.7927   -4.7375   21.0269 N.ar    1  UNL1       -0.0923
     13 C         -13.8087   -5.3637   19.6639 C.ar    1  UNL1        0.3086
     14 O         -13.7146   -4.2644   18.6477 O.2     1  UNL1       -0.4048
     15 N         -13.9022   -6.8314   19.3689 N.pl3   1  UNL1       -0.2871
     16 H         -13.0823   -7.3702   19.2865 H       1  UNL1        0.1512
     17 C         -15.2449   -7.4783   19.1996 C.3     1  UNL1        0.0912
     18 C         -15.3988   -8.6591   18.2875 C.3     1  UNL1        0.0227
     19 C         -16.7587   -9.2398   18.0354 C.3     1  UNL1        0.0186
     20 C         -17.4124  -10.0986   19.0771 C.3     1  UNL1        0.0652
     21 N         -16.9434  -11.5075   19.2899 N.3     1  UNL1       -0.3211
     22 H         -17.1468  -12.0627   18.4588 H       1  UNL1        0.1189
     23 H         -17.4266  -11.9089   20.0936 H       1  UNL1        0.1189
     24 C         -17.0421   -1.5390   18.1857 C.3     1  UNL1        0.0047
     25 C         -16.0703   -0.8042   19.0608 C.3     1  UNL1        0.0241
     26 C         -16.5155   -0.2645   20.3876 C.3     1  UNL1        0.0047
     27 N         -16.1984    2.1426   17.7958 N.pl3   1  UNL1       -0.2949
     28 H         -16.8810    1.6920   17.2478 H       1  UNL1        0.1537
     29 C         -16.6145    3.0656   18.9025 C.ar    1  UNL1        0.0775
     30 C         -15.6334    3.4440   19.9723 C.ar    1  UNL1        0.0237
     31 C         -16.0495    4.3671   21.0790 C.ar    1  UNL1        0.0821
     32 C         -17.4466    4.9118   21.1159 C.ar    1  UNL1        0.1468
     33 F         -17.8627    5.8349   22.2227 F       1  UNL1       -0.2039
     34 C         -18.4277    4.5334   20.0462 C.ar    1  UNL1        0.0607
     35 C         -18.0116    3.6103   18.9395 C.ar    1  UNL1        0.1557
     36 F         -18.9926    3.2319   17.8697 F       1  UNL1       -0.2028
     37 C         -15.0684    4.7455   22.1488 C.2     1  UNL1        0.2480
     38 O         -13.7885    5.4365   21.7822 O.2     1  UNL1       -0.2701
     39 N         -15.3674    4.4330   23.5851 N.am    1  UNL1       -0.3024
     40 H         -16.2074    3.9794   23.8256 H       1  UNL1        0.1497
     41 C         -14.3864    4.8113   24.6548 C.3     1  UNL1        0.0720
     42 C         -14.0994    5.3926   26.0075 C.3     1  UNL1        0.0213
     43 C         -12.9742    4.8855   25.1551 C.3     1  UNL1        0.0213
@<TRIPOS>BOND
     1    24    25    1
     2    25    26    1
     3    25     1    1
     4     1     2   ar
     5     2    10    1
     6    10    11   ar
     7    11    12   ar
     8    12    13   ar
     9    13    15    1
    10    15    17    1
    11    17    18    1
    12    18    19    1
    13    19    20    1
    14    20    21    1
    15    13    14   ar
    16     2     3   ar
    17     3     4   ar
    18     4     5   ar
    19     5     6   ar
    20     6     7   ar
    21     7     8   ar
    22     8    27    1
    23    27    29    1
    24    29    30   ar
    25    30    31   ar
    26    31    37    1
    27    37    38    2
    28    37    39   am
    29    39    41    1
    30    41    42    1
    31    42    43    1
    32    31    32   ar
    33    32    33    1
    34    32    34   ar
    35    34    35   ar
    36    35    36    1
    37     8     9   ar
    38     9     1   ar
    39    14    10   ar
    40     9     4   ar
    41    35    29   ar
    42    43    41    1
    43    15    16    1
    44    21    22    1
    45    21    23    1
    46    27    28    1
    47    39    40    1
@<TRIPOS>MOLECULE
*****
 43 47 0 0 0
SMALL
GASTEIGER

@<TRIPOS>ATOM
      1 C           3.7972   -0.9453   22.7557 C.ar    1  UNL1        0.0040
      2 C           4.2321   -2.2024   22.0626 C.ar    1  UNL1        0.0719
      3 C           3.3823   -2.3747   20.8387 C.ar    1  UNL1        0.1049
      4 N           2.4221   -1.2240   20.7753 N.ar    1  UNL1       -0.2242
      5 N           1.3474   -0.8665   19.7918 N.ar    1  UNL1       -0.1422
      6 C           0.5292    0.3744   19.9932 C.ar    1  UNL1        0.2211
      7 N           0.7857    1.2579   21.1780 N.ar    1  UNL1       -0.2060
      8 C           1.8604    0.9004   22.1615 C.ar    1  UNL1        0.1515
      9 C           2.6786   -0.3405   21.9601 C.ar    1  UNL1        0.1107
     10 C           5.3250   -3.1253   22.5141 C.ar    1  UNL1        0.2525
     11 N           6.0645   -4.1048   21.6516 N.ar    1  UNL1       -0.1057
     12 N           7.0668   -4.8156   22.5119 N.ar    1  UNL1       -0.0923
     13 C           6.9469   -4.2754   23.9061 C.ar    1  UNL1        0.3086
     14 O           5.8704   -3.2308   23.9075 O.2     1  UNL1       -0.4048
     15 N           7.7605   -4.7046   25.0910 N.pl3   1  UNL1       -0.2871
     16 H           7.4095   -4.5760   26.0017 H       1  UNL1        0.1512
     17 C           9.1089   -5.3296   24.8882 C.3     1  UNL1        0.0912
     18 C           9.2268   -6.8123   24.6948 C.3     1  UNL1        0.0227
     19 C           8.0384   -7.6964   24.9319 C.3     1  UNL1        0.0186
     20 C           7.5271   -7.9077   26.3263 C.3     1  UNL1        0.0652
     21 N           6.5382   -6.9464   26.9163 N.3     1  UNL1       -0.3211
     22 H           6.9789   -6.0339   27.0325 H       1  UNL1        0.1189
     23 H           6.2280   -7.2923   27.8243 H       1  UNL1        0.1189
     24 C           5.3983    0.7085   23.9606 C.3     1  UNL1        0.0047
     25 C           4.3789   -0.3902   24.0220 C.3     1  UNL1        0.0241
     26 C           3.9412   -0.9338   25.3497 C.3     1  UNL1        0.0047
     27 N           2.1169    1.7838   23.3463 N.pl3   1  UNL1       -0.2949
     28 H           2.9242    2.3464   23.3752 H       1  UNL1        0.1537
     29 C           1.1432    1.8100   24.4870 C.ar    1  UNL1        0.0775
     30 C           1.5146    1.1961   25.8043 C.ar    1  UNL1        0.0237
     31 C           0.5410    1.2224   26.9450 C.ar    1  UNL1        0.0821
     32 C          -0.8040    1.8625   26.7686 C.ar    1  UNL1        0.1468
     33 F          -1.7777    1.8887   27.9094 F       1  UNL1       -0.2039
     34 C          -1.1754    2.4764   25.4513 C.ar    1  UNL1        0.0607
     35 C          -0.2018    2.4502   24.3105 C.ar    1  UNL1        0.1557
     36 F          -0.5732    3.0641   22.9933 F       1  UNL1       -0.2028
     37 C           0.9124    0.6084   28.2624 C.2     1  UNL1        0.2480
     38 O           0.0281   -0.4339   28.8800 O.2     1  UNL1       -0.2701
     39 N           2.1681    1.0369   28.9620 N.am    1  UNL1       -0.3024
     40 H           2.7485    1.7211   28.5567 H       1  UNL1        0.1497
     41 C           2.5395    0.4231   30.2793 C.3     1  UNL1        0.0720
     42 C           3.0057   -0.7592   31.0761 C.3     1  UNL1        0.0213
     43 C           2.7166    0.5420   31.7640 C.3     1  UNL1        0.0213
@<TRIPOS>BOND
     1    24    25    1
     2    25    26    1
     3    25     1    1
     4     1     2   ar
     5     2    10    1
     6    10    11   ar
     7    11    12   ar
     8    12    13   ar
     9    13    15    1
    10    15    17    1
    11    17    18    1
    12    18    19    1
    13    19    20    1
    14    20    21    1
    15    13    14   ar
    16     2     3   ar
    17     3     4   ar
    18     4     5   ar
    19     5     6   ar
    20     6     7   ar
    21     7     8   ar
    22     8    27    1
    23    27    29    1
    24    29    30   ar
    25    30    31   ar
    26    31    37    1
    27    37    38    2
    28    37    39   am
    29    39    41    1
    30    41    42    1
    31    42    43    1
    32    31    32   ar
    33    32    33    1
    34    32    34   ar
    35    34    35   ar
    36    35    36    1
    37     8     9   ar
    38     9     1   ar
    39    14    10   ar
    40     9     4   ar
    41    35    29   ar
    42    43    41    1
    43    15    16    1
    44    21    22    1
    45    21    23    1
    46    27    28    1
    47    39    40    1
