@<TRIPOS>MOLECULE
*****
 39 42 0 0 0
SMALL
GASTEIGER

@<TRIPOS>ATOM
      1 C          -0.0719    3.3856   19.4246 C.3     1  UNL1        0.0849
      2 C           0.3612    3.2080   17.9995 C.3     1  UNL1        0.0206
      3 C          -0.4578    4.4002   17.6021 C.3     1  UNL1        0.0035
      4 C          -0.8909    4.5778   19.0272 C.3     1  UNL1        0.0206
      5 C           0.7471    2.1934   19.8221 C.ar    1  UNL1       -0.0077
      6 C           2.2202    2.3419   20.0626 C.ar    1  UNL1       -0.0030
      7 C           3.0391    1.1497   20.4600 C.ar    1  UNL1       -0.0002
      8 C           2.3849   -0.1910   20.6170 C.ar    1  UNL1        0.0029
      9 C           0.9118   -0.3395   20.3765 C.ar    1  UNL1       -0.0002
     10 C           0.0929    0.8527   19.9791 C.ar    1  UNL1       -0.0030
     11 C           3.2039   -1.3832   21.0145 C.ar    1  UNL1        0.0343
     12 C           3.5649   -1.5989   22.4543 C.ar    1  UNL1        0.0030
     13 C           4.3839   -2.7911   22.8518 C.ar    1  UNL1        0.0002
     14 C           4.8419   -3.7676   21.8094 C.ar    1  UNL1        0.0031
     15 C           4.4809   -3.5519   20.3695 C.ar    1  UNL1        0.0372
     16 C           3.6619   -2.3598   19.9721 C.ar    1  UNL1        0.1467
     17 O           3.3009   -2.1441   18.5322 O.3     1  UNL1       -0.4045
     18 C           4.1316   -1.2317   17.6792 C.3     1  UNL1        0.5753
     19 F           4.9623   -0.3193   16.8263 F       1  UNL1       -0.1328
     20 F           2.9484   -0.3287   17.4929 F       1  UNL1       -0.1328
     21 F           5.3147   -2.1347   17.8656 F       1  UNL1       -0.1328
     22 N          -0.5049    3.5632   20.8497 N.3     1  UNL1       -0.1487
     23 S          -1.9459    3.8328   21.1677 S.O2    1  UNL1        0.0638
     24 O          -1.5816    5.2036   21.6557 O.2     1  UNL1       -0.1528
     25 O          -2.3101    2.4620   20.6796 O.2     1  UNL1       -0.1528
     26 C          -3.3867    4.1025   21.4856 C.ar    1  UNL1        0.1224
     27 C          -4.1366    5.1591   20.7297 C.ar    1  UNL1        0.0230
     28 C          -5.5775    5.4288   21.0477 C.ar    1  UNL1        0.0385
     29 C          -6.2685    4.6419   22.1216 C.ar    1  UNL1        0.1444
     30 C          -5.5187    3.5854   22.8775 C.ar    1  UNL1        0.0385
     31 C          -4.0778    3.3156   22.5595 C.ar    1  UNL1        0.0230
     32 O          -7.7094    4.9116   22.4396 O.3     1  UNL1       -0.4236
     33 C          -8.2347    4.6489   23.8198 C.3     1  UNL1        0.5087
     34 F          -7.7080    5.4335   24.9847 F       1  UNL1       -0.1550
     35 F          -9.2869    3.6017   24.0352 F       1  UNL1       -0.1550
     36 C           0.5029    3.4711   21.9568 C.3     1  UNL1        0.1374
     37 O          -0.5848    3.4690   24.3163 O.co2   1  UNL1       -0.5477
     38 C           0.1576    2.7526   23.2275 C.2     1  UNL1        0.0683
     39 O           0.5548    1.3176   23.4093 O.co2   1  UNL1       -0.5477
@<TRIPOS>UNITY_ATOM_ATTR
37 1
charge -1
@<TRIPOS>BOND
     1    37    38   ar
     2    38    39   ar
     3    38    36    1
     4    36    22    1
     5    22     1    1
     6     1     5    1
     7     5     6   ar
     8     6     7   ar
     9     7     8   ar
    10     8    11    1
    11    11    12   ar
    12    12    13   ar
    13    13    14   ar
    14    14    15   ar
    15    15    16   ar
    16    16    17    1
    17    17    18    1
    18    18    19    1
    19    18    20    1
    20    18    21    1
    21     8     9   ar
    22     9    10   ar
    23     1     2    1
    24     2     3    1
    25     3     4    1
    26    22    23    1
    27    23    24    2
    28    23    25    2
    29    23    26    1
    30    26    27   ar
    31    27    28   ar
    32    28    29   ar
    33    29    32    1
    34    32    33    1
    35    33    34    1
    36    33    35    1
    37    29    30   ar
    38    30    31   ar
    39     4     1    1
    40    31    26   ar
    41    10     5   ar
    42    16    11   ar
@<TRIPOS>MOLECULE
*****
 39 42 0 0 0
SMALL
GASTEIGER

@<TRIPOS>ATOM
      1 C         -10.2267  -19.2029   21.3676 C.3     1  UNL1        0.0849
      2 C         -10.2583  -20.6912   21.1830 C.3     1  UNL1        0.0206
      3 C         -11.7549  -20.6717   21.2825 C.3     1  UNL1        0.0035
      4 C         -11.7232  -19.1834   21.4671 C.3     1  UNL1        0.0206
      5 C          -8.7301  -19.2224   21.2681 C.ar    1  UNL1       -0.0077
      6 C          -7.9038  -19.5961   22.4629 C.ar    1  UNL1       -0.0030
      7 C          -6.4073  -19.6155   22.3633 C.ar    1  UNL1       -0.0002
      8 C          -5.7370  -19.2612   21.0690 C.ar    1  UNL1        0.0029
      9 C          -6.5633  -18.8875   19.8743 C.ar    1  UNL1       -0.0002
     10 C          -8.0598  -18.8681   19.9738 C.ar    1  UNL1       -0.0030
     11 C          -4.2404  -19.2807   20.9695 C.ar    1  UNL1        0.0343
     12 C          -3.5518  -20.3936   20.2366 C.ar    1  UNL1        0.0030
     13 C          -2.0552  -20.4131   20.1371 C.ar    1  UNL1        0.0002
     14 C          -1.2472  -19.3195   20.7706 C.ar    1  UNL1        0.0031
     15 C          -1.9358  -18.2065   21.5035 C.ar    1  UNL1        0.0372
     16 C          -3.4324  -18.1871   21.6030 C.ar    1  UNL1        0.1467
     17 O          -4.1210  -17.0741   22.3359 O.3     1  UNL1       -0.4045
     18 C          -4.1116  -17.0451   23.8356 C.3     1  UNL1        0.5753
     19 F          -4.1023  -17.0161   25.3353 F       1  UNL1       -0.1328
     20 F          -4.3610  -15.5662   23.8086 F       1  UNL1       -0.1328
     21 F          -3.8623  -18.5240   23.8626 F       1  UNL1       -0.1328
     22 N         -10.1950  -17.7147   21.5522 N.3     1  UNL1       -0.1487
     23 S          -9.4924  -17.1206   22.7369 S.O2    1  UNL1        0.0638
     24 O          -8.6802  -16.2541   21.8206 O.2     1  UNL1       -0.1528
     25 O         -10.3046  -17.9872   23.6532 O.2     1  UNL1       -0.1528
     26 C          -8.7897  -16.5265   23.9214 C.ar    1  UNL1        0.1224
     27 C          -7.7450  -15.4689   23.7211 C.ar    1  UNL1        0.0230
     28 C          -7.0424  -14.8748   24.9056 C.ar    1  UNL1        0.0385
     29 C          -7.3843  -15.3383   26.2906 C.ar    1  UNL1        0.1444
     30 C          -8.4289  -16.3960   26.4911 C.ar    1  UNL1        0.0385
     31 C          -9.1316  -16.9901   25.3064 C.ar    1  UNL1        0.0230
     32 O          -6.6816  -14.7443   27.4752 O.3     1  UNL1       -0.4236
     33 C          -7.4016  -13.7760   28.3664 C.3     1  UNL1        0.5087
     34 F          -8.8881  -13.8782   28.5389 F       1  UNL1       -0.1550
     35 F          -6.6350  -12.7056   29.0851 F       1  UNL1       -0.1550
     36 C         -10.8660  -16.8205   20.5521 C.3     1  UNL1        0.1374
     37 O         -12.5385  -15.9231   22.3263 O.co2   1  UNL1       -0.5477
     38 C         -12.1695  -16.1604   20.8920 C.2     1  UNL1        0.0683
     39 O         -13.1040  -15.7378   19.7974 O.co2   1  UNL1       -0.5477
@<TRIPOS>UNITY_ATOM_ATTR
37 1
charge -1
@<TRIPOS>BOND
     1    37    38   ar
     2    38    39   ar
     3    38    36    1
     4    36    22    1
     5    22     1    1
     6     1     5    1
     7     5     6   ar
     8     6     7   ar
     9     7     8   ar
    10     8    11    1
    11    11    12   ar
    12    12    13   ar
    13    13    14   ar
    14    14    15   ar
    15    15    16   ar
    16    16    17    1
    17    17    18    1
    18    18    19    1
    19    18    20    1
    20    18    21    1
    21     8     9   ar
    22     9    10   ar
    23     1     2    1
    24     2     3    1
    25     3     4    1
    26    22    23    1
    27    23    24    2
    28    23    25    2
    29    23    26    1
    30    26    27   ar
    31    27    28   ar
    32    28    29   ar
    33    29    32    1
    34    32    33    1
    35    33    34    1
    36    33    35    1
    37    29    30   ar
    38    30    31   ar
    39     4     1    1
    40    31    26   ar
    41    10     5   ar
    42    16    11   ar
@<TRIPOS>MOLECULE
*****
 39 42 0 0 0
SMALL
GASTEIGER

@<TRIPOS>ATOM
      1 C           0.8072    4.1653   19.5347 C.3     1  UNL1        0.0849
      2 C           1.9612    4.8231   18.8378 C.3     1  UNL1        0.0206
      3 C           1.2661    6.1486   18.9380 C.3     1  UNL1        0.0035
      4 C           0.1122    5.4908   19.6349 C.3     1  UNL1        0.0206
      5 C           1.5022    2.8398   19.4345 C.ar    1  UNL1       -0.0077
      6 C           2.6633    2.5320   20.3329 C.ar    1  UNL1       -0.0030
      7 C           3.3583    1.2065   20.2327 C.ar    1  UNL1       -0.0002
      8 C           2.8922    0.1889   19.2341 C.ar    1  UNL1        0.0029
      9 C           1.7311    0.4967   18.3357 C.ar    1  UNL1       -0.0002
     10 C           1.0362    1.8222   18.4359 C.ar    1  UNL1       -0.0030
     11 C           3.5872   -1.1367   19.1339 C.ar    1  UNL1        0.0343
     12 C           3.2566   -2.2321   20.1038 C.ar    1  UNL1        0.0030
     13 C           3.9516   -3.5576   20.0037 C.ar    1  UNL1        0.0002
     14 C           4.9773   -3.7877   18.9336 C.ar    1  UNL1        0.0031
     15 C           5.3079   -2.6922   17.9636 C.ar    1  UNL1        0.0372
     16 C           4.6129   -1.3667   18.0638 C.ar    1  UNL1        0.1467
     17 O           4.9435   -0.2712   17.0939 O.3     1  UNL1       -0.4045
     18 C           5.9796    0.7546   17.4459 C.3     1  UNL1        0.5753
     19 F           7.0158    1.7805   17.7979 F       1  UNL1       -0.1328
     20 F           7.0355   -0.3108   17.4430 F       1  UNL1       -0.1328
     21 F           4.9238    1.8201   17.4488 F       1  UNL1       -0.1328
     22 N          -0.3468    3.5076   20.2315 N.3     1  UNL1       -0.1487
     23 S          -0.1919    3.0192   21.6414 S.O2    1  UNL1        0.0638
     24 O           0.2218    4.3950   22.0725 O.2     1  UNL1       -0.1528
     25 O          -0.6057    1.6433   21.2102 O.2     1  UNL1       -0.1528
     26 C          -0.0371    2.5308   23.0511 C.ar    1  UNL1        0.1224
     27 C          -0.7901    3.1989   24.1633 C.ar    1  UNL1        0.0230
     28 C          -0.6353    2.7106   25.5730 C.ar    1  UNL1        0.0385
     29 C           0.2725    1.5542   25.8708 C.ar    1  UNL1        0.1444
     30 C           1.0256    0.8862   24.7588 C.ar    1  UNL1        0.0385
     31 C           0.8707    1.3745   23.3489 C.ar    1  UNL1        0.0230
     32 O           0.4274    1.0659   27.2806 O.3     1  UNL1       -0.4236
     33 C          -0.7573    0.5158   28.0182 C.3     1  UNL1        0.5087
     34 F          -0.7207   -0.8827   28.5592 F       1  UNL1       -0.1550
     35 F          -1.9786    1.3643   28.2147 F       1  UNL1       -0.1550
     36 C          -1.6556    3.3381   19.5186 C.3     1  UNL1        0.1374
     37 O          -3.7481    2.7609   20.9463 O.co2   1  UNL1       -0.5477
     38 C          -2.9320    3.7616   20.1832 C.2     1  UNL1        0.0683
     39 O          -3.3921    5.1859   20.0846 O.co2   1  UNL1       -0.5477
@<TRIPOS>UNITY_ATOM_ATTR
37 1
charge -1
@<TRIPOS>BOND
     1    37    38   ar
     2    38    39   ar
     3    38    36    1
     4    36    22    1
     5    22     1    1
     6     1     5    1
     7     5     6   ar
     8     6     7   ar
     9     7     8   ar
    10     8    11    1
    11    11    12   ar
    12    12    13   ar
    13    13    14   ar
    14    14    15   ar
    15    15    16   ar
    16    16    17    1
    17    17    18    1
    18    18    19    1
    19    18    20    1
    20    18    21    1
    21     8     9   ar
    22     9    10   ar
    23     1     2    1
    24     2     3    1
    25     3     4    1
    26    22    23    1
    27    23    24    2
    28    23    25    2
    29    23    26    1
    30    26    27   ar
    31    27    28   ar
    32    28    29   ar
    33    29    32    1
    34    32    33    1
    35    33    34    1
    36    33    35    1
    37    29    30   ar
    38    30    31   ar
    39     4     1    1
    40    31    26   ar
    41    10     5   ar
    42    16    11   ar
@<TRIPOS>MOLECULE
*****
 39 42 0 0 0
SMALL
GASTEIGER

@<TRIPOS>ATOM
      1 C           5.2322   -0.4408   18.4107 C.3     1  UNL1        0.0849
      2 C           5.7334    0.6062   17.4606 C.3     1  UNL1        0.0206
      3 C           6.9998   -0.1743   17.2686 C.3     1  UNL1        0.0035
      4 C           6.4987   -1.2212   18.2187 C.3     1  UNL1        0.0206
      5 C           3.9657    0.3397   18.6028 C.ar    1  UNL1       -0.0077
      6 C           2.6777   -0.1668   18.0245 C.ar    1  UNL1       -0.0030
      7 C           1.4112    0.6137   18.2166 C.ar    1  UNL1       -0.0002
      8 C           1.4328    1.9006   18.9869 C.ar    1  UNL1        0.0029
      9 C           2.7208    2.4070   19.5652 C.ar    1  UNL1       -0.0002
     10 C           3.9872    1.6266   19.3731 C.ar    1  UNL1       -0.0030
     11 C           0.1662    2.6810   19.1789 C.ar    1  UNL1        0.0343
     12 C          -0.2009    3.7653   18.2097 C.ar    1  UNL1        0.0030
     13 C          -1.4674    4.5458   18.4017 C.ar    1  UNL1        0.0002
     14 C          -2.3668    4.2419   19.5631 C.ar    1  UNL1        0.0031
     15 C          -1.9997    3.1575   20.5323 C.ar    1  UNL1        0.0372
     16 C          -0.7332    2.3771   20.3403 C.ar    1  UNL1        0.1467
     17 O          -0.3661    1.2928   21.3096 O.3     1  UNL1       -0.4045
     18 C           0.5827    1.5823   22.4347 C.3     1  UNL1        0.5753
     19 F           1.5315    1.8718   23.5599 F       1  UNL1       -0.1328
     20 F          -0.3043    2.7009   22.8949 F       1  UNL1       -0.1328
     21 F           1.4698    0.4636   21.9745 F       1  UNL1       -0.1328
     22 N           4.7311   -1.4877   19.3608 N.3     1  UNL1       -0.1487
     23 S           4.5986   -1.1733   20.8216 S.O2    1  UNL1        0.0638
     24 O           3.1746   -1.6438   20.7936 O.2     1  UNL1       -0.1528
     25 O           6.0226   -0.7026   20.8495 O.2     1  UNL1       -0.1528
     26 C           4.4660   -0.8588   22.2822 C.ar    1  UNL1        0.1224
     27 C           4.0559   -1.9324   23.2463 C.ar    1  UNL1        0.0230
     28 C           3.9233   -1.6179   24.7069 C.ar    1  UNL1        0.0385
     29 C           4.2008   -0.2300   25.2036 C.ar    1  UNL1        0.1444
     30 C           4.6108    0.8435   24.2395 C.ar    1  UNL1        0.0385
     31 C           4.7434    0.5291   22.7788 C.ar    1  UNL1        0.0230
     32 O           4.0682    0.0844   26.6642 O.3     1  UNL1       -0.4236
     33 C           3.6938   -0.9976   27.6334 C.3     1  UNL1        0.5087
     34 F           4.6963   -2.0485   28.0082 F       1  UNL1       -0.1550
     35 F           2.3169   -1.0286   28.2277 F       1  UNL1       -0.1550
     36 C           4.3625   -2.8491   18.8503 C.3     1  UNL1        0.1374
     37 O           3.7445   -5.1524   19.8814 O.co2   1  UNL1       -0.5477
     38 C           4.7533   -4.0722   19.6260 C.2     1  UNL1        0.0683
     39 O           6.1529   -4.2148   20.1463 O.co2   1  UNL1       -0.5477
@<TRIPOS>UNITY_ATOM_ATTR
37 1
charge -1
@<TRIPOS>BOND
     1    37    38   ar
     2    38    39   ar
     3    38    36    1
     4    36    22    1
     5    22     1    1
     6     1     5    1
     7     5     6   ar
     8     6     7   ar
     9     7     8   ar
    10     8    11    1
    11    11    12   ar
    12    12    13   ar
    13    13    14   ar
    14    14    15   ar
    15    15    16   ar
    16    16    17    1
    17    17    18    1
    18    18    19    1
    19    18    20    1
    20    18    21    1
    21     8     9   ar
    22     9    10   ar
    23     1     2    1
    24     2     3    1
    25     3     4    1
    26    22    23    1
    27    23    24    2
    28    23    25    2
    29    23    26    1
    30    26    27   ar
    31    27    28   ar
    32    28    29   ar
    33    29    32    1
    34    32    33    1
    35    33    34    1
    36    33    35    1
    37    29    30   ar
    38    30    31   ar
    39     4     1    1
    40    31    26   ar
    41    10     5   ar
    42    16    11   ar
@<TRIPOS>MOLECULE
*****
 39 42 0 0 0
SMALL
GASTEIGER

@<TRIPOS>ATOM
      1 C           0.4508    3.2579   19.2969 C.3     1  UNL1        0.0849
      2 C          -0.2031    2.7175   18.0599 C.3     1  UNL1        0.0206
      3 C          -0.9074    4.0267   17.8602 C.3     1  UNL1        0.0035
      4 C          -0.2535    4.5671   19.0973 C.3     1  UNL1        0.0206
      5 C           1.1551    1.9486   19.4966 C.ar    1  UNL1       -0.0077
      6 C           2.5922    1.8008   19.0929 C.ar    1  UNL1       -0.0030
      7 C           3.2964    0.4916   19.2926 C.ar    1  UNL1       -0.0002
      8 C           2.5637   -0.6698   19.8960 C.ar    1  UNL1        0.0029
      9 C           1.1266   -0.5220   20.2997 C.ar    1  UNL1       -0.0002
     10 C           0.4224    0.7872   20.1000 C.ar    1  UNL1       -0.0030
     11 C           3.2680   -1.9791   20.0957 C.ar    1  UNL1        0.0343
     12 C           3.0654   -3.0968   19.1161 C.ar    1  UNL1        0.0030
     13 C           3.7698   -4.4060   19.3158 C.ar    1  UNL1        0.0002
     14 C           4.6767   -4.5975   20.4951 C.ar    1  UNL1        0.0031
     15 C           4.8793   -3.4797   21.4747 C.ar    1  UNL1        0.0372
     16 C           4.1750   -2.1705   21.2750 C.ar    1  UNL1        0.1467
     17 O           4.3776   -1.0527   22.2546 O.3     1  UNL1       -0.4045
     18 C           3.9315   -1.2127   23.6778 C.3     1  UNL1        0.5753
     19 F           3.4854   -1.3726   25.1010 F       1  UNL1       -0.1328
     20 F           2.5121   -0.9645   23.2608 F       1  UNL1       -0.1328
     21 F           5.3508   -1.4608   24.0948 F       1  UNL1       -0.1328
     22 N           1.1046    3.7982   20.5340 N.3     1  UNL1       -0.1487
     23 S           0.6336    3.3531   21.8868 S.O2    1  UNL1        0.0638
     24 O           2.0282    2.9204   22.2300 O.2     1  UNL1       -0.1528
     25 O          -0.7611    3.7858   21.5436 O.2     1  UNL1       -0.1528
     26 C           0.1626    2.9079   23.2396 C.ar    1  UNL1        0.1224
     27 C          -0.9288    3.6623   23.9395 C.ar    1  UNL1        0.0230
     28 C          -1.3997    3.2172   25.2923 C.ar    1  UNL1        0.0385
     29 C          -0.7793    2.0177   25.9452 C.ar    1  UNL1        0.1444
     30 C           0.3120    1.2633   25.2453 C.ar    1  UNL1        0.0385
     31 C           0.7830    1.7084   23.8925 C.ar    1  UNL1        0.0230
     32 O          -1.2503    1.5725   27.2980 O.3     1  UNL1       -0.4236
     33 C          -0.5568    0.4422   27.9991 C.3     1  UNL1        0.5087
     34 F           0.8814    0.5794   28.4025 F       1  UNL1       -0.1550
     35 F          -1.3016   -0.8254   28.2968 F       1  UNL1       -0.1550
     36 C           2.2295    4.7838   20.4184 C.3     1  UNL1        0.1374
     37 O           3.2902    6.1722   22.3413 O.co2   1  UNL1       -0.5477
     38 C           2.2424    6.0116   21.2800 C.2     1  UNL1        0.0683
     39 O           1.2075    7.0789   21.0803 O.co2   1  UNL1       -0.5477
@<TRIPOS>UNITY_ATOM_ATTR
37 1
charge -1
@<TRIPOS>BOND
     1    37    38   ar
     2    38    39   ar
     3    38    36    1
     4    36    22    1
     5    22     1    1
     6     1     5    1
     7     5     6   ar
     8     6     7   ar
     9     7     8   ar
    10     8    11    1
    11    11    12   ar
    12    12    13   ar
    13    13    14   ar
    14    14    15   ar
    15    15    16   ar
    16    16    17    1
    17    17    18    1
    18    18    19    1
    19    18    20    1
    20    18    21    1
    21     8     9   ar
    22     9    10   ar
    23     1     2    1
    24     2     3    1
    25     3     4    1
    26    22    23    1
    27    23    24    2
    28    23    25    2
    29    23    26    1
    30    26    27   ar
    31    27    28   ar
    32    28    29   ar
    33    29    32    1
    34    32    33    1
    35    33    34    1
    36    33    35    1
    37    29    30   ar
    38    30    31   ar
    39     4     1    1
    40    31    26   ar
    41    10     5   ar
    42    16    11   ar
@<TRIPOS>MOLECULE
*****
 39 42 0 0 0
SMALL
GASTEIGER

@<TRIPOS>ATOM
      1 C           4.5547   -3.0684   19.6746 C.3     1  UNL1        0.0849
      2 C           3.5787   -3.7721   18.7790 C.3     1  UNL1        0.0206
      3 C           4.4157   -5.0151   18.8435 C.3     1  UNL1        0.0035
      4 C           5.3917   -4.3114   19.7392 C.3     1  UNL1        0.0206
      5 C           3.7176   -1.8253   19.6101 C.ar    1  UNL1       -0.0077
      6 C           2.4149   -1.7590   20.3507 C.ar    1  UNL1       -0.0030
      7 C           1.5779   -0.5160   20.2861 C.ar    1  UNL1       -0.0002
      8 C           2.0436    0.6609   19.4810 C.ar    1  UNL1        0.0029
      9 C           3.3463    0.5946   18.7404 C.ar    1  UNL1       -0.0002
     10 C           4.1833   -0.6484   18.8050 C.ar    1  UNL1       -0.0030
     11 C           1.2066    1.9040   19.4165 C.ar    1  UNL1        0.0343
     12 C           0.4768    2.2520   18.1531 C.ar    1  UNL1        0.0030
     13 C          -0.3602    3.4952   18.0886 C.ar    1  UNL1        0.0002
     14 C          -0.4675    4.3901   19.2875 C.ar    1  UNL1        0.0031
     15 C           0.2623    4.0420   20.5510 C.ar    1  UNL1        0.0372
     16 C           1.0993    2.7989   20.6155 C.ar    1  UNL1        0.1467
     17 O           1.8291    2.4508   21.8789 O.3     1  UNL1       -0.4045
     18 C           1.0605    2.1731   23.1368 C.3     1  UNL1        0.5753
     19 F           0.2919    1.8953   24.3946 F       1  UNL1       -0.1328
     20 F           0.0759    1.3553   22.3545 F       1  UNL1       -0.1328
     21 F           2.0451    2.9908   23.9190 F       1  UNL1       -0.1328
     22 N           5.5306   -2.3646   20.5702 N.3     1  UNL1       -0.1487
     23 S           5.1186   -1.9542   21.9530 S.O2    1  UNL1        0.0638
     24 O           5.6630   -0.5784   21.7068 O.2     1  UNL1       -0.1528
     25 O           4.5741   -3.3301   22.1991 O.2     1  UNL1       -0.1528
     26 C           4.7065   -1.5438   23.3356 C.ar    1  UNL1        0.1224
     27 C           5.4974   -2.0079   24.5227 C.ar    1  UNL1        0.0230
     28 C           5.0854   -1.5975   25.9054 C.ar    1  UNL1        0.0385
     29 C           3.8825   -0.7229   26.1009 C.ar    1  UNL1        0.1444
     30 C           3.0916   -0.2588   24.9139 C.ar    1  UNL1        0.0385
     31 C           3.5036   -0.6693   23.5312 C.ar    1  UNL1        0.0230
     32 O           3.4704   -0.3125   27.4836 O.3     1  UNL1       -0.4236
     33 C           2.1143    0.2851   27.7157 C.3     1  UNL1        0.5087
     34 F           1.0750   -0.4856   28.4745 F       1  UNL1       -0.1550
     35 F           1.7975    1.6534   27.1891 F       1  UNL1       -0.1550
     36 C           6.9187   -2.0713   20.0832 C.3     1  UNL1        0.1374
     37 O           6.9311   -2.2661   17.4925 O.co2   1  UNL1       -0.5477
     38 C           7.1242   -1.4476   18.7345 C.2     1  UNL1        0.0683
     39 O           7.5227   -0.0055   18.6280 O.co2   1  UNL1       -0.5477
@<TRIPOS>UNITY_ATOM_ATTR
37 1
charge -1
@<TRIPOS>BOND
     1    37    38   ar
     2    38    39   ar
     3    38    36    1
     4    36    22    1
     5    22     1    1
     6     1     5    1
     7     5     6   ar
     8     6     7   ar
     9     7     8   ar
    10     8    11    1
    11    11    12   ar
    12    12    13   ar
    13    13    14   ar
    14    14    15   ar
    15    15    16   ar
    16    16    17    1
    17    17    18    1
    18    18    19    1
    19    18    20    1
    20    18    21    1
    21     8     9   ar
    22     9    10   ar
    23     1     2    1
    24     2     3    1
    25     3     4    1
    26    22    23    1
    27    23    24    2
    28    23    25    2
    29    23    26    1
    30    26    27   ar
    31    27    28   ar
    32    28    29   ar
    33    29    32    1
    34    32    33    1
    35    33    34    1
    36    33    35    1
    37    29    30   ar
    38    30    31   ar
    39     4     1    1
    40    31    26   ar
    41    10     5   ar
    42    16    11   ar
@<TRIPOS>MOLECULE
*****
 39 42 0 0 0
SMALL
GASTEIGER

@<TRIPOS>ATOM
      1 C           0.4456    3.3440   19.4899 C.3     1  UNL1        0.0849
      2 C          -0.0367    2.6651   18.2423 C.3     1  UNL1        0.0206
      3 C          -0.7884    3.9050   17.8582 C.3     1  UNL1        0.0035
      4 C          -0.3061    4.5839   19.1058 C.3     1  UNL1        0.0206
      5 C           1.1973    2.1040   19.8741 C.ar    1  UNL1       -0.0077
      6 C           2.6970    2.0975   19.8468 C.ar    1  UNL1       -0.0030
      7 C           3.4487    0.8576   20.2310 C.ar    1  UNL1       -0.0002
      8 C           2.7006   -0.3758   20.6424 C.ar    1  UNL1        0.0029
      9 C           1.2009   -0.3692   20.6696 C.ar    1  UNL1       -0.0002
     10 C           0.4493    0.8707   20.2855 C.ar    1  UNL1       -0.0030
     11 C           3.4524   -1.6157   21.0265 C.ar    1  UNL1        0.0343
     12 C           3.7953   -1.8696   22.4645 C.ar    1  UNL1        0.0030
     13 C           4.5470   -3.1096   22.8487 C.ar    1  UNL1        0.0002
     14 C           4.9558   -4.0956   21.7947 C.ar    1  UNL1        0.0031
     15 C           4.6129   -3.8416   20.3567 C.ar    1  UNL1        0.0372
     16 C           3.8612   -2.6017   19.9726 C.ar    1  UNL1        0.1467
     17 O           3.5183   -2.3477   18.5345 O.3     1  UNL1       -0.4045
     18 C           4.3560   -1.4085   17.7183 C.3     1  UNL1        0.5753
     19 F           5.1937   -0.4693   16.9021 F       1  UNL1       -0.1328
     20 F           5.5895   -2.1646   18.1143 F       1  UNL1       -0.1328
     21 F           3.1225   -0.6524   17.3223 F       1  UNL1       -0.1328
     22 N           0.9279    4.0228   20.7375 N.3     1  UNL1       -0.1487
     23 S           0.4779    3.5305   22.0811 S.O2    1  UNL1        0.0638
     24 O           1.9075    3.3156   22.4811 O.2     1  UNL1       -0.1528
     25 O          -0.9518    3.7454   21.6811 O.2     1  UNL1       -0.1528
     26 C           0.0280    3.0381   23.4247 C.ar    1  UNL1        0.1224
     27 C           0.6647    1.8220   24.0296 C.ar    1  UNL1        0.0230
     28 C           0.2148    1.3297   25.3731 C.ar    1  UNL1        0.0385
     29 C          -0.8717    2.0534   26.1118 C.ar    1  UNL1        0.1444
     30 C          -1.5083    3.2695   25.5070 C.ar    1  UNL1        0.0385
     31 C          -1.0585    3.7619   24.1634 C.ar    1  UNL1        0.0230
     32 O          -1.3216    1.5611   27.4554 O.3     1  UNL1       -0.4236
     33 C          -0.6662    0.3612   28.0725 C.3     1  UNL1        0.5087
     34 F           0.7692    0.4289   28.5027 F       1  UNL1       -0.1550
     35 F          -1.4461   -0.9063   28.2594 F       1  UNL1       -0.1550
     36 C           1.8601    5.1941   20.6416 C.3     1  UNL1        0.1374
     37 O           0.4655    7.3220   21.1678 O.co2   1  UNL1       -0.5477
     38 C           1.6190    6.4151   21.4789 C.2     1  UNL1        0.0683
     39 O           2.5314    6.7291   22.6273 O.co2   1  UNL1       -0.5477
@<TRIPOS>UNITY_ATOM_ATTR
37 1
charge -1
@<TRIPOS>BOND
     1    37    38   ar
     2    38    39   ar
     3    38    36    1
     4    36    22    1
     5    22     1    1
     6     1     5    1
     7     5     6   ar
     8     6     7   ar
     9     7     8   ar
    10     8    11    1
    11    11    12   ar
    12    12    13   ar
    13    13    14   ar
    14    14    15   ar
    15    15    16   ar
    16    16    17    1
    17    17    18    1
    18    18    19    1
    19    18    20    1
    20    18    21    1
    21     8     9   ar
    22     9    10   ar
    23     1     2    1
    24     2     3    1
    25     3     4    1
    26    22    23    1
    27    23    24    2
    28    23    25    2
    29    23    26    1
    30    26    27   ar
    31    27    28   ar
    32    28    29   ar
    33    29    32    1
    34    32    33    1
    35    33    34    1
    36    33    35    1
    37    29    30   ar
    38    30    31   ar
    39     4     1    1
    40    31    26   ar
    41    10     5   ar
    42    16    11   ar
@<TRIPOS>MOLECULE
*****
 39 42 0 0 0
SMALL
GASTEIGER

@<TRIPOS>ATOM
      1 C           4.9803   -3.2944   20.0097 C.3     1  UNL1        0.0849
      2 C           3.6587   -3.6414   19.3910 C.3     1  UNL1        0.0206
      3 C           4.2752   -4.8502   18.7519 C.3     1  UNL1        0.0035
      4 C           5.5969   -4.5032   19.3705 C.3     1  UNL1        0.0206
      5 C           4.3638   -2.0855   20.6489 C.ar    1  UNL1       -0.0077
      6 C           3.6285   -2.2176   21.9496 C.ar    1  UNL1       -0.0030
      7 C           3.0121   -1.0087   22.5887 C.ar    1  UNL1       -0.0002
      8 C           3.1309    0.3323   21.9272 C.ar    1  UNL1        0.0029
      9 C           3.8661    0.4644   20.6265 C.ar    1  UNL1       -0.0002
     10 C           4.4826   -0.7445   19.9873 C.ar    1  UNL1       -0.0030
     11 C           2.5143    1.5412   22.5664 C.ar    1  UNL1        0.0343
     12 C           3.3686    2.4934   23.3496 C.ar    1  UNL1        0.0030
     13 C           2.7521    3.7023   23.9888 C.ar    1  UNL1        0.0002
     14 C           1.2813    3.9589   23.8448 C.ar    1  UNL1        0.0031
     15 C           0.4270    3.0067   23.0615 C.ar    1  UNL1        0.0372
     16 C           1.0435    1.7978   22.4223 C.ar    1  UNL1        0.1467
     17 O           0.1892    0.8456   21.6391 O.3     1  UNL1       -0.4045
     18 C           0.4241    0.6627   20.1689 C.3     1  UNL1        0.5753
     19 F           0.6589    0.4799   18.6987 F       1  UNL1       -0.1328
     20 F           0.5163   -0.8211   20.3682 F       1  UNL1       -0.1328
     21 F           0.3318    2.1466   19.9696 F       1  UNL1       -0.1328
     22 N           6.3020   -2.9474   20.6283 N.3     1  UNL1       -0.1487
     23 S           6.4838   -3.0466   22.1140 S.O2    1  UNL1        0.0638
     24 O           7.0154   -1.6442   22.1425 O.2     1  UNL1       -0.1528
     25 O           5.9523   -4.4490   22.0854 O.2     1  UNL1       -0.1528
     26 C           6.6657   -3.1457   23.5996 C.ar    1  UNL1        0.1224
     27 C           6.2184   -2.0218   24.4866 C.ar    1  UNL1        0.0230
     28 C           6.4002   -2.1209   25.9722 C.ar    1  UNL1        0.0385
     29 C           7.0294   -3.3439   26.5709 C.ar    1  UNL1        0.1444
     30 C           7.4767   -4.4678   25.6839 C.ar    1  UNL1        0.0385
     31 C           7.2949   -4.3687   24.1982 C.ar    1  UNL1        0.0230
     32 O           7.2113   -3.4430   28.0565 O.3     1  UNL1       -0.4236
     33 C           6.4596   -4.4806   28.8365 C.3     1  UNL1        0.5087
     34 F           5.6259   -5.5004   28.1190 F       1  UNL1       -0.1550
     35 F           6.5417   -4.4984   30.3342 F       1  UNL1       -0.1550
     36 C           7.4419   -2.5012   19.7613 C.3     1  UNL1        0.1374
     37 O           7.5100   -0.0513   18.8993 O.co2   1  UNL1       -0.5477
     38 C           7.2060   -1.5018   18.6679 C.2     1  UNL1        0.0683
     39 O           6.6660   -1.9529   17.3432 O.co2   1  UNL1       -0.5477
@<TRIPOS>UNITY_ATOM_ATTR
37 1
charge -1
@<TRIPOS>BOND
     1    37    38   ar
     2    38    39   ar
     3    38    36    1
     4    36    22    1
     5    22     1    1
     6     1     5    1
     7     5     6   ar
     8     6     7   ar
     9     7     8   ar
    10     8    11    1
    11    11    12   ar
    12    12    13   ar
    13    13    14   ar
    14    14    15   ar
    15    15    16   ar
    16    16    17    1
    17    17    18    1
    18    18    19    1
    19    18    20    1
    20    18    21    1
    21     8     9   ar
    22     9    10   ar
    23     1     2    1
    24     2     3    1
    25     3     4    1
    26    22    23    1
    27    23    24    2
    28    23    25    2
    29    23    26    1
    30    26    27   ar
    31    27    28   ar
    32    28    29   ar
    33    29    32    1
    34    32    33    1
    35    33    34    1
    36    33    35    1
    37    29    30   ar
    38    30    31   ar
    39     4     1    1
    40    31    26   ar
    41    10     5   ar
    42    16    11   ar
@<TRIPOS>MOLECULE
*****
 39 42 0 0 0
SMALL
GASTEIGER

@<TRIPOS>ATOM
      1 C           4.4693   -3.3479   20.1556 C.3     1  UNL1        0.0849
      2 C           4.1330   -4.7998   20.3253 C.3     1  UNL1        0.0206
      3 C           3.4545   -4.7990   18.9875 C.3     1  UNL1        0.0035
      4 C           3.7909   -3.3471   18.8178 C.3     1  UNL1        0.0206
      5 C           5.1478   -3.3487   21.4935 C.ar    1  UNL1       -0.0077
      6 C           6.5321   -3.9093   21.6320 C.ar    1  UNL1       -0.0030
      7 C           7.2105   -3.9101   22.9698 C.ar    1  UNL1       -0.0002
      8 C           6.5046   -3.3502   24.1690 C.ar    1  UNL1        0.0029
      9 C           5.1202   -2.7896   24.0305 C.ar    1  UNL1       -0.0002
     10 C           4.4419   -2.7888   22.6927 C.ar    1  UNL1       -0.0030
     11 C           7.1831   -3.3510   25.5069 C.ar    1  UNL1        0.0343
     12 C           7.6583   -2.0613   26.1076 C.ar    1  UNL1        0.0030
     13 C           8.3368   -2.0621   27.4454 C.ar    1  UNL1        0.0002
     14 C           8.5400   -3.3526   28.1825 C.ar    1  UNL1        0.0031
     15 C           8.0647   -4.6423   27.5818 C.ar    1  UNL1        0.0372
     16 C           7.3862   -4.6415   26.2440 C.ar    1  UNL1        0.1467
     17 O           6.9109   -5.9312   25.6433 O.3     1  UNL1       -0.4045
     18 C           7.8805   -7.0513   25.4080 C.3     1  UNL1        0.5753
     19 F           8.8502   -8.1713   25.1727 F       1  UNL1       -0.1328
     20 F           8.8390   -6.0881   24.7727 F       1  UNL1       -0.1328
     21 F           6.9221   -8.0145   26.0433 F       1  UNL1       -0.1328
     22 N           4.8057   -1.8960   19.9859 N.3     1  UNL1       -0.1487
     23 S           3.7084   -0.8852   19.8295 S.O2    1  UNL1        0.0638
     24 O           4.5855   -0.0735   18.9230 O.2     1  UNL1       -0.1528
     25 O           2.8313   -1.6970   20.7361 O.2     1  UNL1       -0.1528
     26 C           2.6112    0.1255   19.6731 C.ar    1  UNL1        0.1224
     27 C           1.2583   -0.1384   20.2647 C.ar    1  UNL1        0.0230
     28 C           0.1611    0.8723   20.1083 C.ar    1  UNL1        0.0385
     29 C           0.4168    2.1471   19.3602 C.ar    1  UNL1        0.1444
     30 C           1.7697    2.4111   18.7686 C.ar    1  UNL1        0.0385
     31 C           2.8669    1.4003   18.9250 C.ar    1  UNL1        0.0230
     32 O          -0.6804    3.1579   19.2038 O.3     1  UNL1       -0.4236
     33 C          -1.7943    3.2169   20.2066 C.3     1  UNL1        0.5087
     34 F          -1.4814    3.2923   21.6716 F       1  UNL1       -0.1550
     35 F          -3.2212    3.2006   19.7444 F       1  UNL1       -0.1550
     36 C           6.2393   -1.4548   19.9727 C.3     1  UNL1        0.1374
     37 O           8.5757   -2.3102   19.2247 O.co2   1  UNL1       -0.5477
     38 C           7.1619   -1.9355   18.8920 C.2     1  UNL1        0.0683
     39 O           6.6707   -2.0413   17.4787 O.co2   1  UNL1       -0.5477
@<TRIPOS>UNITY_ATOM_ATTR
37 1
charge -1
@<TRIPOS>BOND
     1    37    38   ar
     2    38    39   ar
     3    38    36    1
     4    36    22    1
     5    22     1    1
     6     1     5    1
     7     5     6   ar
     8     6     7   ar
     9     7     8   ar
    10     8    11    1
    11    11    12   ar
    12    12    13   ar
    13    13    14   ar
    14    14    15   ar
    15    15    16   ar
    16    16    17    1
    17    17    18    1
    18    18    19    1
    19    18    20    1
    20    18    21    1
    21     8     9   ar
    22     9    10   ar
    23     1     2    1
    24     2     3    1
    25     3     4    1
    26    22    23    1
    27    23    24    2
    28    23    25    2
    29    23    26    1
    30    26    27   ar
    31    27    28   ar
    32    28    29   ar
    33    29    32    1
    34    32    33    1
    35    33    34    1
    36    33    35    1
    37    29    30   ar
    38    30    31   ar
    39     4     1    1
    40    31    26   ar
    41    10     5   ar
    42    16    11   ar
