@<TRIPOS>MOLECULE
*****
 31 35 0 0 0
SMALL
GASTEIGER

@<TRIPOS>ATOM
      1 C          -2.1594    3.9401   20.0566 C.3     1  UNL1        0.1688
      2 C          -1.6183    4.3863   18.7307 C.3     1  UNL1        0.2354
      3 O          -0.4994    3.4619   18.3518 O.2     1  UNL1       -0.4580
      4 C          -0.3490    2.4443   19.4436 C.2     1  UNL1        0.2207
      5 N          -1.3749    2.7398   20.4972 N.2     1  UNL1       -0.2318
      6 F          -5.1088    3.1230   25.2173 F       1  UNL1       -0.2042
      7 C          -4.3714    3.3273   23.9271 C.ar    1  UNL1        0.1401
      8 C          -5.0359    2.9982   22.6233 C.ar    1  UNL1        0.0294
      9 C          -4.2986    3.2024   21.3331 C.ar    1  UNL1        0.0000
     10 C          -2.8967    3.7358   21.3468 C.ar    1  UNL1        0.0034
     11 C          -2.2322    4.0649   22.6506 C.ar    1  UNL1        0.0000
     12 C          -2.9696    3.8606   23.9408 C.ar    1  UNL1        0.0294
     13 C           0.6516    1.3273   19.4760 C.ar    1  UNL1        0.0528
     14 C           0.5164    0.2284   20.4879 C.ar    1  UNL1        0.0046
     15 C           1.5170   -0.8886   20.5204 C.ar    1  UNL1        0.0002
     16 C           2.6529   -0.9068   19.5409 C.ar    1  UNL1        0.0022
     17 C           2.7881    0.1921   18.5289 C.ar    1  UNL1        0.0002
     18 C           1.7875    1.3092   18.4964 C.ar    1  UNL1        0.0046
     19 C           3.6535   -2.0237   19.5733 C.ar    1  UNL1        0.0275
     20 C           3.2424   -3.4107   19.1765 C.ar    1  UNL1        0.0022
     21 C           4.2430   -4.5277   19.2089 C.ar    1  UNL1        0.0001
     22 C           5.6547   -4.2577   19.6380 C.ar    1  UNL1        0.0023
     23 C           6.0658   -2.8708   20.0347 C.ar    1  UNL1        0.0296
     24 C           5.0653   -1.7538   20.0024 C.ar    1  UNL1        0.1401
     25 F           5.4764   -0.3669   20.3991 F       1  UNL1       -0.2042
     26 C          -3.0980    5.0976   19.8857 C.3     1  UNL1        0.1595
     27 N          -3.8480    5.2714   18.5984 N.ar    1  UNL1       -0.2277
     28 C          -4.6267    4.2086   17.8813 C.ar    1  UNL1        0.1973
     29 N          -5.2109    4.8189   16.6418 N.ar    1  UNL1       -0.2007
     30 C          -4.7934    6.2588   16.5929 C.ar    1  UNL1        0.2210
     31 N          -3.9510    6.5385   17.8022 N.ar    1  UNL1       -0.1451
@<TRIPOS>BOND
     1     6     7    1
     2     7     8   ar
     3     8     9   ar
     4     9    10   ar
     5    10     1    1
     6     1    26    1
     7    26    27    1
     8    27    28   ar
     9    28    29   ar
    10    29    30   ar
    11    30    31   ar
    12     1     2    1
    13     2     3    1
    14     3     4    1
    15     4    13    1
    16    13    14   ar
    17    14    15   ar
    18    15    16   ar
    19    16    19    1
    20    19    20   ar
    21    20    21   ar
    22    21    22   ar
    23    22    23   ar
    24    23    24   ar
    25    24    25    1
    26    16    17   ar
    27    17    18   ar
    28     4     5    2
    29    10    11   ar
    30    11    12   ar
    31    12     7   ar
    32     5     1    1
    33    31    27   ar
    34    18    13   ar
    35    24    19   ar
@<TRIPOS>MOLECULE
*****
 31 35 0 0 0
SMALL
GASTEIGER

@<TRIPOS>ATOM
      1 C          -0.4785    3.1579   24.6642 C.3     1  UNL1        0.1688
      2 C          -0.8680    3.8112   23.3713 C.3     1  UNL1        0.2354
      3 O          -0.2527    3.0256   22.2513 O.2     1  UNL1       -0.4580
      4 C           0.5171    1.8870   22.8520 C.2     1  UNL1        0.2207
      5 N           0.3776    1.9688   24.3432 N.2     1  UNL1       -0.2318
      6 F           0.4023    1.4656   30.3527 F       1  UNL1       -0.2042
      7 C           0.1821    1.8887   28.9306 C.ar    1  UNL1        0.1401
      8 C          -0.3289    0.9003   27.9246 C.ar    1  UNL1        0.0294
      9 C          -0.5491    1.3234   26.5025 C.ar    1  UNL1        0.0000
     10 C          -0.2583    2.7349   26.0863 C.ar    1  UNL1        0.0034
     11 C           0.2527    3.7232   27.0923 C.ar    1  UNL1        0.0000
     12 C           0.4729    3.3001   28.5144 C.ar    1  UNL1        0.0294
     13 C           1.2907    0.8489   22.0944 C.ar    1  UNL1        0.0528
     14 C           2.5880    0.3322   22.6421 C.ar    1  UNL1        0.0046
     15 C           3.3616   -0.7059   21.8846 C.ar    1  UNL1        0.0002
     16 C           2.8379   -1.2274   20.5793 C.ar    1  UNL1        0.0022
     17 C           1.5406   -0.7106   20.0315 C.ar    1  UNL1        0.0002
     18 C           0.7669    0.3275   20.7891 C.ar    1  UNL1        0.0046
     19 C           3.6114   -2.2655   19.8217 C.ar    1  UNL1        0.0275
     20 C           3.1786   -3.7011   19.8620 C.ar    1  UNL1        0.0022
     21 C           3.9520   -4.7392   19.1045 C.ar    1  UNL1        0.0001
     22 C           5.1584   -4.3417   18.3066 C.ar    1  UNL1        0.0023
     23 C           5.5913   -2.9061   18.2663 C.ar    1  UNL1        0.0296
     24 C           4.8178   -1.8680   19.0238 C.ar    1  UNL1        0.1401
     25 F           5.2507   -0.4324   18.9835 F       1  UNL1       -0.2042
     26 C          -1.2885    4.2587   25.2824 C.3     1  UNL1        0.1595
     27 N          -2.7700    4.0955   25.4517 N.ar    1  UNL1       -0.2277
     28 C          -3.5541    4.3976   26.6942 C.ar    1  UNL1        0.1973
     29 N          -4.9961    4.0903   26.4185 N.ar    1  UNL1       -0.2007
     30 C          -5.1033    3.5983   25.0055 C.ar    1  UNL1        0.2210
     31 N          -3.7275    3.6015   24.4079 N.ar    1  UNL1       -0.1451
@<TRIPOS>BOND
     1     6     7    1
     2     7     8   ar
     3     8     9   ar
     4     9    10   ar
     5    10     1    1
     6     1    26    1
     7    26    27    1
     8    27    28   ar
     9    28    29   ar
    10    29    30   ar
    11    30    31   ar
    12     1     2    1
    13     2     3    1
    14     3     4    1
    15     4    13    1
    16    13    14   ar
    17    14    15   ar
    18    15    16   ar
    19    16    19    1
    20    19    20   ar
    21    20    21   ar
    22    21    22   ar
    23    22    23   ar
    24    23    24   ar
    25    24    25    1
    26    16    17   ar
    27    17    18   ar
    28     4     5    2
    29    10    11   ar
    30    11    12   ar
    31    12     7   ar
    32     5     1    1
    33    31    27   ar
    34    18    13   ar
    35    24    19   ar
@<TRIPOS>MOLECULE
*****
 31 35 0 0 0
SMALL
GASTEIGER

@<TRIPOS>ATOM
      1 C          -2.2313    3.8018   21.9358 C.3     1  UNL1        0.1688
      2 C          -1.6365    3.8385   23.3123 C.3     1  UNL1        0.2354
      3 O          -0.4992    2.8611   23.3520 O.2     1  UNL1       -0.4580
      4 C          -0.3913    2.2204   22.0000 C.2     1  UNL1        0.2207
      5 N          -1.4618    2.8017   21.1248 N.2     1  UNL1       -0.2318
      6 F          -5.3927    4.5228   16.8875 F       1  UNL1       -0.2042
      7 C          -4.6024    4.3425   18.1496 C.ar    1  UNL1        0.1401
      8 C          -5.1255    3.4581   19.2422 C.ar    1  UNL1        0.0294
      9 C          -4.3352    3.2778   20.5043 C.ar    1  UNL1        0.0000
     10 C          -3.0217    3.9820   20.6738 C.ar    1  UNL1        0.0034
     11 C          -2.4985    4.8665   19.5811 C.ar    1  UNL1        0.0000
     12 C          -3.2889    5.0467   18.3190 C.ar    1  UNL1        0.0294
     13 C           0.6111    1.1808   21.5945 C.ar    1  UNL1        0.0528
     14 C           1.9439    1.1167   22.2796 C.ar    1  UNL1        0.0046
     15 C           2.9464    0.0772   21.8741 C.ar    1  UNL1        0.0002
     16 C           2.6160   -0.8984   20.7836 C.ar    1  UNL1        0.0022
     17 C           1.2831   -0.8343   20.0985 C.ar    1  UNL1        0.0002
     18 C           0.2806    0.2053   20.5040 C.ar    1  UNL1        0.0046
     19 C           3.6184   -1.9379   20.3781 C.ar    1  UNL1        0.0275
     20 C           4.2252   -2.8386   21.4128 C.ar    1  UNL1        0.0022
     21 C           5.2276   -3.8781   21.0074 C.ar    1  UNL1        0.0001
     22 C           5.6232   -4.0171   19.5672 C.ar    1  UNL1        0.0023
     23 C           5.0164   -3.1164   18.5325 C.ar    1  UNL1        0.0296
     24 C           4.0140   -2.0769   18.9379 C.ar    1  UNL1        0.1401
     25 F           3.4072   -1.1762   17.9032 F       1  UNL1       -0.2042
     26 C          -3.1661    4.8395   22.4830 C.3     1  UNL1        0.1595
     27 N          -3.8893    4.5917   23.7736 N.ar    1  UNL1       -0.2277
     28 C          -4.8161    3.4474   24.0593 C.ar    1  UNL1        0.1973
     29 N          -5.3122    3.5933   25.4674 N.ar    1  UNL1       -0.2007
     30 C          -4.6920    4.8276   26.0519 C.ar    1  UNL1        0.2210
     31 N          -3.8125    5.4447   25.0051 N.ar    1  UNL1       -0.1451
@<TRIPOS>BOND
     1     6     7    1
     2     7     8   ar
     3     8     9   ar
     4     9    10   ar
     5    10     1    1
     6     1    26    1
     7    26    27    1
     8    27    28   ar
     9    28    29   ar
    10    29    30   ar
    11    30    31   ar
    12     1     2    1
    13     2     3    1
    14     3     4    1
    15     4    13    1
    16    13    14   ar
    17    14    15   ar
    18    15    16   ar
    19    16    19    1
    20    19    20   ar
    21    20    21   ar
    22    21    22   ar
    23    22    23   ar
    24    23    24   ar
    25    24    25    1
    26    16    17   ar
    27    17    18   ar
    28     4     5    2
    29    10    11   ar
    30    11    12   ar
    31    12     7   ar
    32     5     1    1
    33    31    27   ar
    34    18    13   ar
    35    24    19   ar
@<TRIPOS>MOLECULE
*****
 31 35 0 0 0
SMALL
GASTEIGER

@<TRIPOS>ATOM
      1 C           4.9704   -2.2471   19.9453 C.3     1  UNL1        0.1688
      2 C           6.0509   -2.9541   19.1820 C.3     1  UNL1        0.2354
      3 O           6.8652   -3.7485   20.1598 O.2     1  UNL1       -0.4580
      4 C           6.2879   -3.5324   21.5273 C.2     1  UNL1        0.2207
      5 N           5.1168   -2.6045   21.3948 N.2     1  UNL1       -0.2318
      6 F           0.3227    1.0229   21.8705 F       1  UNL1       -0.2042
      7 C           1.4846    0.2054   21.3892 C.ar    1  UNL1        0.1401
      8 C           2.8219    0.3378   22.0555 C.ar    1  UNL1        0.0294
      9 C           3.9838   -0.4797   21.5742 C.ar    1  UNL1        0.0000
     10 C           3.8084   -1.4296   20.4266 C.ar    1  UNL1        0.0034
     11 C           2.4711   -1.5619   19.7603 C.ar    1  UNL1        0.0000
     12 C           1.3092   -0.7444   20.2416 C.ar    1  UNL1        0.0294
     13 C           6.7930   -4.1380   22.8033 C.ar    1  UNL1        0.0528
     14 C           7.9400   -5.1041   22.7723 C.ar    1  UNL1        0.0046
     15 C           8.4452   -5.7097   24.0482 C.ar    1  UNL1        0.0002
     16 C           7.8034   -5.3492   25.3552 C.ar    1  UNL1        0.0022
     17 C           6.6564   -4.3830   25.3861 C.ar    1  UNL1        0.0002
     18 C           6.1512   -3.7774   24.1102 C.ar    1  UNL1        0.0046
     19 C           8.3085   -5.9547   26.6312 C.ar    1  UNL1        0.0275
     20 C           9.0305   -5.1018   27.6318 C.ar    1  UNL1        0.0022
     21 C           9.5356   -5.7073   28.9078 C.ar    1  UNL1        0.0001
     22 C           9.3188   -7.1657   29.1831 C.ar    1  UNL1        0.0023
     23 C           8.5968   -8.0187   28.1825 C.ar    1  UNL1        0.0296
     24 C           8.0916   -7.4132   26.9065 C.ar    1  UNL1        0.1401
     25 F           7.3697   -8.2661   25.9059 F       1  UNL1       -0.2042
     26 C           4.5810   -1.7187   18.5965 C.3     1  UNL1        0.1595
     27 N           5.3258   -0.5609   18.0009 N.ar    1  UNL1       -0.2277
     28 C           5.0084    0.8908   18.2056 C.ar    1  UNL1        0.1973
     29 N           6.0052    1.6973   17.4272 N.ar    1  UNL1       -0.2007
     30 C           6.9386    0.7442   16.7415 C.ar    1  UNL1        0.2210
     31 N           6.5187   -0.6516   17.0960 N.ar    1  UNL1       -0.1451
@<TRIPOS>BOND
     1     6     7    1
     2     7     8   ar
     3     8     9   ar
     4     9    10   ar
     5    10     1    1
     6     1    26    1
     7    26    27    1
     8    27    28   ar
     9    28    29   ar
    10    29    30   ar
    11    30    31   ar
    12     1     2    1
    13     2     3    1
    14     3     4    1
    15     4    13    1
    16    13    14   ar
    17    14    15   ar
    18    15    16   ar
    19    16    19    1
    20    19    20   ar
    21    20    21   ar
    22    21    22   ar
    23    22    23   ar
    24    23    24   ar
    25    24    25    1
    26    16    17   ar
    27    17    18   ar
    28     4     5    2
    29    10    11   ar
    30    11    12   ar
    31    12     7   ar
    32     5     1    1
    33    31    27   ar
    34    18    13   ar
    35    24    19   ar
@<TRIPOS>MOLECULE
*****
 31 35 0 0 0
SMALL
GASTEIGER

@<TRIPOS>ATOM
      1 C           4.2194    1.6824   36.4649 C.3     1  UNL1        0.1688
      2 C           4.8171    0.7099   37.4379 C.3     1  UNL1        0.2354
      3 O           5.4214   -0.4175   36.6544 O.2     1  UNL1       -0.4580
      4 C           5.1971   -0.1417   35.1971 C.2     1  UNL1        0.2207
      5 N           4.4543    1.1561   35.0800 N.2     1  UNL1       -0.2318
      6 F           1.5140    6.2108   33.6058 F       1  UNL1       -0.2042
      7 C           2.1903    5.0787   34.3206 C.ar    1  UNL1        0.1401
      8 C           3.3108    5.3587   35.2776 C.ar    1  UNL1        0.0294
      9 C           3.9872    4.2266   35.9924 C.ar    1  UNL1        0.0000
     10 C           3.5430    2.8145   35.7501 C.ar    1  UNL1        0.0034
     11 C           2.4226    2.5346   34.7930 C.ar    1  UNL1        0.0000
     12 C           1.7462    3.6666   34.0782 C.ar    1  UNL1        0.0294
     13 C           5.6383   -1.0111   34.0572 C.ar    1  UNL1        0.0528
     14 C           7.0733   -1.0041   33.6204 C.ar    1  UNL1        0.0046
     15 C           7.5146   -1.8735   32.4805 C.ar    1  UNL1        0.0002
     16 C           6.5208   -2.7499   31.7772 C.ar    1  UNL1        0.0022
     17 C           5.0858   -2.7568   32.2140 C.ar    1  UNL1        0.0002
     18 C           4.6445   -1.8874   33.3540 C.ar    1  UNL1        0.0046
     19 C           6.9620   -3.6193   30.6373 C.ar    1  UNL1        0.0275
     20 C           7.3306   -3.0008   29.3214 C.ar    1  UNL1        0.0022
     21 C           7.7718   -3.8701   28.1814 C.ar    1  UNL1        0.0001
     22 C           7.8444   -5.3580   28.3574 C.ar    1  UNL1        0.0023
     23 C           7.4758   -5.9765   29.6733 C.ar    1  UNL1        0.0296
     24 C           7.0346   -5.1072   30.8133 C.ar    1  UNL1        0.1401
     25 F           6.6660   -5.7257   32.1292 F       1  UNL1       -0.2042
     26 C           3.8431    2.4454   37.7003 C.3     1  UNL1        0.1595
     27 N           2.5390    2.1656   38.3865 N.ar    1  UNL1       -0.2277
     28 C           1.3070    3.0188   38.3204 C.ar    1  UNL1        0.1973
     29 N           0.2445    2.3639   39.1524 N.ar    1  UNL1       -0.2007
     30 C           0.8197    1.1060   39.7327 C.ar    1  UNL1        0.2210
     31 N           2.2379    0.9834   39.2594 N.ar    1  UNL1       -0.1451
@<TRIPOS>BOND
     1     6     7    1
     2     7     8   ar
     3     8     9   ar
     4     9    10   ar
     5    10     1    1
     6     1    26    1
     7    26    27    1
     8    27    28   ar
     9    28    29   ar
    10    29    30   ar
    11    30    31   ar
    12     1     2    1
    13     2     3    1
    14     3     4    1
    15     4    13    1
    16    13    14   ar
    17    14    15   ar
    18    15    16   ar
    19    16    19    1
    20    19    20   ar
    21    20    21   ar
    22    21    22   ar
    23    22    23   ar
    24    23    24   ar
    25    24    25    1
    26    16    17   ar
    27    17    18   ar
    28     4     5    2
    29    10    11   ar
    30    11    12   ar
    31    12     7   ar
    32     5     1    1
    33    31    27   ar
    34    18    13   ar
    35    24    19   ar
@<TRIPOS>MOLECULE
*****
 31 35 0 0 0
SMALL
GASTEIGER

@<TRIPOS>ATOM
      1 C           3.4521    2.0625   36.1725 C.3     1  UNL1        0.1688
      2 C           4.2472    1.3922   37.2534 C.3     1  UNL1        0.2354
      3 O           4.9783    0.2344   36.6409 O.2     1  UNL1       -0.4580
      4 C           4.6350    0.1892   35.1814 C.2     1  UNL1        0.2207
      5 N           3.6918    1.3190   34.8919 N.2     1  UNL1       -0.2318
      6 F          -0.0835    5.5163   32.7708 F       1  UNL1       -0.2042
      7 C           0.8004    4.6528   33.6212 C.ar    1  UNL1        0.1401
      8 C           1.2337    3.3051   33.1254 C.ar    1  UNL1        0.0294
      9 C           2.1176    2.4416   33.9758 C.ar    1  UNL1        0.0000
     10 C           2.5682    2.9259   35.3221 C.ar    1  UNL1        0.0034
     11 C           2.1349    4.2736   35.8179 C.ar    1  UNL1        0.0000
     12 C           1.2510    5.1371   34.9675 C.ar    1  UNL1        0.0294
     13 C           5.1454   -0.8103   34.1862 C.ar    1  UNL1        0.0528
     14 C           4.3152   -2.0088   33.8338 C.ar    1  UNL1        0.0046
     15 C           4.8255   -3.0084   32.8386 C.ar    1  UNL1        0.0002
     16 C           6.1662   -2.8095   32.1958 C.ar    1  UNL1        0.0022
     17 C           6.9964   -1.6109   32.5483 C.ar    1  UNL1        0.0002
     18 C           6.4861   -0.6113   33.5435 C.ar    1  UNL1        0.0046
     19 C           6.6766   -3.8090   31.2006 C.ar    1  UNL1        0.0275
     20 C           7.1768   -5.1438   31.6674 C.ar    1  UNL1        0.0022
     21 C           7.6872   -6.1434   30.6723 C.ar    1  UNL1        0.0001
     22 C           7.6974   -5.8081   29.2103 C.ar    1  UNL1        0.0023
     23 C           7.1972   -4.4732   28.7435 C.ar    1  UNL1        0.0296
     24 C           6.6868   -3.4736   29.7386 C.ar    1  UNL1        0.1401
     25 F           6.1866   -2.1388   29.2718 F       1  UNL1       -0.2042
     26 C           3.0276    2.9864   37.2753 C.3     1  UNL1        0.1595
     27 N           2.1721    2.4738   38.3957 N.ar    1  UNL1       -0.2277
     28 C           2.0765    3.0620   39.7722 C.ar    1  UNL1        0.1973
     29 N           1.1073    2.2347   40.5635 N.ar    1  UNL1       -0.2007
     30 C           0.6039    1.1351   39.6761 C.ar    1  UNL1        0.2210
     31 N           1.2620    1.2829   38.3362 N.ar    1  UNL1       -0.1451
@<TRIPOS>BOND
     1     6     7    1
     2     7     8   ar
     3     8     9   ar
     4     9    10   ar
     5    10     1    1
     6     1    26    1
     7    26    27    1
     8    27    28   ar
     9    28    29   ar
    10    29    30   ar
    11    30    31   ar
    12     1     2    1
    13     2     3    1
    14     3     4    1
    15     4    13    1
    16    13    14   ar
    17    14    15   ar
    18    15    16   ar
    19    16    19    1
    20    19    20   ar
    21    20    21   ar
    22    21    22   ar
    23    22    23   ar
    24    23    24   ar
    25    24    25    1
    26    16    17   ar
    27    17    18   ar
    28     4     5    2
    29    10    11   ar
    30    11    12   ar
    31    12     7   ar
    32     5     1    1
    33    31    27   ar
    34    18    13   ar
    35    24    19   ar
@<TRIPOS>MOLECULE
*****
 31 35 0 0 0
SMALL
GASTEIGER

@<TRIPOS>ATOM
      1 C           4.0149   -2.0401   21.5245 C.3     1  UNL1        0.1688
      2 C           5.0996   -3.0391   21.2503 C.3     1  UNL1        0.2354
      3 O           5.7753   -3.3584   22.5509 O.2     1  UNL1       -0.4580
      4 C           5.1082   -2.5567   23.6289 C.2     1  UNL1        0.2207
      5 N           4.0202   -1.7419   22.9946 N.2     1  UNL1       -0.2318
      6 F          -0.5270    1.8780   21.3861 F       1  UNL1       -0.2042
      7 C           0.6084    0.8985   21.4207 C.ar    1  UNL1        0.1401
      8 C           0.7810   -0.0894   20.3052 C.ar    1  UNL1        0.0294
      9 C           1.9165   -1.0689   20.3399 C.ar    1  UNL1        0.0000
     10 C           2.8794   -1.0606   21.4899 C.ar    1  UNL1        0.0034
     11 C           2.7068   -0.0727   22.6054 C.ar    1  UNL1        0.0000
     12 C           1.5713    0.9068   22.5708 C.ar    1  UNL1        0.0294
     13 C           5.4662   -2.5678   25.0855 C.ar    1  UNL1        0.0528
     14 C           6.6111   -3.4070   25.5700 C.ar    1  UNL1        0.0046
     15 C           6.9692   -3.4182   27.0266 C.ar    1  UNL1        0.0002
     16 C           6.1823   -2.5902   27.9988 C.ar    1  UNL1        0.0022
     17 C           5.0373   -1.7510   27.5143 C.ar    1  UNL1        0.0002
     18 C           4.6792   -1.7397   26.0576 C.ar    1  UNL1        0.0046
     19 C           6.5403   -2.6013   29.4554 C.ar    1  UNL1        0.0275
     20 C           6.8536   -1.3150   30.1605 C.ar    1  UNL1        0.0022
     21 C           7.2116   -1.3260   31.6171 C.ar    1  UNL1        0.0001
     22 C           7.2564   -2.6235   32.3685 C.ar    1  UNL1        0.0023
     23 C           6.9431   -3.9098   31.6634 C.ar    1  UNL1        0.0296
     24 C           6.5851   -3.8988   30.2068 C.ar    1  UNL1        0.1401
     25 F           6.2719   -5.1851   29.5016 F       1  UNL1       -0.2042
     26 C           3.7722   -2.1335   20.0472 C.3     1  UNL1        0.1595
     27 N           4.8823   -1.8324   19.0843 N.ar    1  UNL1       -0.2277
     28 C           5.5147   -2.8067   18.1352 C.ar    1  UNL1        0.1973
     29 N           6.5780   -2.0805   17.3658 N.ar    1  UNL1       -0.2007
     30 C           6.6028   -0.6575   17.8394 C.ar    1  UNL1        0.2210
     31 N           5.5548   -0.5041   18.9016 N.ar    1  UNL1       -0.1451
@<TRIPOS>BOND
     1     6     7    1
     2     7     8   ar
     3     8     9   ar
     4     9    10   ar
     5    10     1    1
     6     1    26    1
     7    26    27    1
     8    27    28   ar
     9    28    29   ar
    10    29    30   ar
    11    30    31   ar
    12     1     2    1
    13     2     3    1
    14     3     4    1
    15     4    13    1
    16    13    14   ar
    17    14    15   ar
    18    15    16   ar
    19    16    19    1
    20    19    20   ar
    21    20    21   ar
    22    21    22   ar
    23    22    23   ar
    24    23    24   ar
    25    24    25    1
    26    16    17   ar
    27    17    18   ar
    28     4     5    2
    29    10    11   ar
    30    11    12   ar
    31    12     7   ar
    32     5     1    1
    33    31    27   ar
    34    18    13   ar
    35    24    19   ar
@<TRIPOS>MOLECULE
*****
 31 35 0 0 0
SMALL
GASTEIGER

@<TRIPOS>ATOM
      1 C           6.6862   -2.1103   29.4821 C.3     1  UNL1        0.1688
      2 C           6.1017   -0.7535   29.2227 C.3     1  UNL1        0.2354
      3 O           5.6746   -0.6999   27.7857 O.2     1  UNL1       -0.4580
      4 C           5.9951   -2.0236   27.1572 C.2     1  UNL1        0.2207
      5 N           6.6204   -2.8953   28.2056 N.2     1  UNL1       -0.2318
      6 F           9.1889   -7.0993   31.6838 F       1  UNL1       -0.2042
      7 C           8.5632   -5.8520   31.1333 C.ar    1  UNL1        0.1401
      8 C           9.2072   -4.5194   31.3771 C.ar    1  UNL1        0.0294
      9 C           8.5815   -3.2722   30.8267 C.ar    1  UNL1        0.0000
     10 C           7.3119   -3.3576   30.0325 C.ar    1  UNL1        0.0034
     11 C           6.6679   -4.6901   29.7887 C.ar    1  UNL1        0.0000
     12 C           7.2936   -5.9374   30.3392 C.ar    1  UNL1        0.0294
     13 C           5.7359   -2.4080   25.7306 C.ar    1  UNL1        0.0528
     14 C           4.6940   -1.6792   24.9349 C.ar    1  UNL1        0.0046
     15 C           4.4347   -2.0635   23.5084 C.ar    1  UNL1        0.0002
     16 C           5.2174   -3.1769   22.8775 C.ar    1  UNL1        0.0022
     17 C           6.2593   -3.9057   23.6732 C.ar    1  UNL1        0.0002
     18 C           6.5186   -3.5214   25.0998 C.ar    1  UNL1        0.0046
     19 C           4.9582   -3.5613   21.4510 C.ar    1  UNL1        0.0275
     20 C           3.9147   -4.5897   21.1291 C.ar    1  UNL1        0.0022
     21 C           3.6554   -4.9742   19.7027 C.ar    1  UNL1        0.0001
     22 C           4.4397   -4.3303   18.5980 C.ar    1  UNL1        0.0023
     23 C           5.4832   -3.3019   18.9198 C.ar    1  UNL1        0.0296
     24 C           5.7425   -2.9174   20.3463 C.ar    1  UNL1        0.1401
     25 F           6.7860   -1.8891   20.6682 F       1  UNL1       -0.2042
     26 C           6.8829   -1.5861   30.8737 C.3     1  UNL1        0.1595
     27 N           5.7126   -1.4735   31.8052 N.ar    1  UNL1       -0.2277
     28 C           5.0696   -2.6032   32.5537 C.ar    1  UNL1        0.1973
     29 N           3.9393   -2.0392   33.3627 N.ar    1  UNL1       -0.2007
     30 C           3.8838   -0.5610   33.1142 C.ar    1  UNL1        0.2210
     31 N           4.9798   -0.2113   32.1516 N.ar    1  UNL1       -0.1451
@<TRIPOS>BOND
     1     6     7    1
     2     7     8   ar
     3     8     9   ar
     4     9    10   ar
     5    10     1    1
     6     1    26    1
     7    26    27    1
     8    27    28   ar
     9    28    29   ar
    10    29    30   ar
    11    30    31   ar
    12     1     2    1
    13     2     3    1
    14     3     4    1
    15     4    13    1
    16    13    14   ar
    17    14    15   ar
    18    15    16   ar
    19    16    19    1
    20    19    20   ar
    21    20    21   ar
    22    21    22   ar
    23    22    23   ar
    24    23    24   ar
    25    24    25    1
    26    16    17   ar
    27    17    18   ar
    28     4     5    2
    29    10    11   ar
    30    11    12   ar
    31    12     7   ar
    32     5     1    1
    33    31    27   ar
    34    18    13   ar
    35    24    19   ar
@<TRIPOS>MOLECULE
*****
 31 35 0 0 0
SMALL
GASTEIGER

@<TRIPOS>ATOM
      1 C           4.1571   -2.4216   20.8392 C.3     1  UNL1        0.1688
      2 C           5.1241   -3.4466   20.3253 C.3     1  UNL1        0.2354
      3 O           5.8891   -3.9900   21.4956 O.2     1  UNL1       -0.4580
      4 C           5.3948   -3.3008   22.7328 C.2     1  UNL1        0.2207
      5 N           4.3244   -2.3314   22.3272 N.2     1  UNL1       -0.2318
      6 F          -0.0341    1.7872   21.6878 F       1  UNL1       -0.2042
      7 C           1.0137    0.7350   21.4756 C.ar    1  UNL1        0.1401
      8 C           0.8760   -0.2439   20.3475 C.ar    1  UNL1        0.0294
      9 C           1.9238   -1.2961   20.1353 C.ar    1  UNL1        0.0000
     10 C           3.1093   -1.3694   21.0514 C.ar    1  UNL1        0.0034
     11 C           3.2470   -0.3905   22.1795 C.ar    1  UNL1        0.0000
     12 C           2.1992    0.6617   22.3917 C.ar    1  UNL1        0.0294
     13 C           5.8850   -3.5391   24.1303 C.ar    1  UNL1        0.0528
     14 C           5.6409   -2.5121   25.1960 C.ar    1  UNL1        0.0046
     15 C           6.1310   -2.7503   26.5935 C.ar    1  UNL1        0.0002
     16 C           6.8652   -4.0156   26.9253 C.ar    1  UNL1        0.0022
     17 C           7.1093   -5.0425   25.8596 C.ar    1  UNL1        0.0002
     18 C           6.6192   -4.8043   24.4620 C.ar    1  UNL1        0.0046
     19 C           7.3554   -4.2539   28.3228 C.ar    1  UNL1        0.0275
     20 C           6.6793   -5.2732   29.1911 C.ar    1  UNL1        0.0022
     21 C           7.1694   -5.5116   30.5886 C.ar    1  UNL1        0.0001
     22 C           8.3356   -4.7306   31.1177 C.ar    1  UNL1        0.0023
     23 C           9.0116   -3.7112   30.2495 C.ar    1  UNL1        0.0296
     24 C           8.5215   -3.4729   28.8520 C.ar    1  UNL1        0.1401
     25 F           9.1976   -2.4536   27.9837 F       1  UNL1       -0.2042
     26 C           3.7707   -2.2917   19.3956 C.3     1  UNL1        0.1595
     27 N           4.5697   -1.4105   18.4817 N.ar    1  UNL1       -0.2277
     28 C           4.1600   -0.9600   17.1109 C.ar    1  UNL1        0.1973
     29 N           5.2557   -0.0962   16.5602 N.ar    1  UNL1       -0.2007
     30 C           6.3425   -0.0128   17.5906 C.ar    1  UNL1        0.2210
     31 N           5.9185   -0.8252   18.7783 N.ar    1  UNL1       -0.1451
@<TRIPOS>BOND
     1     6     7    1
     2     7     8   ar
     3     8     9   ar
     4     9    10   ar
     5    10     1    1
     6     1    26    1
     7    26    27    1
     8    27    28   ar
     9    28    29   ar
    10    29    30   ar
    11    30    31   ar
    12     1     2    1
    13     2     3    1
    14     3     4    1
    15     4    13    1
    16    13    14   ar
    17    14    15   ar
    18    15    16   ar
    19    16    19    1
    20    19    20   ar
    21    20    21   ar
    22    21    22   ar
    23    22    23   ar
    24    23    24   ar
    25    24    25    1
    26    16    17   ar
    27    17    18   ar
    28     4     5    2
    29    10    11   ar
    30    11    12   ar
    31    12     7   ar
    32     5     1    1
    33    31    27   ar
    34    18    13   ar
    35    24    19   ar
