@<TRIPOS>MOLECULE
*****
 16 17 0 0 0
SMALL
GASTEIGER

@<TRIPOS>ATOM
      1 O          -8.4290  -18.9885   19.2040 O.3     1  UNL1       -0.5055
      2 C          -9.0751  -19.3483   20.5091 C.ar    1  UNL1        0.1351
      3 C         -10.5297  -19.7119   20.5508 C.ar    1  UNL1        0.0367
      4 C         -11.1758  -20.0717   21.8558 C.ar    1  UNL1        0.0031
      5 C         -10.3672  -20.0679   23.1192 C.ar    1  UNL1        0.0002
      6 C          -8.9125  -19.7042   23.0775 C.ar    1  UNL1        0.0046
      7 C          -8.2665  -19.3445   21.7724 C.ar    1  UNL1        0.0528
      8 H          -8.9342  -18.9909   18.4148 H       1  UNL1        0.2922
      9 C          -6.8118  -18.9809   21.7308 C.2     1  UNL1        0.1018
     10 N          -5.9022  -19.6396   20.7364 N.2     1  UNL1       -0.2437
     11 C          -4.4476  -19.2760   20.6947 C.ar    1  UNL1        0.0814
     12 C          -3.6201  -19.3494   21.9436 C.ar    1  UNL1        0.0191
     13 C          -2.1654  -18.9858   21.9018 C.ar    1  UNL1        0.0015
     14 C          -1.5382  -18.5489   20.6112 C.ar    1  UNL1        0.0001
     15 C          -2.3658  -18.4755   19.3623 C.ar    1  UNL1        0.0015
     16 C          -3.8204  -18.8391   19.4040 C.ar    1  UNL1        0.0191
@<TRIPOS>BOND
     1     1     2    1
     2     2     3   ar
     3     3     4   ar
     4     4     5   ar
     5     5     6   ar
     6     6     7   ar
     7     7     9    1
     8     9    10    2
     9    10    11    1
    10    11    12   ar
    11    12    13   ar
    12    13    14   ar
    13    14    15   ar
    14    15    16   ar
    15     7     2   ar
    16    16    11   ar
    17     1     8    1
@<TRIPOS>MOLECULE
*****
 16 17 0 0 0
SMALL
GASTEIGER

@<TRIPOS>ATOM
      1 O          -9.3838  -17.4464   20.8652 O.3     1  UNL1       -0.5055
      2 C         -10.0271  -18.0540   22.0764 C.ar    1  UNL1        0.1351
      3 C         -11.3782  -17.5814   22.5247 C.ar    1  UNL1        0.0367
      4 C         -12.0215  -18.1891   23.7359 C.ar    1  UNL1        0.0031
      5 C         -11.3137  -19.2693   24.4987 C.ar    1  UNL1        0.0002
      6 C          -9.9626  -19.7420   24.0504 C.ar    1  UNL1        0.0046
      7 C          -9.3193  -19.1343   22.8392 C.ar    1  UNL1        0.0528
      8 H          -9.8260  -16.7715   20.3887 H       1  UNL1        0.2922
      9 C          -7.9681  -19.6070   22.3909 C.2     1  UNL1        0.1018
     10 N          -6.8535  -18.6212   22.2013 N.2     1  UNL1       -0.2437
     11 C          -5.5024  -19.0937   21.7530 C.ar    1  UNL1        0.0814
     12 C          -5.3744  -19.9391   20.5206 C.ar    1  UNL1        0.0191
     13 C          -4.0231  -20.4117   20.0723 C.ar    1  UNL1        0.0015
     14 C          -2.8000  -20.0389   20.8564 C.ar    1  UNL1        0.0001
     15 C          -2.9280  -19.1936   22.0889 C.ar    1  UNL1        0.0015
     16 C          -4.2791  -18.7210   22.5372 C.ar    1  UNL1        0.0191
@<TRIPOS>BOND
     1     1     2    1
     2     2     3   ar
     3     3     4   ar
     4     4     5   ar
     5     5     6   ar
     6     6     7   ar
     7     7     9    1
     8     9    10    2
     9    10    11    1
    10    11    12   ar
    11    12    13   ar
    12    13    14   ar
    13    14    15   ar
    14    15    16   ar
    15     7     2   ar
    16    16    11   ar
    17     1     8    1
@<TRIPOS>MOLECULE
*****
 16 17 0 0 0
SMALL
GASTEIGER

@<TRIPOS>ATOM
      1 O          -5.6969  -17.5663   22.8605 O.3     1  UNL1       -0.5055
      2 C          -5.2582  -18.6561   21.9278 C.ar    1  UNL1        0.1351
      3 C          -3.8065  -18.8088   21.5829 C.ar    1  UNL1        0.0367
      4 C          -3.3678  -19.8986   20.6502 C.ar    1  UNL1        0.0031
      5 C          -4.3809  -20.8356   20.0624 C.ar    1  UNL1        0.0002
      6 C          -5.8326  -20.6829   20.4073 C.ar    1  UNL1        0.0046
      7 C          -6.2713  -19.5931   21.3400 C.ar    1  UNL1        0.0528
      8 H          -5.0641  -16.9810   23.2277 H       1  UNL1        0.2922
      9 C          -7.7232  -19.4404   21.6849 C.2     1  UNL1        0.1018
     10 N          -8.4225  -18.1388   21.4265 N.2     1  UNL1       -0.2437
     11 C          -9.8743  -17.9860   21.7714 C.ar    1  UNL1        0.0814
     12 C         -10.8599  -17.5942   20.7107 C.ar    1  UNL1        0.0191
     13 C         -12.3118  -17.4415   21.0556 C.ar    1  UNL1        0.0015
     14 C         -12.7779  -17.6806   22.4611 C.ar    1  UNL1        0.0001
     15 C         -11.7923  -18.0724   23.5218 C.ar    1  UNL1        0.0015
     16 C         -10.3405  -18.2251   23.1770 C.ar    1  UNL1        0.0191
@<TRIPOS>BOND
     1     1     2    1
     2     2     3   ar
     3     3     4   ar
     4     4     5   ar
     5     5     6   ar
     6     6     7   ar
     7     7     9    1
     8     9    10    2
     9    10    11    1
    10    11    12   ar
    11    12    13   ar
    12    13    14   ar
    13    14    15   ar
    14    15    16   ar
    15     7     2   ar
    16    16    11   ar
    17     1     8    1
@<TRIPOS>MOLECULE
*****
 16 17 0 0 0
SMALL
GASTEIGER

@<TRIPOS>ATOM
      1 O          -9.5593  -19.1513   24.4675 O.3     1  UNL1       -0.5055
      2 C         -10.5650  -18.7198   23.4418 C.ar    1  UNL1        0.1351
      3 C         -11.9204  -18.2444   23.8740 C.ar    1  UNL1        0.0367
      4 C         -12.9262  -17.8129   22.8483 C.ar    1  UNL1        0.0031
      5 C         -12.5766  -17.8568   21.3903 C.ar    1  UNL1        0.0002
      6 C         -11.2212  -18.3322   20.9580 C.ar    1  UNL1        0.0046
      7 C         -10.2155  -18.7637   21.9838 C.ar    1  UNL1        0.0528
      8 H          -9.7776  -19.1239   25.3783 H       1  UNL1        0.2922
      9 C          -8.8600  -19.2391   21.5515 C.2     1  UNL1        0.1018
     10 N          -7.6261  -18.6377   22.1563 N.2     1  UNL1       -0.2437
     11 C          -6.2708  -19.1130   21.7240 C.ar    1  UNL1        0.0814
     12 C          -5.0485  -18.6804   22.4782 C.ar    1  UNL1        0.0191
     13 C          -3.6930  -19.1558   22.0459 C.ar    1  UNL1        0.0015
     14 C          -3.5599  -20.0638   20.8594 C.ar    1  UNL1        0.0001
     15 C          -4.7822  -20.4965   20.1052 C.ar    1  UNL1        0.0015
     16 C          -6.1376  -20.0211   20.5375 C.ar    1  UNL1        0.0191
@<TRIPOS>BOND
     1     1     2    1
     2     2     3   ar
     3     3     4   ar
     4     4     5   ar
     5     5     6   ar
     6     6     7   ar
     7     7     9    1
     8     9    10    2
     9    10    11    1
    10    11    12   ar
    11    12    13   ar
    12    13    14   ar
    13    14    15   ar
    14    15    16   ar
    15     7     2   ar
    16    16    11   ar
    17     1     8    1
@<TRIPOS>MOLECULE
*****
 16 17 0 0 0
SMALL
GASTEIGER

@<TRIPOS>ATOM
      1 O         -11.2304  -18.4863   24.8453 O.3     1  UNL1       -0.5055
      2 C         -11.6578  -17.9106   23.5278 C.ar    1  UNL1        0.1351
      3 C         -13.0163  -18.2272   22.9763 C.ar    1  UNL1        0.0367
      4 C         -13.4437  -17.6515   21.6588 C.ar    1  UNL1        0.0031
      5 C         -12.5126  -16.7591   20.8928 C.ar    1  UNL1        0.0002
      6 C         -11.1542  -16.4425   21.4443 C.ar    1  UNL1        0.0046
      7 C         -10.7268  -17.0182   22.7618 C.ar    1  UNL1        0.0528
      8 H         -11.8120  -19.0438   25.3238 H       1  UNL1        0.2922
      9 C          -9.3682  -16.7016   23.3134 C.2     1  UNL1        0.1018
     10 N          -9.2368  -16.0773   24.6709 N.2     1  UNL1       -0.2437
     11 C          -7.8783  -15.7606   25.2225 C.ar    1  UNL1        0.0814
     12 C          -6.7016  -15.6477   24.2991 C.ar    1  UNL1        0.0191
     13 C          -5.3431  -15.3310   24.8507 C.ar    1  UNL1        0.0015
     14 C          -5.1613  -15.1272   26.3256 C.ar    1  UNL1        0.0001
     15 C          -6.3380  -15.2402   27.2490 C.ar    1  UNL1        0.0015
     16 C          -7.6965  -15.5569   26.6975 C.ar    1  UNL1        0.0191
@<TRIPOS>BOND
     1     1     2    1
     2     2     3   ar
     3     3     4   ar
     4     4     5   ar
     5     5     6   ar
     6     6     7   ar
     7     7     9    1
     8     9    10    2
     9    10    11    1
    10    11    12   ar
    11    12    13   ar
    12    13    14   ar
    13    14    15   ar
    14    15    16   ar
    15     7     2   ar
    16    16    11   ar
    17     1     8    1
@<TRIPOS>MOLECULE
*****
 16 17 0 0 0
SMALL
GASTEIGER

@<TRIPOS>ATOM
      1 O          -8.4421  -19.5810   23.2486 O.3     1  UNL1       -0.5055
      2 C          -9.3504  -19.3261   22.0824 C.ar    1  UNL1        0.1351
      3 C         -10.8183  -19.1150   22.3072 C.ar    1  UNL1        0.0367
      4 C         -11.7267  -18.8601   21.1410 C.ar    1  UNL1        0.0031
      5 C         -11.1671  -18.8164   19.7500 C.ar    1  UNL1        0.0002
      6 C          -9.6992  -19.0275   19.5252 C.ar    1  UNL1        0.0046
      7 C          -8.7908  -19.2824   20.6914 C.ar    1  UNL1        0.0528
      8 H          -8.7917  -19.6083   24.1175 H       1  UNL1        0.2922
      9 C          -7.3228  -19.4936   20.4665 C.2     1  UNL1        0.1018
     10 N          -6.3219  -18.6976   21.2504 N.2     1  UNL1       -0.2437
     11 C          -4.8540  -18.9087   21.0256 C.ar    1  UNL1        0.0814
     12 C          -4.2919  -18.8499   19.6361 C.ar    1  UNL1        0.0191
     13 C          -2.8239  -19.0610   19.4113 C.ar    1  UNL1        0.0015
     14 C          -1.9181  -19.3310   20.5760 C.ar    1  UNL1        0.0001
     15 C          -2.4801  -19.3898   21.9655 C.ar    1  UNL1        0.0015
     16 C          -3.9480  -19.1787   22.1903 C.ar    1  UNL1        0.0191
@<TRIPOS>BOND
     1     1     2    1
     2     2     3   ar
     3     3     4   ar
     4     4     5   ar
     5     5     6   ar
     6     6     7   ar
     7     7     9    1
     8     9    10    2
     9    10    11    1
    10    11    12   ar
    11    12    13   ar
    12    13    14   ar
    13    14    15   ar
    14    15    16   ar
    15     7     2   ar
    16    16    11   ar
    17     1     8    1
@<TRIPOS>MOLECULE
*****
 16 17 0 0 0
SMALL
GASTEIGER

@<TRIPOS>ATOM
      1 O         -14.4105   -9.2504   19.0529 O.3     1  UNL1       -0.5055
      2 C         -15.7309   -8.5882   19.3140 C.ar    1  UNL1        0.1351
      3 C         -16.9220   -9.4155   19.6971 C.ar    1  UNL1        0.0367
      4 C         -18.2424   -8.7533   19.9583 C.ar    1  UNL1        0.0031
      5 C         -18.3716   -7.2639   19.8363 C.ar    1  UNL1        0.0002
      6 C         -17.1805   -6.4367   19.4532 C.ar    1  UNL1        0.0046
      7 C         -15.8601   -7.0988   19.1921 C.ar    1  UNL1        0.0528
      8 H         -14.3298  -10.1808   19.1291 H       1  UNL1        0.2922
      9 C         -14.6689   -6.2715   18.8089 C.2     1  UNL1        0.1018
     10 N         -13.3512   -6.4935   19.4902 N.2     1  UNL1       -0.2437
     11 C         -12.1600   -5.6663   19.1071 C.ar    1  UNL1        0.0814
     12 C         -10.8542   -6.3331   18.7906 C.ar    1  UNL1        0.0191
     13 C          -9.6630   -5.5058   18.4075 C.ar    1  UNL1        0.0015
     14 C          -9.7777   -4.0117   18.3410 C.ar    1  UNL1        0.0001
     15 C         -11.0835   -3.3448   18.6574 C.ar    1  UNL1        0.0015
     16 C         -12.2747   -4.1721   19.0405 C.ar    1  UNL1        0.0191
@<TRIPOS>BOND
     1     1     2    1
     2     2     3   ar
     3     3     4   ar
     4     4     5   ar
     5     5     6   ar
     6     6     7   ar
     7     7     9    1
     8     9    10    2
     9    10    11    1
    10    11    12   ar
    11    12    13   ar
    12    13    14   ar
    13    14    15   ar
    14    15    16   ar
    15     7     2   ar
    16    16    11   ar
    17     1     8    1
@<TRIPOS>MOLECULE
*****
 16 17 0 0 0
SMALL
GASTEIGER

@<TRIPOS>ATOM
      1 O         -11.0358   -7.8022   18.8963 O.3     1  UNL1       -0.5055
      2 C         -11.0757   -6.3031   18.8625 C.ar    1  UNL1        0.1351
      3 C          -9.8175   -5.5247   18.6157 C.ar    1  UNL1        0.0367
      4 C          -9.8574   -4.0256   18.5820 C.ar    1  UNL1        0.0031
      5 C         -11.1555   -3.3049   18.7951 C.ar    1  UNL1        0.0002
      6 C         -12.4137   -4.0833   19.0420 C.ar    1  UNL1        0.0046
      7 C         -12.3738   -5.5824   19.0757 C.ar    1  UNL1        0.0528
      8 H         -10.2249   -8.2524   18.7631 H       1  UNL1        0.2922
      9 C         -13.6321   -6.3608   19.3226 C.2     1  UNL1        0.1018
     10 N         -13.9250   -7.5893   18.5133 N.2     1  UNL1       -0.2437
     11 C         -15.1832   -8.3677   18.7601 C.ar    1  UNL1        0.0814
     12 C         -15.3836   -9.6989   18.0985 C.ar    1  UNL1        0.0191
     13 C         -16.6418  -10.4773   18.3454 C.ar    1  UNL1        0.0015
     14 C         -17.6997   -9.9245   19.2539 C.ar    1  UNL1        0.0001
     15 C         -17.4993   -8.5933   19.9155 C.ar    1  UNL1        0.0015
     16 C         -16.2411   -7.8149   19.6687 C.ar    1  UNL1        0.0191
@<TRIPOS>BOND
     1     1     2    1
     2     2     3   ar
     3     3     4   ar
     4     4     5   ar
     5     5     6   ar
     6     6     7   ar
     7     7     9    1
     8     9    10    2
     9    10    11    1
    10    11    12   ar
    11    12    13   ar
    12    13    14   ar
    13    14    15   ar
    14    15    16   ar
    15     7     2   ar
    16    16    11   ar
    17     1     8    1
@<TRIPOS>MOLECULE
*****
 16 17 0 0 0
SMALL
GASTEIGER

@<TRIPOS>ATOM
      1 O         -12.5339   -7.9995   18.9725 O.3     1  UNL1       -0.5055
      2 C         -11.9200   -6.6312   18.9409 C.ar    1  UNL1        0.1351
      3 C         -10.4767   -6.4652   18.5678 C.ar    1  UNL1        0.0367
      4 C          -9.8628   -5.0970   18.5362 C.ar    1  UNL1        0.0031
      5 C         -10.6921   -3.8947   18.8777 C.ar    1  UNL1        0.0002
      6 C         -12.1355   -4.0607   19.2509 C.ar    1  UNL1        0.0046
      7 C         -12.7494   -5.4290   19.2825 C.ar    1  UNL1        0.0528
      8 H         -12.0158   -8.7505   18.7592 H       1  UNL1        0.2922
      9 C         -14.1928   -5.5949   19.6556 C.2     1  UNL1        0.1018
     10 N         -15.0431   -6.5987   18.9349 N.2     1  UNL1       -0.2437
     11 C         -16.4864   -6.7647   19.3080 C.ar    1  UNL1        0.0814
     12 C         -17.4392   -5.6172   19.1479 C.ar    1  UNL1        0.0191
     13 C         -18.8826   -5.7833   19.5210 C.ar    1  UNL1        0.0015
     14 C         -19.3731   -7.0967   20.0542 C.ar    1  UNL1        0.0001
     15 C         -18.4203   -8.2441   20.2143 C.ar    1  UNL1        0.0015
     16 C         -16.9770   -8.0781   19.8412 C.ar    1  UNL1        0.0191
@<TRIPOS>BOND
     1     1     2    1
     2     2     3   ar
     3     3     4   ar
     4     4     5   ar
     5     5     6   ar
     6     6     7   ar
     7     7     9    1
     8     9    10    2
     9    10    11    1
    10    11    12   ar
    11    12    13   ar
    12    13    14   ar
    13    14    15   ar
    14    15    16   ar
    15     7     2   ar
    16    16    11   ar
    17     1     8    1
