@<TRIPOS>MOLECULE
*****
 38 41 0 0 0
SMALL
GASTEIGER

@<TRIPOS>ATOM
      1 C           6.1720   -3.7870   20.4018 C.ar    1  UNK1        0.1512
      2 O           7.0032   -4.6634   21.2911 O.2     1  UNK1       -0.4351
      3 C           8.4311   -4.2184   21.1769 C.ar    1  UNK1        0.2849
      4 N           8.4824   -3.0669   20.2170 N.ar    1  UNK1       -0.1999
      5 C           7.0862   -2.8003   19.7379 C.ar    1  UNK1        0.1681
      6 C           6.6762   -1.7342   18.7657 C.2     1  UNK1        0.2666
      7 O           6.6156   -2.0402   17.2985 O.2     1  UNK1       -0.2684
      8 N           6.3267   -0.3620   19.2607 N.am    2  PHE2       -0.2960
      9 H           6.3664   -0.1612   20.2237 H       2  PHE2        0.1501
     10 CA          5.9167    0.7041   18.2885 C.3     2  PHE2        0.1127
     11 C           6.9572    1.4285   17.4869 C.2     2  PHE2        0.0685
     12 O           7.6701    2.6096   18.0761 O.co2   2  PHE2       -0.5475
     13 OXT         7.2849    0.9720   16.0961 O.co2   2  PHE2       -0.5475
     14 CB          4.4662    1.0459   18.1177 C.3     2  PHE2        0.0516
     15 CG          3.8595    2.1617   18.9157 C.ar    2  PHE2       -0.0201
     16 CD1         2.8474    3.0711   18.2844 C.ar    2  PHE2       -0.0042
     17 CE1         2.2407    4.1870   19.0824 C.ar    2  PHE2       -0.0003
     18 CZ          2.6463    4.3934   20.5117 C.ar    2  PHE2       -0.0000
     19 CE2         3.6584    3.4840   21.1430 C.ar    2  PHE2       -0.0003
     20 CD2         4.2651    2.3682   20.3450 C.ar    2  PHE2       -0.0042
     21 C           4.6873   -3.8808   20.2100 C.3     1  UNK1        0.0926
     22 C           2.0592   -0.3773   21.2438 C.ar    1  UNK1        0.0000
     23 C           1.9627   -1.0132   19.8887 C.ar    1  UNK1       -0.0003
     24 C           2.8387   -2.1810   19.5441 C.ar    1  UNK1       -0.0038
     25 C           3.8113   -2.7130   20.5546 C.ar    1  UNK1       -0.0146
     26 C           3.9078   -2.0771   21.9097 C.ar    1  UNK1       -0.0038
     27 C           3.0318   -0.9092   22.2543 C.ar    1  UNK1       -0.0003
     28 C          -0.5574    2.5841   20.8791 C.ar    1  UNK1        0.0503
     29 C          -0.5689    3.1262   22.2776 C.ar    1  UNK1        0.0147
     30 C           0.2957    2.5004   23.3316 C.ar    1  UNK1        0.0013
     31 C           1.1718    1.3326   22.9870 C.ar    1  UNK1        0.0001
     32 C           1.1832    0.7905   21.5884 C.ar    1  UNK1        0.0012
     33 C           0.3186    1.4163   20.5345 C.ar    1  UNK1        0.0147
     34 C          -3.7650    3.9616   18.9913 C.3     1  UNK1        0.0949
     35 C          -2.9004    3.3359   20.0452 C.2     1  UNK1        0.2266
     36 O          -3.5142    2.8360   21.3194 O.2     1  UNK1       -0.2748
     37 N          -1.4220    3.2099   19.8250 N.am    1  UNK1       -0.2839
     38 H          -1.0192    3.5379   18.9888 H       1  UNK1        0.1549
@<TRIPOS>UNITY_ATOM_ATTR
12 1
charge -1
@<TRIPOS>BOND
     1    34    35    1
     2    35    36    2
     3    35    37   am
     4    37    28    1
     5    28    29   ar
     6    29    30   ar
     7    30    31   ar
     8    31    32   ar
     9    32    22    1
    10    22    23   ar
    11    23    24   ar
    12    24    25   ar
    13    25    21    1
    14    21     1    1
    15     1     2   ar
    16     2     3   ar
    17     3     4   ar
    18     4     5   ar
    19     5     6    1
    20     6     7    2
    21     6     8   am
    22     8    10    1
    23    10    14    1
    24    14    15    1
    25    15    16   ar
    26    16    17   ar
    27    17    18   ar
    28    18    19   ar
    29    19    20   ar
    30    10    11    1
    31    11    12   ar
    32    11    13   ar
    33    25    26   ar
    34    26    27   ar
    35    32    33   ar
    36    33    28   ar
    37    27    22   ar
    38     5     1   ar
    39    20    15   ar
    40    37    38    1
    41     8     9    1
@<TRIPOS>MOLECULE
*****
 38 41 0 0 0
SMALL
GASTEIGER

@<TRIPOS>ATOM
      1 C           6.5174   -3.9041   20.5223 C.ar    1  UNK1        0.1512
      2 O           7.3924   -4.7456   21.4033 O.2     1  UNK1       -0.4351
      3 C           8.8045   -4.2629   21.2511 C.ar    1  UNK1        0.2849
      4 N           8.8022   -3.1231   20.2759 N.ar    1  UNK1       -0.1999
      5 C           7.3887   -2.9014   19.8255 C.ar    1  UNK1        0.1681
      6 C           6.9275   -1.8598   18.8496 C.2     1  UNK1        0.2666
      7 O           6.8595   -2.1811   17.3860 O.2     1  UNK1       -0.2684
      8 N           6.5342   -0.4969   19.3374 N.am    2  PHE2       -0.2960
      9 H           6.5788   -0.2861   20.2980 H       2  PHE2        0.1501
     10 CA          6.0730    0.5447   18.3615 C.3     2  PHE2        0.1127
     11 C           7.0756    1.2959   17.5366 C.2     2  PHE2        0.0685
     12 O           7.3181    0.9026   16.1094 O.co2   2  PHE2       -0.5475
     13 OXT         7.8358    2.4402   18.1388 O.co2   2  PHE2       -0.5475
     14 CB          4.6092    0.8352   18.2105 C.3     2  PHE2        0.0516
     15 CG          3.9811    1.9500   18.9932 C.ar    2  PHE2       -0.0201
     16 CD1         4.5013    2.2945   20.3573 C.ar    2  PHE2       -0.0042
     17 CE1         3.8731    3.4093   21.1401 C.ar    2  PHE2       -0.0003
     18 CZ          2.7249    4.1796   20.5587 C.ar    2  PHE2       -0.0000
     19 CE2         2.2047    3.8351   19.1945 C.ar    2  PHE2       -0.0003
     20 CD2         2.8328    2.7203   18.4118 C.ar    2  PHE2       -0.0042
     21 C           5.0320   -4.0413   20.3655 C.3     1  UNK1        0.0926
     22 C           2.3368   -0.5720   21.3400 C.ar    1  UNK1        0.0000
     23 C           2.2622   -1.2239   19.9912 C.ar    1  UNK1       -0.0003
     24 C           3.1606   -2.3803   19.6664 C.ar    1  UNK1       -0.0038
     25 C           4.1336   -2.8848   20.6904 C.ar    1  UNK1       -0.0146
     26 C           4.2082   -2.2329   22.0392 C.ar    1  UNK1       -0.0038
     27 C           3.3098   -1.0765   22.3640 C.ar    1  UNK1       -0.0003
     28 C           0.7069    2.4797   23.2844 C.ar    1  UNK1        0.0503
     29 C          -0.3585    2.8973   22.3146 C.ar    1  UNK1        0.0147
     30 C          -0.5254    2.1585   21.0199 C.ar    1  UNK1        0.0013
     31 C           0.3730    1.0021   20.6950 C.ar    1  UNK1        0.0001
     32 C           1.4383    0.5845   21.6649 C.ar    1  UNK1        0.0012
     33 C           1.6053    1.3233   22.9595 C.ar    1  UNK1        0.0147
     34 C           0.4279    3.4153   27.1311 C.3     1  UNK1        0.0949
     35 C           0.2610    2.6766   25.8364 C.2     1  UNK1        0.2266
     36 O          -0.5188    1.3957   25.7988 O.2     1  UNK1       -0.2748
     37 N           0.8738    3.2186   24.5791 N.am    1  UNK1       -0.2839
     38 H           1.3856    4.0592   24.6037 H       1  UNK1        0.1549
@<TRIPOS>UNITY_ATOM_ATTR
12 1
charge -1
@<TRIPOS>BOND
     1    34    35    1
     2    35    36    2
     3    35    37   am
     4    37    28    1
     5    28    29   ar
     6    29    30   ar
     7    30    31   ar
     8    31    32   ar
     9    32    22    1
    10    22    23   ar
    11    23    24   ar
    12    24    25   ar
    13    25    21    1
    14    21     1    1
    15     1     2   ar
    16     2     3   ar
    17     3     4   ar
    18     4     5   ar
    19     5     6    1
    20     6     7    2
    21     6     8   am
    22     8    10    1
    23    10    14    1
    24    14    15    1
    25    15    16   ar
    26    16    17   ar
    27    17    18   ar
    28    18    19   ar
    29    19    20   ar
    30    10    11    1
    31    11    12   ar
    32    11    13   ar
    33    25    26   ar
    34    26    27   ar
    35    32    33   ar
    36    33    28   ar
    37    27    22   ar
    38     5     1   ar
    39    20    15   ar
    40    37    38    1
    41     8     9    1
@<TRIPOS>MOLECULE
*****
 38 41 0 0 0
SMALL
GASTEIGER

@<TRIPOS>ATOM
      1 C           5.8936    1.8037   17.9903 C.ar    1  UNK1        0.1512
      2 O           6.8126    2.7339   17.2553 O.2     1  UNK1       -0.4351
      3 C           7.3372    2.0108   16.0503 C.ar    1  UNK1        0.2849
      4 N           6.7424    0.6338   16.0406 N.ar    1  UNK1       -0.1999
      5 C           5.8502    0.5058   17.2396 C.ar    1  UNK1        0.1681
      6 C           5.0544   -0.7071   17.6209 C.2     1  UNK1        0.2666
      7 O           4.0596   -1.2846   16.6581 O.2     1  UNK1       -0.2684
      8 N           5.2533   -1.3426   18.9650 N.am    2  PHE2       -0.2960
      9 H           5.9062   -0.9635   19.5969 H       2  PHE2        0.1501
     10 CA          4.4575   -2.5555   19.3463 C.3     2  PHE2        0.1127
     11 C           5.1043   -3.9089   19.3416 C.2     2  PHE2        0.0685
     12 O           6.0935   -4.2711   20.4095 O.co2   2  PHE2       -0.5475
     13 OXT         4.7619   -4.9000   18.2690 O.co2   2  PHE2       -0.5475
     14 CB          3.0149   -2.4151   19.7323 C.3     2  PHE2        0.0516
     15 CG          2.5811   -1.2814   20.6136 C.ar    2  PHE2       -0.0201
     16 CD1         3.5270   -0.7198   21.6333 C.ar    2  PHE2       -0.0042
     17 CE1         3.0933    0.4139   22.5145 C.ar    2  PHE2       -0.0003
     18 CZ          1.7136    0.9860   22.3760 C.ar    2  PHE2       -0.0000
     19 CE2         0.7677    0.4244   21.3563 C.ar    2  PHE2       -0.0003
     20 CD2         1.2014   -0.7093   20.4751 C.ar    2  PHE2       -0.0042
     21 C           5.1488    2.1166   19.2542 C.3     1  UNK1        0.0926
     22 C           0.7694    3.1385   19.0907 C.ar    1  UNK1        0.0000
     23 C           1.6835    3.8994   20.0048 C.ar    1  UNK1       -0.0003
     24 C           3.1433    3.5587   20.0593 C.ar    1  UNK1       -0.0038
     25 C           3.6890    2.4572   19.1997 C.ar    1  UNK1       -0.0146
     26 C           2.7749    1.6964   18.2856 C.ar    1  UNK1       -0.0038
     27 C           1.3151    2.0371   18.2312 C.ar    1  UNK1       -0.0003
     28 C          -3.0755    3.3287   20.0553 C.ar    1  UNK1        0.0503
     29 C          -3.6099    4.1605   18.9273 C.ar    1  UNK1        0.0147
     30 C          -2.6846    4.6516   17.8538 C.ar    1  UNK1        0.0013
     31 C          -1.2248    4.3110   17.9083 C.ar    1  UNK1        0.0001
     32 C          -0.6904    3.4792   19.0363 C.ar    1  UNK1        0.0012
     33 C          -1.6157    2.9880   20.1098 C.ar    1  UNK1        0.0147
     34 C          -5.0605    3.1124   23.4851 C.3     1  UNK1        0.0949
     35 C          -4.1352    3.6036   22.4115 C.2     1  UNK1        0.2266
     36 O          -3.3442    4.8609   22.6205 O.2     1  UNK1       -0.2748
     37 N          -4.0008    2.8375   21.1289 N.am    1  UNK1       -0.2839
     38 H          -4.5199    2.0123   20.9917 H       1  UNK1        0.1549
@<TRIPOS>UNITY_ATOM_ATTR
12 1
charge -1
@<TRIPOS>BOND
     1    34    35    1
     2    35    36    2
     3    35    37   am
     4    37    28    1
     5    28    29   ar
     6    29    30   ar
     7    30    31   ar
     8    31    32   ar
     9    32    22    1
    10    22    23   ar
    11    23    24   ar
    12    24    25   ar
    13    25    21    1
    14    21     1    1
    15     1     2   ar
    16     2     3   ar
    17     3     4   ar
    18     4     5   ar
    19     5     6    1
    20     6     7    2
    21     6     8   am
    22     8    10    1
    23    10    14    1
    24    14    15    1
    25    15    16   ar
    26    16    17   ar
    27    17    18   ar
    28    18    19   ar
    29    19    20   ar
    30    10    11    1
    31    11    12   ar
    32    11    13   ar
    33    25    26   ar
    34    26    27   ar
    35    32    33   ar
    36    33    28   ar
    37    27    22   ar
    38     5     1   ar
    39    20    15   ar
    40    37    38    1
    41     8     9    1
@<TRIPOS>MOLECULE
*****
 38 41 0 0 0
SMALL
GASTEIGER

@<TRIPOS>ATOM
      1 C           6.0989   -3.6790   20.9801 C.ar    1  UNK1        0.1512
      2 O           6.9476   -4.5208   21.8862 O.2     1  UNK1       -0.4351
      3 C           8.3790   -4.3504   21.4713 C.ar    1  UNK1        0.2849
      4 N           8.4149   -3.4032   20.3086 N.ar    1  UNK1       -0.1999
      5 C           7.0057   -2.9883   20.0051 C.ar    1  UNK1        0.1681
      6 C           6.5784   -2.0478   18.9175 C.2     1  UNK1        0.2666
      7 O           6.7997   -2.4137   17.4798 O.2     1  UNK1       -0.2684
      8 N           5.9297   -0.7415   19.2677 N.am    2  PHE2       -0.2960
      9 H           5.7844   -0.5014   20.2113 H       2  PHE2        0.1501
     10 CA          5.5024    0.1990   18.1801 C.3     2  PHE2        0.1127
     11 C           6.5008    1.1299   17.5584 C.2     2  PHE2        0.0685
     12 O           6.7140    2.4970   18.1381 O.co2   2  PHE2       -0.5475
     13 OXT         7.2861    0.6939   16.3571 O.co2   2  PHE2       -0.5475
     14 CB          4.0766    0.2086   17.7141 C.3     2  PHE2        0.0516
     15 CG          3.0382    0.9607   18.4925 C.ar    2  PHE2       -0.0201
     16 CD1         1.5908    0.5869   18.3682 C.ar    2  PHE2       -0.0042
     17 CE1         0.5524    1.3391   19.1465 C.ar    2  PHE2       -0.0003
     18 CZ          0.9613    2.4650   20.0493 C.ar    2  PHE2       -0.0000
     19 CE2         2.4086    2.8389   20.1736 C.ar    2  PHE2       -0.0003
     20 CD2         3.4471    2.0867   19.3953 C.ar    2  PHE2       -0.0042
     21 C           4.6056   -3.5505   21.0387 C.3     1  UNK1        0.0926
     22 C           2.7251   -0.2219   23.4124 C.ar    1  UNK1        0.0000
     23 C           3.6654   -1.1809   24.0802 C.ar    1  UNK1       -0.0003
     24 C           4.2923   -2.2904   23.2890 C.ar    1  UNK1       -0.0038
     25 C           3.9788   -2.4410   21.8300 C.ar    1  UNK1       -0.0146
     26 C           3.0384   -1.4820   21.1621 C.ar    1  UNK1       -0.0038
     27 C           2.4116   -0.3725   21.9533 C.ar    1  UNK1       -0.0003
     28 C           0.3681    1.6957   25.9652 C.ar    1  UNK1        0.0503
     29 C           0.8446    3.1067   25.7860 C.ar    1  UNK1        0.0147
     30 C           1.9479    3.4081   24.8155 C.ar    1  UNK1        0.0013
     31 C           2.5747    2.2985   24.0243 C.ar    1  UNK1        0.0001
     32 C           2.0983    0.8876   24.2036 C.ar    1  UNK1        0.0012
     33 C           0.9949    0.5862   25.1740 C.ar    1  UNK1        0.0147
     34 C          -1.5679    0.2352   29.1067 C.3     1  UNK1        0.0949
     35 C          -0.4646    0.5367   28.1362 C.2     1  UNK1        0.2266
     36 O           0.9094   -0.0195   28.3663 O.2     1  UNK1       -0.2748
     37 N          -0.7353    1.3943   26.9357 N.am    1  UNK1       -0.2839
     38 H          -1.6370    1.7593   26.7847 H       1  UNK1        0.1549
@<TRIPOS>UNITY_ATOM_ATTR
12 1
charge -1
@<TRIPOS>BOND
     1    34    35    1
     2    35    36    2
     3    35    37   am
     4    37    28    1
     5    28    29   ar
     6    29    30   ar
     7    30    31   ar
     8    31    32   ar
     9    32    22    1
    10    22    23   ar
    11    23    24   ar
    12    24    25   ar
    13    25    21    1
    14    21     1    1
    15     1     2   ar
    16     2     3   ar
    17     3     4   ar
    18     4     5   ar
    19     5     6    1
    20     6     7    2
    21     6     8   am
    22     8    10    1
    23    10    14    1
    24    14    15    1
    25    15    16   ar
    26    16    17   ar
    27    17    18   ar
    28    18    19   ar
    29    19    20   ar
    30    10    11    1
    31    11    12   ar
    32    11    13   ar
    33    25    26   ar
    34    26    27   ar
    35    32    33   ar
    36    33    28   ar
    37    27    22   ar
    38     5     1   ar
    39    20    15   ar
    40    37    38    1
    41     8     9    1
@<TRIPOS>MOLECULE
*****
 38 41 0 0 0
SMALL
GASTEIGER

@<TRIPOS>ATOM
      1 C           3.1170    1.6742   38.6211 C.ar    1  UNK1        0.1512
      2 O           2.3928    1.0124   39.7557 O.2     1  UNK1       -0.4351
      3 C           0.9458    1.3982   39.6699 C.ar    1  UNK1        0.2849
      4 N           0.7757    2.2985   38.4822 N.ar    1  UNK1       -0.1999
      5 C           2.1177    2.4691   37.8340 C.ar    1  UNK1        0.1681
      6 C           2.4090    3.2904   36.6132 C.2     1  UNK1        0.2666
      7 O           3.0739    4.6281   36.7502 O.2     1  UNK1       -0.2684
      8 N           2.0356    2.7741   35.2553 N.am    2  PHE2       -0.2960
      9 H           1.5993    1.8962   35.1653 H       2  PHE2        0.1501
     10 CA          2.3270    3.5954   34.0344 C.3     2  PHE2        0.1127
     11 C           1.3831    4.6854   33.6209 C.2     2  PHE2        0.0685
     12 O           0.0885    4.3405   32.9460 O.co2   2  PHE2       -0.5475
     13 OXT         1.7337    6.1203   33.8822 O.co2   2  PHE2       -0.5475
     14 CB          3.5622    3.3268   33.2270 C.3     2  PHE2        0.0516
     15 CG          3.5483    2.2681   32.1645 C.ar    2  PHE2       -0.0201
     16 CD1         4.2158    2.5207   30.8451 C.ar    2  PHE2       -0.0042
     17 CE1         4.2019    1.4619   29.7827 C.ar    2  PHE2       -0.0003
     18 CZ          3.5205    0.1506   30.0395 C.ar    2  PHE2       -0.0000
     19 CE2         2.8530   -0.1020   31.3589 C.ar    2  PHE2       -0.0003
     20 CD2         2.8669    0.9567   32.4214 C.ar    2  PHE2       -0.0042
     21 C           4.5832    1.5611   38.3254 C.3     1  UNK1        0.0926
     22 C           5.9628    0.3243   34.2246 C.ar    1  UNK1        0.0000
     23 C           6.4045    1.6371   34.8002 C.ar    1  UNK1       -0.0003
     24 C           5.9447    2.0493   36.1672 C.ar    1  UNK1       -0.0038
     25 C           5.0431    1.1488   36.9585 C.ar    1  UNK1       -0.0146
     26 C           4.6014   -0.1640   36.3828 C.ar    1  UNK1       -0.0038
     27 C           5.0612   -0.5762   35.0158 C.ar    1  UNK1       -0.0003
     28 C           6.5919   -1.8829   30.9869 C.ar    1  UNK1        0.0503
     29 C           7.3423   -0.9125   30.1237 C.ar    1  UNK1        0.0147
     30 C           7.6329    0.4702   30.6274 C.ar    1  UNK1        0.0013
     31 C           7.1731    0.8824   31.9944 C.ar    1  UNK1        0.0001
     32 C           6.4226   -0.0880   32.8576 C.ar    1  UNK1        0.0012
     33 C           6.1321   -1.4706   32.3538 C.ar    1  UNK1        0.0147
     34 C           6.9120   -5.7875   30.3534 C.3     1  UNK1        0.0949
     35 C           7.2025   -4.4049   30.8571 C.2     1  UNK1        0.2266
     36 O           8.3944   -4.1614   31.7348 O.2     1  UNK1       -0.2748
     37 N           6.3013   -3.2656   30.4831 N.am    1  UNK1       -0.2839
     38 H           5.5191   -3.4254   29.9071 H       1  UNK1        0.1549
@<TRIPOS>UNITY_ATOM_ATTR
12 1
charge -1
@<TRIPOS>BOND
     1    34    35    1
     2    35    36    2
     3    35    37   am
     4    37    28    1
     5    28    29   ar
     6    29    30   ar
     7    30    31   ar
     8    31    32   ar
     9    32    22    1
    10    22    23   ar
    11    23    24   ar
    12    24    25   ar
    13    25    21    1
    14    21     1    1
    15     1     2   ar
    16     2     3   ar
    17     3     4   ar
    18     4     5   ar
    19     5     6    1
    20     6     7    2
    21     6     8   am
    22     8    10    1
    23    10    14    1
    24    14    15    1
    25    15    16   ar
    26    16    17   ar
    27    17    18   ar
    28    18    19   ar
    29    19    20   ar
    30    10    11    1
    31    11    12   ar
    32    11    13   ar
    33    25    26   ar
    34    26    27   ar
    35    32    33   ar
    36    33    28   ar
    37    27    22   ar
    38     5     1   ar
    39    20    15   ar
    40    37    38    1
    41     8     9    1
@<TRIPOS>MOLECULE
*****
 38 41 0 0 0
SMALL
GASTEIGER

@<TRIPOS>ATOM
      1 C           1.4976    1.1699   27.6740 C.ar    1  UNK1        0.1512
      2 O           1.1487    0.3270   28.8647 O.2     1  UNK1       -0.4351
      3 C          -0.3406    0.3658   29.0396 C.ar    1  UNK1        0.2849
      4 N          -0.9121    1.2326   27.9570 N.ar    1  UNK1       -0.1999
      5 C           0.2240    1.7296   27.1130 C.ar    1  UNK1        0.1681
      6 C           0.1070    2.6284   25.9178 C.2     1  UNK1        0.2666
      7 O           0.3738    4.0981   26.0557 O.2     1  UNK1       -0.2684
      8 N          -0.2769    2.0576   24.5849 N.am    2  PHE2       -0.2960
      9 H          -0.4520    1.0931   24.4944 H       2  PHE2        0.1501
     10 CA         -0.3939    2.9565   23.3897 C.3     2  PHE2        0.1127
     11 C          -1.6799    3.6792   23.1179 C.2     2  PHE2        0.0685
     12 O          -2.4504    3.3929   21.8630 O.co2   2  PHE2       -0.5475
     13 OXT        -2.1954    4.6882   24.1007 O.co2   2  PHE2       -0.5475
     14 CB          0.7750    3.1326   22.4664 C.3     2  PHE2        0.0516
     15 CG          0.8967    2.2790   21.2390 C.ar    2  PHE2       -0.0201
     16 CD1         1.4120    2.8718   19.9612 C.ar    2  PHE2       -0.0042
     17 CE1         1.5337    2.0181   18.7338 C.ar    2  PHE2       -0.0003
     18 CZ          1.1400    0.5716   18.7843 C.ar    2  PHE2       -0.0000
     19 CE2         0.6247   -0.0212   20.0622 C.ar    2  PHE2       -0.0003
     20 CD2         0.5030    0.8324   21.2896 C.ar    2  PHE2       -0.0042
     21 C           2.8778    1.4108   27.1383 C.3     1  UNK1        0.0926
     22 C           3.8194    0.4686   22.8400 C.ar    1  UNK1        0.0000
     23 C           4.1193    1.8305   23.3923 C.ar    1  UNK1       -0.0003
     24 C           3.8054    2.1446   24.8251 C.ar    1  UNK1       -0.0038
     25 C           3.1916    1.0967   25.7055 C.ar    1  UNK1       -0.0146
     26 C           2.8917   -0.2652   25.1532 C.ar    1  UNK1       -0.0038
     27 C           3.2056   -0.5793   23.7204 C.ar    1  UNK1       -0.0003
     28 C           4.1808   -1.5324   19.4318 C.ar    1  UNK1        0.0503
     29 C           4.7609   -0.4737   18.5416 C.ar    1  UNK1        0.0147
     30 C           5.0271    0.8991   19.0842 C.ar    1  UNK1        0.0013
     31 C           4.7133    1.2132   20.5170 C.ar    1  UNK1        0.0001
     32 C           4.1332    0.1545   21.4072 C.ar    1  UNK1        0.0012
     33 C           3.8670   -1.2184   20.8646 C.ar    1  UNK1        0.0147
     34 C           4.5840   -5.4059   18.6677 C.3     1  UNK1        0.0949
     35 C           4.8502   -4.0330   19.2102 C.2     1  UNK1        0.2266
     36 O           6.0520   -3.7878   20.0737 O.2     1  UNK1       -0.2748
     37 N           3.9146   -2.9054   18.8893 N.am    1  UNK1       -0.2839
     38 H           3.1258   -3.0663   18.3226 H       1  UNK1        0.1549
@<TRIPOS>UNITY_ATOM_ATTR
12 1
charge -1
@<TRIPOS>BOND
     1    34    35    1
     2    35    36    2
     3    35    37   am
     4    37    28    1
     5    28    29   ar
     6    29    30   ar
     7    30    31   ar
     8    31    32   ar
     9    32    22    1
    10    22    23   ar
    11    23    24   ar
    12    24    25   ar
    13    25    21    1
    14    21     1    1
    15     1     2   ar
    16     2     3   ar
    17     3     4   ar
    18     4     5   ar
    19     5     6    1
    20     6     7    2
    21     6     8   am
    22     8    10    1
    23    10    14    1
    24    14    15    1
    25    15    16   ar
    26    16    17   ar
    27    17    18   ar
    28    18    19   ar
    29    19    20   ar
    30    10    11    1
    31    11    12   ar
    32    11    13   ar
    33    25    26   ar
    34    26    27   ar
    35    32    33   ar
    36    33    28   ar
    37    27    22   ar
    38     5     1   ar
    39    20    15   ar
    40    37    38    1
    41     8     9    1
@<TRIPOS>MOLECULE
*****
 38 41 0 0 0
SMALL
GASTEIGER

@<TRIPOS>ATOM
      1 C           1.8249    1.0305   27.2264 C.ar    1  UNK1        0.1512
      2 O           1.6251    0.1515   28.4252 O.2     1  UNK1       -0.4351
      3 C           0.1702    0.1868   28.7886 C.ar    1  UNK1        0.2849
      4 N          -0.5292    1.0878   27.8143 N.ar    1  UNK1       -0.1999
      5 C           0.4935    1.6092   26.8488 C.ar    1  UNK1        0.1681
      6 C           0.2309    2.5450   25.7063 C.2     1  UNK1        0.2666
      7 O           0.3946    4.0240   25.8955 O.2     1  UNK1       -0.2684
      8 N          -0.1954    2.0018   24.3747 N.am    2  PHE2       -0.2960
      9 H          -0.3029    1.0311   24.2506 H       2  PHE2        0.1501
     10 CA         -0.4581    2.9376   23.2323 C.3     2  PHE2        0.1127
     11 C          -1.8092    3.5702   23.0763 C.2     2  PHE2        0.0685
     12 O          -2.6467    3.2624   21.8704 O.co2   2  PHE2       -0.5475
     13 OXT        -2.3229    4.5104   24.1260 O.co2   2  PHE2       -0.5475
     14 CB          0.6304    3.2409   22.2458 C.3     2  PHE2        0.0516
     15 CG          0.8073    2.3745   21.0341 C.ar    2  PHE2       -0.0201
     16 CD1         1.4060    2.9471   19.7836 C.ar    2  PHE2       -0.0042
     17 CE1         1.5830    2.0807   18.5720 C.ar    2  PHE2       -0.0003
     18 CZ          1.1611    0.6417   18.6109 C.ar    2  PHE2       -0.0000
     19 CE2         0.5624    0.0692   19.8614 C.ar    2  PHE2       -0.0003
     20 CD2         0.3855    0.9356   21.0730 C.ar    2  PHE2       -0.0042
     21 C           3.1274    1.2861   26.5278 C.3     1  UNK1        0.0926
     22 C           3.7251   -0.1225   22.2959 C.ar    1  UNK1        0.0000
     23 C           3.8149    1.3394   22.6195 C.ar    1  UNK1       -0.0003
     24 C           3.6156    1.8089   24.0302 C.ar    1  UNK1       -0.0038
     25 C           3.3267    0.8166   25.1172 C.ar    1  UNK1       -0.0146
     26 C           3.2369   -0.6453   24.7936 C.ar    1  UNK1       -0.0038
     27 C           3.4362   -1.1148   23.3829 C.ar    1  UNK1       -0.0003
     28 C           4.7564   -0.1518   18.4638 C.ar    1  UNK1        0.0503
     29 C           4.3229   -1.5310   18.0641 C.ar    1  UNK1        0.0147
     30 C           3.6901   -2.4407   19.0750 C.ar    1  UNK1        0.0013
     31 C           3.4908   -1.9712   20.4856 C.ar    1  UNK1        0.0001
     32 C           3.9244   -0.5920   20.8853 C.ar    1  UNK1        0.0012
     33 C           4.5572    0.3177   19.8744 C.ar    1  UNK1        0.0147
     34 C           7.4819    1.5351   16.1237 C.3     1  UNK1        0.0949
     35 C           6.8491    0.6254   17.1345 C.2     1  UNK1        0.2266
     36 O           7.6761   -0.4170   17.8272 O.2     1  UNK1       -0.2748
     37 N           5.3893    0.7580   17.4528 N.am    1  UNK1       -0.2839
     38 H           4.8465    1.4420   16.9982 H       1  UNK1        0.1549
@<TRIPOS>UNITY_ATOM_ATTR
12 1
charge -1
@<TRIPOS>BOND
     1    34    35    1
     2    35    36    2
     3    35    37   am
     4    37    28    1
     5    28    29   ar
     6    29    30   ar
     7    30    31   ar
     8    31    32   ar
     9    32    22    1
    10    22    23   ar
    11    23    24   ar
    12    24    25   ar
    13    25    21    1
    14    21     1    1
    15     1     2   ar
    16     2     3   ar
    17     3     4   ar
    18     4     5   ar
    19     5     6    1
    20     6     7    2
    21     6     8   am
    22     8    10    1
    23    10    14    1
    24    14    15    1
    25    15    16   ar
    26    16    17   ar
    27    17    18   ar
    28    18    19   ar
    29    19    20   ar
    30    10    11    1
    31    11    12   ar
    32    11    13   ar
    33    25    26   ar
    34    26    27   ar
    35    32    33   ar
    36    33    28   ar
    37    27    22   ar
    38     5     1   ar
    39    20    15   ar
    40    37    38    1
    41     8     9    1
@<TRIPOS>MOLECULE
*****
 38 41 0 0 0
SMALL
GASTEIGER

@<TRIPOS>ATOM
      1 C           8.5791   -7.7043   26.7385 C.ar    1  UNK1        0.1512
      2 O           9.1281   -6.3954   27.2236 O.2     1  UNK1       -0.4351
      3 C           9.5305   -6.5649   28.6586 C.ar    1  UNK1        0.2849
      4 N           9.2303   -7.9786   29.0604 N.ar    1  UNK1       -0.1999
      5 C           8.6423   -8.6828   27.8737 C.ar    1  UNK1        0.1681
      6 C           8.1958  -10.1141   27.8298 C.2     1  UNK1        0.2666
      7 O           9.1944  -11.2037   27.5735 O.2     1  UNK1       -0.2684
      8 N           6.7508  -10.4558   28.0423 N.am    2  PHE2       -0.2960
      9 H           6.0955   -9.7407   28.2105 H       2  PHE2        0.1501
     10 CA          6.3044  -11.8872   27.9985 C.3     2  PHE2        0.1127
     11 C           7.0559  -12.9312   28.7700 C.2     2  PHE2        0.0685
     12 O           6.5931  -13.3292   30.1403 O.co2   2  PHE2       -0.5475
     13 OXT         8.2701  -13.5772   28.1714 O.co2   2  PHE2       -0.5475
     14 CB          5.1065  -12.2746   27.1831 C.3     2  PHE2        0.0516
     15 CG          3.9265  -12.9226   27.8447 C.ar    2  PHE2       -0.0201
     16 CD1         3.4495  -14.2661   27.3784 C.ar    2  PHE2       -0.0042
     17 CE1         2.2695  -14.9141   28.0400 C.ar    2  PHE2       -0.0003
     18 CZ          1.5666  -14.2186   29.1679 C.ar    2  PHE2       -0.0000
     19 CE2         2.0437  -12.8751   29.6342 C.ar    2  PHE2       -0.0003
     20 CD2         3.2236  -12.2271   28.9726 C.ar    2  PHE2       -0.0042
     21 C           8.0585   -7.9854   25.3601 C.3     1  UNK1        0.0926
     22 C           8.1917   -4.7776   22.2070 C.ar    1  UNK1        0.0000
     23 C           7.4501   -4.5390   23.4888 C.ar    1  UNK1       -0.0003
     24 C           7.4057   -5.6082   24.5398 C.ar    1  UNK1       -0.0038
     25 C           8.1029   -6.9161   24.3091 C.ar    1  UNK1       -0.0146
     26 C           8.8445   -7.1548   23.0273 C.ar    1  UNK1       -0.0038
     27 C           8.8889   -6.0855   21.9762 C.ar    1  UNK1       -0.0003
     28 C           7.0696   -1.7933   19.8437 C.ar    1  UNK1        0.0503
     29 C           8.3250   -1.5698   19.0538 C.ar    1  UNK1        0.0147
     30 C           9.5360   -2.4156   19.3150 C.ar    1  UNK1        0.0013
     31 C           9.4915   -3.4849   20.3660 C.ar    1  UNK1        0.0001
     32 C           8.2362   -3.7084   21.1559 C.ar    1  UNK1        0.0012
     33 C           7.0252   -2.8626   20.8948 C.ar    1  UNK1        0.0147
     34 C           3.7806   -0.3811   18.1297 C.3     1  UNK1        0.0949
     35 C           4.9916   -1.2268   18.3909 C.2     1  UNK1        0.2266
     36 O           5.3356   -2.3518   17.4602 O.2     1  UNK1       -0.2748
     37 N           5.8586   -0.9476   19.5826 N.am    1  UNK1       -0.2839
     38 H           5.6328   -0.2092   20.1934 H       1  UNK1        0.1549
@<TRIPOS>UNITY_ATOM_ATTR
12 1
charge -1
@<TRIPOS>BOND
     1    34    35    1
     2    35    36    2
     3    35    37   am
     4    37    28    1
     5    28    29   ar
     6    29    30   ar
     7    30    31   ar
     8    31    32   ar
     9    32    22    1
    10    22    23   ar
    11    23    24   ar
    12    24    25   ar
    13    25    21    1
    14    21     1    1
    15     1     2   ar
    16     2     3   ar
    17     3     4   ar
    18     4     5   ar
    19     5     6    1
    20     6     7    2
    21     6     8   am
    22     8    10    1
    23    10    14    1
    24    14    15    1
    25    15    16   ar
    26    16    17   ar
    27    17    18   ar
    28    18    19   ar
    29    19    20   ar
    30    10    11    1
    31    11    12   ar
    32    11    13   ar
    33    25    26   ar
    34    26    27   ar
    35    32    33   ar
    36    33    28   ar
    37    27    22   ar
    38     5     1   ar
    39    20    15   ar
    40    37    38    1
    41     8     9    1
@<TRIPOS>MOLECULE
*****
 38 41 0 0 0
SMALL
GASTEIGER

@<TRIPOS>ATOM
      1 C           0.0021    1.4253   27.6397 C.ar    1  UNK1        0.1512
      2 O          -1.4248    1.2015   28.0445 O.2     1  UNK1       -0.4351
      3 C          -1.4555    0.0691   29.0277 C.ar    1  UNK1        0.2849
      4 N          -0.0476   -0.4069   29.2307 N.ar    1  UNK1       -0.1999
      5 C           0.8532    0.4312   28.3728 C.ar    1  UNK1        0.1681
      6 C           2.3436    0.2986   28.2667 C.2     1  UNK1        0.2666
      7 O           3.2283    1.4451   28.6576 O.2     1  UNK1       -0.2684
      8 N           2.9492   -0.9805   27.7696 N.am    2  PHE2       -0.2960
      9 H           2.3685   -1.7330   27.5130 H       2  PHE2        0.1501
     10 CA          4.4395   -1.1131   27.6635 C.3     2  PHE2        0.1127
     11 C           5.2353   -1.5956   28.8399 C.2     2  PHE2        0.0685
     12 O           5.2310   -0.8134   30.1199 O.co2   2  PHE2       -0.5475
     13 OXT         6.0352   -2.8603   28.7364 O.co2   2  PHE2       -0.5475
     14 CB          5.1342   -0.7632   26.3809 C.3     2  PHE2        0.0516
     15 CG          5.2320   -1.7773   25.2800 C.ar    2  PHE2       -0.0201
     16 CD1         6.2976   -2.8320   25.3242 C.ar    2  PHE2       -0.0042
     17 CE1         6.3954   -3.8461   24.2233 C.ar    2  PHE2       -0.0003
     18 CZ          5.4274   -3.8054   23.0781 C.ar    2  PHE2       -0.0000
     19 CE2         4.3618   -2.7507   23.0339 C.ar    2  PHE2       -0.0003
     20 CD2         4.2640   -1.7367   24.1348 C.ar    2  PHE2       -0.0042
     21 C           0.4918    2.4612   26.6718 C.3     1  UNK1        0.0926
     22 C           2.1996    1.2035   22.7029 C.ar    1  UNK1        0.0000
     23 C           3.0971    1.7827   23.7560 C.ar    1  UNK1       -0.0003
     24 C           2.5279    2.2019   25.0789 C.ar    1  UNK1       -0.0038
     25 C           1.0611    2.0420   25.3488 C.ar    1  UNK1       -0.0146
     26 C           0.1635    1.4628   24.2958 C.ar    1  UNK1       -0.0038
     27 C           0.7328    1.0436   22.9728 C.ar    1  UNK1       -0.0003
     28 C           3.2936   -1.0763   19.6443 C.ar    1  UNK1        0.0503
     29 C           3.9074   -0.0542   18.7341 C.ar    1  UNK1        0.0147
     30 C           3.9518    1.3872   19.1468 C.ar    1  UNK1        0.0013
     31 C           3.3826    1.8064   20.4698 C.ar    1  UNK1        0.0001
     32 C           2.7688    0.7843   21.3800 C.ar    1  UNK1        0.0012
     33 C           2.7244   -0.6571   20.9672 C.ar    1  UNK1        0.0147
     34 C           4.4454   -4.7991   18.8926 C.3     1  UNK1        0.0949
     35 C           4.4898   -3.3577   19.3053 C.2     1  UNK1        0.2266
     36 O           5.7749   -2.7561   19.7917 O.2     1  UNK1       -0.2748
     37 N           3.2491   -2.5178   19.2316 N.am    1  UNK1       -0.2839
     38 H           2.4057   -2.9126   18.9123 H       1  UNK1        0.1549
@<TRIPOS>UNITY_ATOM_ATTR
12 1
charge -1
@<TRIPOS>BOND
     1    34    35    1
     2    35    36    2
     3    35    37   am
     4    37    28    1
     5    28    29   ar
     6    29    30   ar
     7    30    31   ar
     8    31    32   ar
     9    32    22    1
    10    22    23   ar
    11    23    24   ar
    12    24    25   ar
    13    25    21    1
    14    21     1    1
    15     1     2   ar
    16     2     3   ar
    17     3     4   ar
    18     4     5   ar
    19     5     6    1
    20     6     7    2
    21     6     8   am
    22     8    10    1
    23    10    14    1
    24    14    15    1
    25    15    16   ar
    26    16    17   ar
    27    17    18   ar
    28    18    19   ar
    29    19    20   ar
    30    10    11    1
    31    11    12   ar
    32    11    13   ar
    33    25    26   ar
    34    26    27   ar
    35    32    33   ar
    36    33    28   ar
    37    27    22   ar
    38     5     1   ar
    39    20    15   ar
    40    37    38    1
    41     8     9    1
