@<TRIPOS>MOLECULE
*****
 26 29 0 0 0
SMALL
GASTEIGER

@<TRIPOS>ATOM
      1 C          -5.9537  -18.9048   20.9223 C.ar    1  UNL1        0.0564
      2 C          -6.7117  -17.9940   21.8420 C.ar    1  UNL1        0.0163
      3 C          -8.1599  -18.3808   21.7875 C.ar    1  UNL1        0.0209
      4 C          -8.2970  -19.5306   20.8341 C.ar    1  UNL1        0.0702
      5 N          -6.9335  -19.8544   20.2993 N.ar    1  UNL1       -0.3522
      6 H          -6.7192  -20.5655   19.6530 H       1  UNL1        0.1660
      7 CL         -0.0408  -18.7723   19.9124 Cl      1  UNL1       -0.0822
      8 C          -1.5190  -18.8054   20.1649 C.ar    1  UNL1        0.0577
      9 C          -2.4773  -18.5158   19.0479 C.ar    1  UNL1        0.0114
     10 C          -3.9555  -18.5489   19.3003 C.ar    1  UNL1        0.0023
     11 C          -4.4755  -18.8716   20.6698 C.ar    1  UNL1        0.0156
     12 C          -3.5172  -19.1613   21.7868 C.ar    1  UNL1        0.0023
     13 C          -2.0389  -19.1282   21.5343 C.ar    1  UNL1        0.0114
     14 C          -9.2753  -17.7317   22.5522 C.3     1  UNL1        0.1336
     15 C          -9.0143  -17.1493   23.9096 C.ar    1  UNL1        0.0026
     16 C          -9.3777  -17.9249   25.1410 C.ar    1  UNL1       -0.0013
     17 C          -9.1167  -17.3426   26.4985 C.ar    1  UNL1        0.0111
     18 C          -8.4923  -15.9845   26.6245 C.ar    1  UNL1        0.0577
     19 CL         -8.2312  -15.4021   27.9820 Cl      1  UNL1       -0.0822
     20 C          -8.1289  -15.2089   25.3932 C.ar    1  UNL1        0.0111
     21 C          -8.3899  -15.7913   24.0357 C.ar    1  UNL1       -0.0013
     22 N         -10.6516  -17.6649   21.9594 N.ar    1  UNL1       -0.3019
     23 C         -11.8755  -18.3484   22.4931 C.ar    1  UNL1        0.0985
     24 C         -13.0259  -18.0089   21.5924 C.ar    1  UNL1        0.1193
     25 N         -12.5130  -17.1156   20.5020 N.ar    1  UNL1       -0.2223
     26 C         -11.0456  -16.9031   20.7288 C.ar    1  UNL1        0.1791
@<TRIPOS>BOND
     1     7     8    1
     2     8     9   ar
     3     9    10   ar
     4    10    11   ar
     5    11     1    1
     6     1     2   ar
     7     2     3   ar
     8     3    14    1
     9    14    15    1
    10    15    16   ar
    11    16    17   ar
    12    17    18   ar
    13    18    19    1
    14    18    20   ar
    15    20    21   ar
    16    14    22    1
    17    22    23   ar
    18    23    24   ar
    19    24    25   ar
    20    25    26   ar
    21     3     4   ar
    22     4     5   ar
    23    11    12   ar
    24    12    13   ar
    25    13     8   ar
    26     5     1   ar
    27    21    15   ar
    28    26    22   ar
    29     5     6    1
@<TRIPOS>MOLECULE
*****
 26 29 0 0 0
SMALL
GASTEIGER

@<TRIPOS>ATOM
      1 C          -6.6814  -19.1033   21.8035 C.ar    1  UNL1        0.0564
      2 C          -7.6720  -18.0084   21.5391 C.ar    1  UNL1        0.0163
      3 C          -9.0076  -18.4574   22.0536 C.ar    1  UNL1        0.0209
      4 C          -8.8424  -19.8298   22.6360 C.ar    1  UNL1        0.0702
      5 N          -7.4048  -20.2290   22.4814 N.ar    1  UNL1       -0.3522
      6 H          -7.0060  -21.0803   22.7736 H       1  UNL1        0.1660
      7 CL         -0.8497  -18.9985   20.3965 Cl      1  UNL1       -0.0822
      8 C          -2.3076  -19.0247   20.7482 C.ar    1  UNL1        0.0577
      9 C          -3.3275  -19.3427   19.6954 C.ar    1  UNL1        0.0114
     10 C          -4.7855  -19.3689   20.0471 C.ar    1  UNL1        0.0023
     11 C          -5.2235  -19.0771   21.4517 C.ar    1  UNL1        0.0156
     12 C          -4.2035  -18.7591   22.5046 C.ar    1  UNL1        0.0023
     13 C          -2.7456  -18.7329   22.1528 C.ar    1  UNL1        0.0114
     14 C         -10.2841  -17.6719   21.9958 C.3     1  UNL1        0.1336
     15 C         -11.3737  -17.9371   22.9921 C.ar    1  UNL1        0.0026
     16 C         -12.7830  -17.5213   22.6907 C.ar    1  UNL1       -0.0013
     17 C         -13.8726  -17.7866   23.6870 C.ar    1  UNL1        0.0111
     18 C         -13.5527  -18.4677   24.9845 C.ar    1  UNL1        0.0577
     19 CL        -14.6423  -18.7331   25.9808 Cl      1  UNL1       -0.0822
     20 C         -12.1435  -18.8836   25.2859 C.ar    1  UNL1        0.0111
     21 C         -11.0539  -18.6183   24.2896 C.ar    1  UNL1       -0.0013
     22 N         -10.4711  -16.6210   20.9419 N.ar    1  UNL1       -0.3019
     23 C          -9.7884  -15.2862   20.8967 C.ar    1  UNL1        0.0985
     24 C         -10.2690  -14.5608   19.6750 C.ar    1  UNL1        0.1193
     25 N         -11.2488  -15.4473   18.9650 N.ar    1  UNL1       -0.2223
     26 C         -11.3737  -16.7206   19.7480 C.ar    1  UNL1        0.1791
@<TRIPOS>BOND
     1     7     8    1
     2     8     9   ar
     3     9    10   ar
     4    10    11   ar
     5    11     1    1
     6     1     2   ar
     7     2     3   ar
     8     3    14    1
     9    14    15    1
    10    15    16   ar
    11    16    17   ar
    12    17    18   ar
    13    18    19    1
    14    18    20   ar
    15    20    21   ar
    16    14    22    1
    17    22    23   ar
    18    23    24   ar
    19    24    25   ar
    20    25    26   ar
    21     3     4   ar
    22     4     5   ar
    23    11    12   ar
    24    12    13   ar
    25    13     8   ar
    26     5     1   ar
    27    21    15   ar
    28    26    22   ar
    29     5     6    1
@<TRIPOS>MOLECULE
*****
 26 29 0 0 0
SMALL
GASTEIGER

@<TRIPOS>ATOM
      1 C           1.4290    1.2910   23.3050 C.ar    1  UNL1        0.0564
      2 C           0.3662    1.0370   24.3325 C.ar    1  UNL1        0.0163
      3 C           0.1332    2.3142   25.0839 C.ar    1  UNL1        0.0209
      4 C           1.0520    3.3575   24.5207 C.ar    1  UNL1        0.0702
      5 N           1.8529    2.7252   23.4213 N.ar    1  UNL1       -0.3522
      6 H           2.5367    3.1729   22.8724 H       1  UNL1        0.1660
      7 CL          3.6032   -2.7245   19.4128 Cl      1  UNL1       -0.0822
      8 C           3.0597   -1.7206   20.3859 C.ar    1  UNL1        0.0577
      9 C           3.6436   -1.6194   21.7638 C.ar    1  UNL1        0.0114
     10 C           3.1001   -0.6155   22.7368 C.ar    1  UNL1        0.0023
     11 C           1.9726    0.2871   22.3319 C.ar    1  UNL1        0.0156
     12 C           1.3887    0.1859   20.9540 C.ar    1  UNL1        0.0023
     13 C           1.9322   -0.8180   19.9810 C.ar    1  UNL1        0.0114
     14 C          -0.8466    2.5130   26.2021 C.3     1  UNL1        0.1336
     15 C          -2.1735    3.1577   25.9308 C.ar    1  UNL1        0.0026
     16 C          -3.0164    3.6478   27.0708 C.ar    1  UNL1       -0.0013
     17 C          -4.3433    4.2924   26.7995 C.ar    1  UNL1        0.0111
     18 C          -4.8274    4.4471   25.3882 C.ar    1  UNL1        0.0577
     19 CL         -6.1544    5.0918   25.1168 Cl      1  UNL1       -0.0822
     20 C          -3.9847    3.9571   24.2482 C.ar    1  UNL1        0.0111
     21 C          -2.6576    3.3123   24.5195 C.ar    1  UNL1       -0.0013
     22 N          -0.4995    2.0672   27.5917 N.ar    1  UNL1       -0.3019
     23 C           0.3749    2.8050   28.5617 C.ar    1  UNL1        0.0985
     24 C           0.4490    1.9991   29.8247 C.ar    1  UNL1        0.1193
     25 N          -0.3797    0.7632   29.6351 N.ar    1  UNL1       -0.2223
     26 C          -0.9659    0.8053   28.2551 C.ar    1  UNL1        0.1791
@<TRIPOS>BOND
     1     7     8    1
     2     8     9   ar
     3     9    10   ar
     4    10    11   ar
     5    11     1    1
     6     1     2   ar
     7     2     3   ar
     8     3    14    1
     9    14    15    1
    10    15    16   ar
    11    16    17   ar
    12    17    18   ar
    13    18    19    1
    14    18    20   ar
    15    20    21   ar
    16    14    22    1
    17    22    23   ar
    18    23    24   ar
    19    24    25   ar
    20    25    26   ar
    21     3     4   ar
    22     4     5   ar
    23    11    12   ar
    24    12    13   ar
    25    13     8   ar
    26     5     1   ar
    27    21    15   ar
    28    26    22   ar
    29     5     6    1
@<TRIPOS>MOLECULE
*****
 26 29 0 0 0
SMALL
GASTEIGER

@<TRIPOS>ATOM
      1 C           0.8192    0.8752   21.9384 C.ar    1  UNL1        0.0564
      2 C           2.2014    0.3292   21.7354 C.ar    1  UNL1        0.0163
      3 C           2.2594   -0.2902   20.3705 C.ar    1  UNL1        0.0209
      4 C           0.9130   -0.1269   19.7298 C.ar    1  UNL1        0.0702
      5 N           0.0229    0.5933   20.6988 N.ar    1  UNL1       -0.3522
      6 H          -0.9187    0.8381   20.5478 H       1  UNL1        0.1660
      7 CL         -1.1745    3.6925   26.8464 Cl      1  UNL1       -0.0822
      8 C          -0.6761    2.9882   25.6194 C.ar    1  UNL1        0.0577
      9 C          -0.9149    3.5838   24.2636 C.ar    1  UNL1        0.0114
     10 C          -0.4165    2.8795   23.0366 C.ar    1  UNL1        0.0023
     11 C           0.3207    1.5796   23.1654 C.ar    1  UNL1        0.0156
     12 C           0.5596    0.9839   24.5211 C.ar    1  UNL1        0.0023
     13 C           0.0611    1.6882   25.7481 C.ar    1  UNL1        0.0114
     14 C           3.4541   -0.9560   19.7544 C.3     1  UNL1        0.1336
     15 C           4.3732   -0.1729   18.8645 C.ar    1  UNL1        0.0026
     16 C           4.2344    1.3176   18.7686 C.ar    1  UNL1       -0.0013
     17 C           5.1535    2.1007   17.8787 C.ar    1  UNL1        0.0111
     18 C           6.2114    1.3933   17.0847 C.ar    1  UNL1        0.0577
     19 CL          7.1306    2.1764   16.1948 Cl      1  UNL1       -0.0822
     20 C           6.3503   -0.0971   17.1806 C.ar    1  UNL1        0.0111
     21 C           5.4311   -0.8803   18.0706 C.ar    1  UNL1       -0.0013
     22 N           3.7296   -2.4048   20.0283 N.ar    1  UNL1       -0.3019
     23 C           3.3187   -3.5593   19.1632 C.ar    1  UNL1        0.0985
     24 C           3.7995   -4.8215   19.8155 C.ar    1  UNL1        0.1193
     25 N           4.5076   -4.4471   21.0838 N.ar    1  UNL1       -0.2223
     26 C           4.4644   -2.9536   21.2153 C.ar    1  UNL1        0.1791
@<TRIPOS>BOND
     1     7     8    1
     2     8     9   ar
     3     9    10   ar
     4    10    11   ar
     5    11     1    1
     6     1     2   ar
     7     2     3   ar
     8     3    14    1
     9    14    15    1
    10    15    16   ar
    11    16    17   ar
    12    17    18   ar
    13    18    19    1
    14    18    20   ar
    15    20    21   ar
    16    14    22    1
    17    22    23   ar
    18    23    24   ar
    19    24    25   ar
    20    25    26   ar
    21     3     4   ar
    22     4     5   ar
    23    11    12   ar
    24    12    13   ar
    25    13     8   ar
    26     5     1   ar
    27    21    15   ar
    28    26    22   ar
    29     5     6    1
@<TRIPOS>MOLECULE
*****
 26 29 0 0 0
SMALL
GASTEIGER

@<TRIPOS>ATOM
      1 C           6.0975   -3.7843   23.8327 C.ar    1  UNL1        0.0564
      2 C           6.0703   -3.3680   22.3918 C.ar    1  UNL1        0.0163
      3 C           5.1048   -2.2281   22.2568 C.ar    1  UNL1        0.0209
      4 C           4.5352   -1.9398   23.6142 C.ar    1  UNL1        0.0702
      5 N           5.1488   -2.9016   24.5881 N.ar    1  UNL1       -0.3522
      6 H           4.9617   -2.9458   25.5537 H       1  UNL1        0.1660
      7 CL          9.4182   -8.2042   26.1646 Cl      1  UNL1       -0.0822
      8 C           8.5880   -7.0992   25.5816 C.ar    1  UNL1        0.0577
      9 C           7.6661   -6.3091   26.4623 C.ar    1  UNL1        0.0114
     10 C           6.8359   -5.2041   25.8793 C.ar    1  UNL1        0.0023
     11 C           6.9277   -4.8893   24.4156 C.ar    1  UNL1        0.0156
     12 C           7.8497   -5.6794   23.5350 C.ar    1  UNL1        0.0023
     13 C           8.6798   -6.7844   24.1179 C.ar    1  UNL1        0.0114
     14 C           4.7679   -1.5036   20.9873 C.3     1  UNL1        0.1336
     15 C           3.4984   -0.7106   20.8906 C.ar    1  UNL1        0.0026
     16 C           2.2876   -1.3097   20.2387 C.ar    1  UNL1       -0.0013
     17 C           1.0181   -0.5167   20.1420 C.ar    1  UNL1        0.0111
     18 C           0.9594    0.8756   20.6972 C.ar    1  UNL1        0.0577
     19 CL         -0.3102    1.6687   20.6005 Cl      1  UNL1       -0.0822
     20 C           2.1701    1.4748   21.3491 C.ar    1  UNL1        0.0111
     21 C           3.4397    0.6817   21.4458 C.ar    1  UNL1       -0.0013
     22 N           5.7006   -1.5722   19.8145 N.ar    1  UNL1       -0.3019
     23 C           6.9651   -0.7831   19.6463 C.ar    1  UNL1        0.0985
     24 C           7.5785   -1.1651   18.3319 C.ar    1  UNL1        0.1193
     25 N           6.6931   -2.1904   17.6877 N.ar    1  UNL1       -0.2223
     26 C           5.5325   -2.4419   18.6040 C.ar    1  UNL1        0.1791
@<TRIPOS>BOND
     1     7     8    1
     2     8     9   ar
     3     9    10   ar
     4    10    11   ar
     5    11     1    1
     6     1     2   ar
     7     2     3   ar
     8     3    14    1
     9    14    15    1
    10    15    16   ar
    11    16    17   ar
    12    17    18   ar
    13    18    19    1
    14    18    20   ar
    15    20    21   ar
    16    14    22    1
    17    22    23   ar
    18    23    24   ar
    19    24    25   ar
    20    25    26   ar
    21     3     4   ar
    22     4     5   ar
    23    11    12   ar
    24    12    13   ar
    25    13     8   ar
    26     5     1   ar
    27    21    15   ar
    28    26    22   ar
    29     5     6    1
@<TRIPOS>MOLECULE
*****
 26 29 0 0 0
SMALL
GASTEIGER

@<TRIPOS>ATOM
      1 C           0.5017    1.4202   22.8511 C.ar    1  UNL1        0.0564
      2 C           0.4406    1.3145   24.3462 C.ar    1  UNL1        0.0163
      3 C          -0.4003    2.4467   24.8570 C.ar    1  UNL1        0.0209
      4 C          -0.8591    3.2521   23.6777 C.ar    1  UNL1        0.0702
      5 N          -0.3016    2.6177   22.4380 N.ar    1  UNL1       -0.3522
      6 H          -0.4389    2.9321   21.5152 H       1  UNL1        0.1660
      7 CL          3.4425   -2.2948   19.1700 Cl      1  UNL1       -0.0822
      8 C           2.7073   -1.3660   20.0903 C.ar    1  UNL1        0.0577
      9 C           1.4098   -0.7514   19.6559 C.ar    1  UNL1        0.0114
     10 C           0.6746    0.1773   20.5762 C.ar    1  UNL1        0.0023
     11 C           1.2369    0.4915   21.9309 C.ar    1  UNL1        0.0156
     12 C           2.5344   -0.1232   22.3652 C.ar    1  UNL1        0.0023
     13 C           3.2696   -1.0519   21.4450 C.ar    1  UNL1        0.0114
     14 C          -0.7255    2.7246   26.2947 C.3     1  UNL1        0.1336
     15 C          -0.0038    1.9865   27.3830 C.ar    1  UNL1        0.0026
     16 C          -0.5642    0.7016   27.9168 C.ar    1  UNL1       -0.0013
     17 C           0.1575   -0.0365   29.0052 C.ar    1  UNL1        0.0111
     18 C           1.4395    0.5104   29.5596 C.ar    1  UNL1        0.0577
     19 CL          2.1612   -0.2277   30.6480 Cl      1  UNL1       -0.0822
     20 C           1.9998    1.7952   29.0259 C.ar    1  UNL1        0.0111
     21 C           1.2781    2.5334   27.9375 C.ar    1  UNL1       -0.0013
     22 N          -1.7722    3.7406   26.6441 N.ar    1  UNL1       -0.3019
     23 C          -1.5183    5.1383   27.1255 C.ar    1  UNL1        0.0985
     24 C          -2.8458    5.7988   27.3524 C.ar    1  UNL1        0.1193
     25 N          -3.9202    4.8093   27.0112 N.ar    1  UNL1       -0.2223
     26 C          -3.2567    3.5372   26.5734 C.ar    1  UNL1        0.1791
@<TRIPOS>BOND
     1     7     8    1
     2     8     9   ar
     3     9    10   ar
     4    10    11   ar
     5    11     1    1
     6     1     2   ar
     7     2     3   ar
     8     3    14    1
     9    14    15    1
    10    15    16   ar
    11    16    17   ar
    12    17    18   ar
    13    18    19    1
    14    18    20   ar
    15    20    21   ar
    16    14    22    1
    17    22    23   ar
    18    23    24   ar
    19    24    25   ar
    20    25    26   ar
    21     3     4   ar
    22     4     5   ar
    23    11    12   ar
    24    12    13   ar
    25    13     8   ar
    26     5     1   ar
    27    21    15   ar
    28    26    22   ar
    29     5     6    1
@<TRIPOS>MOLECULE
*****
 26 29 0 0 0
SMALL
GASTEIGER

@<TRIPOS>ATOM
      1 C           3.7496   -1.2052   24.7338 C.ar    1  UNL1        0.0564
      2 C           3.2282   -0.7652   23.3979 C.ar    1  UNL1        0.0163
      3 C           3.7804   -1.6927   22.3564 C.ar    1  UNL1        0.0209
      4 C           4.6430   -2.7061   23.0485 C.ar    1  UNL1        0.0702
      5 N           4.6240   -2.4048   24.5178 N.ar    1  UNL1       -0.3522
      6 H           5.1015   -2.9063   25.2176 H       1  UNL1        0.1660
      7 CL          2.5486    1.3789   30.0139 Cl      1  UNL1       -0.0822
      8 C           2.8488    0.7328   28.6939 C.ar    1  UNL1        0.0577
      9 C           2.6520    1.5013   27.4208 C.ar    1  UNL1        0.0114
     10 C           2.9523    0.8552   26.1008 C.ar    1  UNL1        0.0023
     11 C           3.4493   -0.5592   26.0538 C.ar    1  UNL1        0.0156
     12 C           3.6461   -1.3276   27.3269 C.ar    1  UNL1        0.0023
     13 C           3.3459   -0.6816   28.6469 C.ar    1  UNL1        0.0114
     14 C           3.5162   -1.6197   20.8816 C.3     1  UNL1        0.1336
     15 C           2.6627   -0.5184   20.3262 C.ar    1  UNL1        0.0026
     16 C           3.3021    0.6549   19.6445 C.ar    1  UNL1       -0.0013
     17 C           2.4485    1.7562   19.0891 C.ar    1  UNL1        0.0111
     18 C           0.9556    1.6843   19.2154 C.ar    1  UNL1        0.0577
     19 CL          0.1020    2.7857   18.6600 Cl      1  UNL1       -0.0822
     20 C           0.3162    0.5112   19.8970 C.ar    1  UNL1        0.0111
     21 C           1.1697   -0.5903   20.4525 C.ar    1  UNL1       -0.0013
     22 N           4.1056   -2.6481   19.9623 N.ar    1  UNL1       -0.3019
     23 C           3.6706   -4.0787   19.8451 C.ar    1  UNL1        0.0985
     24 C           4.5296   -4.7412   18.8091 C.ar    1  UNL1        0.1193
     25 N           5.4956   -3.7198   18.2860 N.ar    1  UNL1       -0.2223
     26 C           5.2336   -2.4262   18.9987 C.ar    1  UNL1        0.1791
@<TRIPOS>BOND
     1     7     8    1
     2     8     9   ar
     3     9    10   ar
     4    10    11   ar
     5    11     1    1
     6     1     2   ar
     7     2     3   ar
     8     3    14    1
     9    14    15    1
    10    15    16   ar
    11    16    17   ar
    12    17    18   ar
    13    18    19    1
    14    18    20   ar
    15    20    21   ar
    16    14    22    1
    17    22    23   ar
    18    23    24   ar
    19    24    25   ar
    20    25    26   ar
    21     3     4   ar
    22     4     5   ar
    23    11    12   ar
    24    12    13   ar
    25    13     8   ar
    26     5     1   ar
    27    21    15   ar
    28    26    22   ar
    29     5     6    1
@<TRIPOS>MOLECULE
*****
 26 29 0 0 0
SMALL
GASTEIGER

@<TRIPOS>ATOM
      1 C           6.7739   -4.7170   30.2406 C.ar    1  UNL1        0.0564
      2 C           6.3497   -3.2782   30.2503 C.ar    1  UNL1        0.0163
      3 C           6.0882   -2.8816   31.6731 C.ar    1  UNL1        0.0209
      4 C           6.3508   -4.0752   32.5428 C.ar    1  UNL1        0.0702
      5 N           6.7746   -5.2095   31.6575 N.ar    1  UNL1       -0.3522
      6 H           7.0116   -6.1178   31.9542 H       1  UNL1        0.1660
      7 CL          8.2149   -7.9364   25.3869 Cl      1  UNL1       -0.0822
      8 C           7.8547   -7.1315   26.6003 C.ar    1  UNL1        0.0577
      9 C           6.8191   -6.0507   26.5031 C.ar    1  UNL1        0.0114
     10 C           6.4589   -5.2459   27.7166 C.ar    1  UNL1        0.0023
     11 C           7.1342   -5.5218   29.0272 C.ar    1  UNL1        0.0156
     12 C           8.1697   -6.6026   29.1244 C.ar    1  UNL1        0.0023
     13 C           8.5300   -7.4075   27.9110 C.ar    1  UNL1        0.0114
     14 C           5.6424   -1.5289   32.1436 C.3     1  UNL1        0.1336
     15 C           6.1258   -0.9956   33.4596 C.ar    1  UNL1        0.0026
     16 C           7.5629   -0.5991   33.6259 C.ar    1  UNL1       -0.0013
     17 C           8.0463   -0.0659   34.9419 C.ar    1  UNL1        0.0111
     18 C           7.0927    0.0708   36.0916 C.ar    1  UNL1        0.0577
     19 CL          7.5762    0.6041   37.4077 Cl      1  UNL1       -0.0822
     20 C           5.6557   -0.3256   35.9254 C.ar    1  UNL1        0.0111
     21 C           5.1722   -0.8589   34.6093 C.ar    1  UNL1       -0.0013
     22 N           4.7131   -0.7094   31.2981 N.ar    1  UNL1       -0.3019
     23 C           3.2144   -0.7622   31.3298 C.ar    1  UNL1        0.0985
     24 C           2.6944    0.2213   30.3238 C.ar    1  UNL1        0.1193
     25 N           3.8718    0.8820   29.6701 N.ar    1  UNL1       -0.2223
     26 C           5.1194    0.3068   30.2723 C.ar    1  UNL1        0.1791
@<TRIPOS>BOND
     1     7     8    1
     2     8     9   ar
     3     9    10   ar
     4    10    11   ar
     5    11     1    1
     6     1     2   ar
     7     2     3   ar
     8     3    14    1
     9    14    15    1
    10    15    16   ar
    11    16    17   ar
    12    17    18   ar
    13    18    19    1
    14    18    20   ar
    15    20    21   ar
    16    14    22    1
    17    22    23   ar
    18    23    24   ar
    19    24    25   ar
    20    25    26   ar
    21     3     4   ar
    22     4     5   ar
    23    11    12   ar
    24    12    13   ar
    25    13     8   ar
    26     5     1   ar
    27    21    15   ar
    28    26    22   ar
    29     5     6    1
@<TRIPOS>MOLECULE
*****
 26 29 0 0 0
SMALL
GASTEIGER

@<TRIPOS>ATOM
      1 C          -2.7152    3.5636   22.0195 C.ar    1  UNL1        0.0564
      2 C          -2.3027    3.2819   20.6051 C.ar    1  UNL1        0.0163
      3 C          -0.8156    3.0866   20.5861 C.ar    1  UNL1        0.0209
      4 C          -0.3090    3.2475   21.9888 C.ar    1  UNL1        0.0702
      5 N          -1.4830    3.5423   22.8746 N.ar    1  UNL1       -0.3522
      6 H          -1.4506    3.6951   23.8467 H       1  UNL1        0.1660
      7 CL         -8.3114    4.5943   23.9222 Cl      1  UNL1       -0.0822
      8 C          -6.9123    4.3366   23.4466 C.ar    1  UNL1        0.0577
      9 C          -6.6020    4.3642   21.9793 C.ar    1  UNL1        0.0114
     10 C          -5.2030    4.1065   21.5036 C.ar    1  UNL1        0.0023
     11 C          -4.1142    3.8213   22.4952 C.ar    1  UNL1        0.0156
     12 C          -4.4246    3.7937   23.9624 C.ar    1  UNL1        0.0023
     13 C          -5.8236    4.0514   24.4381 C.ar    1  UNL1        0.0114
     14 C           0.0185    2.7835   19.3768 C.3     1  UNL1        0.1336
     15 C           0.8948    1.5663   19.3560 C.ar    1  UNL1        0.0026
     16 C           0.5096    0.3512   20.1468 C.ar    1  UNL1       -0.0013
     17 C           1.3860   -0.8660   20.1260 C.ar    1  UNL1        0.0111
     18 C           2.6474   -0.8681   19.3144 C.ar    1  UNL1        0.0577
     19 CL          3.5238   -2.0854   19.2936 Cl      1  UNL1       -0.0822
     20 C           3.0327    0.3468   18.5237 C.ar    1  UNL1        0.0111
     21 C           2.1563    1.5641   18.5444 C.ar    1  UNL1       -0.0013
     22 N          -0.0237    3.6976   18.1882 N.ar    1  UNL1       -0.3019
     23 C           0.9262    4.8241   17.9082 C.ar    1  UNL1        0.0985
     24 C           0.5137    5.4685   16.6180 C.ar    1  UNL1        0.1193
     25 N          -0.6912    4.7402   16.1006 N.ar    1  UNL1       -0.2223
     26 C          -1.0234    3.6457   17.0711 C.ar    1  UNL1        0.1791
@<TRIPOS>BOND
     1     7     8    1
     2     8     9   ar
     3     9    10   ar
     4    10    11   ar
     5    11     1    1
     6     1     2   ar
     7     2     3   ar
     8     3    14    1
     9    14    15    1
    10    15    16   ar
    11    16    17   ar
    12    17    18   ar
    13    18    19    1
    14    18    20   ar
    15    20    21   ar
    16    14    22    1
    17    22    23   ar
    18    23    24   ar
    19    24    25   ar
    20    25    26   ar
    21     3     4   ar
    22     4     5   ar
    23    11    12   ar
    24    12    13   ar
    25    13     8   ar
    26     5     1   ar
    27    21    15   ar
    28    26    22   ar
    29     5     6    1
