@<TRIPOS>MOLECULE
*****
 20 22 0 0 0
SMALL
GASTEIGER

@<TRIPOS>ATOM
      1 N          -7.8034  -18.0779   22.8748 N.3     1  UNL1       -0.2689
      2 C          -7.9236  -16.7732   23.6050 C.3     1  UNL1        0.0749
      3 C          -8.5602  -16.5698   24.9480 C.3     1  UNL1        0.0344
      4 C          -8.4584  -15.1137   25.2935 C.3     1  UNL1        0.0700
      5 N          -7.7589  -14.4171   24.1641 N.3     1  UNL1       -0.2963
      6 C          -7.4285  -15.4427   23.1206 C.3     1  UNL1        0.0847
      7 H          -6.9020  -13.9807   24.5042 H       1  UNL1        0.1233
      8 C          -8.9688  -19.0210   22.8275 C.3     1  UNL1        0.1000
      9 CL        -13.9408  -18.0125   23.9510 Cl      1  UNL1       -0.0814
     10 C         -12.8061  -18.0187   22.9699 C.ar    1  UNL1        0.0679
     11 C         -13.0228  -17.5269   21.5695 C.ar    1  UNL1        0.0122
     12 C         -11.8882  -17.5331   20.5884 C.ar    1  UNL1        0.0006
     13 C         -10.5369  -18.0312   21.0077 C.ar    1  UNL1       -0.0020
     14 C         -10.3202  -18.5230   22.4082 C.ar    1  UNL1        0.0053
     15 C         -11.4548  -18.5167   23.3893 C.ar    1  UNL1        0.0655
     16 CL        -11.2381  -19.0085   24.7897 Cl      1  UNL1       -0.0816
     17 C          -6.5177  -18.4394   22.1919 C.3     1  UNL1        0.0723
     18 C          -6.5110  -19.4718   21.1037 C.3     1  UNL1        0.0160
     19 C          -5.9236  -20.7075   20.4890 C.3     1  UNL1        0.0014
     20 C          -7.0868  -20.0241   19.8335 C.3     1  UNL1        0.0014
@<TRIPOS>BOND
     1     9    10    1
     2    10    11   ar
     3    11    12   ar
     4    12    13   ar
     5    13    14   ar
     6    14     8    1
     7     8     1    1
     8     1    17    1
     9    17    18    1
    10    18    19    1
    11    19    20    1
    12     2     1    1
    13     2     3    1
    14     3     4    1
    15     4     5    1
    16     5     6    1
    17    14    15   ar
    18    15    16    1
    19    15    10   ar
    20    20    18    1
    21     6     2    1
    22     5     7    1
@<TRIPOS>MOLECULE
*****
 20 22 0 0 0
SMALL
GASTEIGER

@<TRIPOS>ATOM
      1 N          -9.7621  -17.2397   24.0452 N.3     1  UNL1       -0.2689
      2 C          -8.9633  -16.5955   25.1393 C.3     1  UNL1        0.0749
      3 C          -8.8415  -17.0897   26.5503 C.3     1  UNL1        0.0344
      4 C          -7.9490  -16.1436   27.2975 C.3     1  UNL1        0.0700
      5 N          -7.5192  -15.0646   26.3483 N.3     1  UNL1       -0.2963
      6 C          -8.1461  -15.3439   25.0145 C.3     1  UNL1        0.0847
      7 H          -6.5030  -15.0656   26.2602 H       1  UNL1        0.1233
      8 C          -9.5873  -16.7905   22.6248 C.3     1  UNL1        0.1000
      9 CL         -6.4626  -20.1440   20.1772 Cl      1  UNL1       -0.0814
     10 C          -7.7999  -19.4790   20.3168 C.ar    1  UNL1        0.0679
     11 C          -8.9122  -19.8258   19.3720 C.ar    1  UNL1        0.0122
     12 C         -10.2495  -19.1609   19.5115 C.ar    1  UNL1        0.0006
     13 C         -10.4745  -18.1492   20.5957 C.ar    1  UNL1       -0.0020
     14 C          -9.3622  -17.8023   21.5405 C.ar    1  UNL1        0.0053
     15 C          -8.0250  -18.4672   21.4010 C.ar    1  UNL1        0.0655
     16 CL         -6.9127  -18.1204   22.3458 Cl      1  UNL1       -0.0816
     17 C         -10.7357  -18.3332   24.3717 C.3     1  UNL1        0.0723
     18 C         -12.1865  -18.1736   24.0258 C.3     1  UNL1        0.0160
     19 C         -13.2540  -17.8211   23.0327 C.3     1  UNL1        0.0014
     20 C         -13.6318  -18.2496   24.4196 C.3     1  UNL1        0.0014
@<TRIPOS>BOND
     1     9    10    1
     2    10    11   ar
     3    11    12   ar
     4    12    13   ar
     5    13    14   ar
     6    14     8    1
     7     8     1    1
     8     1    17    1
     9    17    18    1
    10    18    19    1
    11    19    20    1
    12     2     1    1
    13     2     3    1
    14     3     4    1
    15     4     5    1
    16     5     6    1
    17    14    15   ar
    18    15    16    1
    19    15    10   ar
    20    20    18    1
    21     6     2    1
    22     5     7    1
@<TRIPOS>MOLECULE
*****
 20 22 0 0 0
SMALL
GASTEIGER

@<TRIPOS>ATOM
      1 N          -6.3734  -17.7057   22.5379 N.3     1  UNL1       -0.2689
      2 C          -6.2671  -16.5401   23.4761 C.3     1  UNL1        0.0749
      3 C          -5.1506  -16.2874   24.4454 C.3     1  UNL1        0.0344
      4 C          -5.4521  -15.0137   25.1781 C.3     1  UNL1        0.0700
      5 N          -6.7550  -14.4792   24.6616 N.3     1  UNL1       -0.2963
      6 C          -7.2587  -15.4226   23.6098 C.3     1  UNL1        0.0847
      7 H          -6.6135  -13.5536   24.2573 H       1  UNL1        0.1233
      8 C          -7.6439  -17.9422   21.7765 C.3     1  UNL1        0.1000
      9 CL        -12.6419  -17.5193   23.1335 Cl      1  UNL1       -0.0814
     10 C         -11.3485  -18.2786   23.1595 C.ar    1  UNL1        0.0679
     11 C         -11.2608  -19.5858   23.8900 C.ar    1  UNL1        0.0122
     12 C          -9.9674  -20.3451   23.9160 C.ar    1  UNL1        0.0006
     13 C          -8.7619  -19.7972   23.2115 C.ar    1  UNL1       -0.0020
     14 C          -8.8496  -18.4900   22.4810 C.ar    1  UNL1        0.0053
     15 C         -10.1429  -17.7307   22.4550 C.ar    1  UNL1        0.0655
     16 CL        -10.2306  -16.4236   21.7245 Cl      1  UNL1       -0.0816
     17 C          -5.2090  -18.6348   22.3612 C.3     1  UNL1        0.0723
     18 C          -5.2363  -19.6741   21.2800 C.3     1  UNL1        0.0160
     19 C          -5.9249  -20.8156   20.5924 C.3     1  UNL1        0.0014
     20 C          -4.5948  -20.3328   20.0948 C.3     1  UNL1        0.0014
@<TRIPOS>BOND
     1     9    10    1
     2    10    11   ar
     3    11    12   ar
     4    12    13   ar
     5    13    14   ar
     6    14     8    1
     7     8     1    1
     8     1    17    1
     9    17    18    1
    10    18    19    1
    11    19    20    1
    12     2     1    1
    13     2     3    1
    14     3     4    1
    15     4     5    1
    16     5     6    1
    17    14    15   ar
    18    15    16    1
    19    15    10   ar
    20    20    18    1
    21     6     2    1
    22     5     7    1
@<TRIPOS>MOLECULE
*****
 20 22 0 0 0
SMALL
GASTEIGER

@<TRIPOS>ATOM
      1 N          -8.9368  -16.4469   24.0008 N.3     1  UNL1       -0.2689
      2 C          -9.9515  -17.5292   24.2221 C.3     1  UNL1        0.0749
      3 C         -11.2592  -17.6725   23.5014 C.3     1  UNL1        0.0344
      4 C         -11.9526  -18.8901   24.0368 C.3     1  UNL1        0.0700
      5 N         -11.0734  -19.4994   25.0885 N.3     1  UNL1       -0.2963
      6 C          -9.8367  -18.6583   25.2029 C.3     1  UNL1        0.0847
      7 H         -10.8215  -20.4507   24.8204 H       1  UNL1        0.1233
      8 C          -8.0909  -16.4538   22.7622 C.3     1  UNL1        0.1000
      9 CL         -3.1434  -17.8681   23.4851 Cl      1  UNL1       -0.0814
     10 C          -4.5194  -18.1717   22.9708 C.ar    1  UNL1        0.0679
     11 C          -4.7976  -19.4860   22.3036 C.ar    1  UNL1        0.0122
     12 C          -6.1736  -19.7896   21.7893 C.ar    1  UNL1        0.0006
     13 C          -7.2713  -18.7789   21.9422 C.ar    1  UNL1       -0.0020
     14 C          -6.9931  -17.4646   22.6093 C.ar    1  UNL1        0.0053
     15 C          -5.6171  -17.1610   23.1236 C.ar    1  UNL1        0.0655
     16 CL         -5.3389  -15.8466   23.7908 Cl      1  UNL1       -0.0816
     17 C          -8.7681  -15.3576   25.0182 C.3     1  UNL1        0.0723
     18 C          -8.0625  -15.6416   26.3111 C.3     1  UNL1        0.0160
     19 C          -8.0601  -16.2450   27.6843 C.3     1  UNL1        0.0014
     20 C          -6.8429  -15.5302   27.1770 C.3     1  UNL1        0.0014
@<TRIPOS>BOND
     1     9    10    1
     2    10    11   ar
     3    11    12   ar
     4    12    13   ar
     5    13    14   ar
     6    14     8    1
     7     8     1    1
     8     1    17    1
     9    17    18    1
    10    18    19    1
    11    19    20    1
    12     2     1    1
    13     2     3    1
    14     3     4    1
    15     4     5    1
    16     5     6    1
    17    14    15   ar
    18    15    16    1
    19    15    10   ar
    20    20    18    1
    21     6     2    1
    22     5     7    1
@<TRIPOS>MOLECULE
*****
 20 22 0 0 0
SMALL
GASTEIGER

@<TRIPOS>ATOM
      1 N          -8.9198  -16.4190   24.0019 N.3     1  UNL1       -0.2689
      2 C          -9.9452  -17.4939   24.2100 C.3     1  UNL1        0.0749
      3 C         -11.2513  -17.6192   23.4830 C.3     1  UNL1        0.0344
      4 C         -11.9578  -18.8350   24.0052 C.3     1  UNL1        0.0700
      5 N         -11.0883  -19.4612   25.0550 N.3     1  UNL1       -0.2963
      6 C          -9.8445  -18.6324   25.1815 C.3     1  UNL1        0.0847
      7 H         -10.8439  -20.4124   24.7797 H       1  UNL1        0.1233
      8 C          -8.0794  -16.4146   22.7596 C.3     1  UNL1        0.1000
      9 CL         -5.9567  -20.8103   20.9785 Cl      1  UNL1       -0.0814
     10 C          -5.8396  -19.5337   21.7575 C.ar    1  UNL1        0.0679
     11 C          -4.5440  -19.1785   22.4247 C.ar    1  UNL1        0.0122
     12 C          -4.4269  -17.9019   23.2036 C.ar    1  UNL1        0.0006
     13 C          -5.6053  -16.9807   23.3152 C.ar    1  UNL1       -0.0020
     14 C          -6.9009  -17.3359   22.6479 C.ar    1  UNL1        0.0053
     15 C          -7.0181  -18.6124   21.8690 C.ar    1  UNL1        0.0655
     16 CL         -8.3136  -18.9677   21.2018 Cl      1  UNL1       -0.0816
     17 C          -8.7350  -15.3486   25.0364 C.3     1  UNL1        0.0723
     18 C          -7.8877  -15.6125   26.2457 C.3     1  UNL1        0.0160
     19 C          -7.7178  -16.2254   27.6042 C.3     1  UNL1        0.0014
     20 C          -6.5901  -15.4567   26.9817 C.3     1  UNL1        0.0014
@<TRIPOS>BOND
     1     9    10    1
     2    10    11   ar
     3    11    12   ar
     4    12    13   ar
     5    13    14   ar
     6    14     8    1
     7     8     1    1
     8     1    17    1
     9    17    18    1
    10    18    19    1
    11    19    20    1
    12     2     1    1
    13     2     3    1
    14     3     4    1
    15     4     5    1
    16     5     6    1
    17    14    15   ar
    18    15    16    1
    19    15    10   ar
    20    20    18    1
    21     6     2    1
    22     5     7    1
@<TRIPOS>MOLECULE
*****
 20 22 0 0 0
SMALL
GASTEIGER

@<TRIPOS>ATOM
      1 N          -8.9852  -17.5462   22.1557 N.3     1  UNL1       -0.2689
      2 C         -10.2727  -17.2018   21.4675 C.3     1  UNL1        0.0749
      3 C         -11.3642  -16.3348   22.0217 C.3     1  UNL1        0.0344
      4 C         -12.4609  -16.2611   21.0010 C.3     1  UNL1        0.0700
      5 N         -12.0473  -17.0825   19.8160 N.3     1  UNL1       -0.2963
      6 C         -10.6949  -17.6639   20.1044 C.3     1  UNL1        0.0847
      7 H         -12.0005  -16.4926   18.9852 H       1  UNL1        0.1233
      8 C          -8.0381  -16.4569   22.5637 C.3     1  UNL1        0.1000
      9 CL         -4.9378  -14.7334   26.3608 Cl      1  UNL1       -0.0814
     10 C          -6.2460  -15.3175   25.9163 C.ar    1  UNL1        0.0679
     11 C          -7.3122  -15.6239   26.9260 C.ar    1  UNL1        0.0122
     12 C          -8.6204  -16.2079   26.4815 C.ar    1  UNL1        0.0006
     13 C          -8.8623  -16.4856   25.0275 C.ar    1  UNL1       -0.0020
     14 C          -7.7961  -16.1792   24.0178 C.ar    1  UNL1        0.0053
     15 C          -6.4880  -15.5952   24.4623 C.ar    1  UNL1        0.0655
     16 CL         -5.4218  -15.2888   23.4526 Cl      1  UNL1       -0.0816
     17 C          -8.6447  -18.9800   22.4358 C.3     1  UNL1        0.0723
     18 C          -9.3901  -19.7345   23.4964 C.3     1  UNL1        0.0160
     19 C         -10.5502  -19.8428   24.4411 C.3     1  UNL1        0.0014
     20 C          -9.5213  -20.9329   24.3889 C.3     1  UNL1        0.0014
@<TRIPOS>BOND
     1     9    10    1
     2    10    11   ar
     3    11    12   ar
     4    12    13   ar
     5    13    14   ar
     6    14     8    1
     7     8     1    1
     8     1    17    1
     9    17    18    1
    10    18    19    1
    11    19    20    1
    12     2     1    1
    13     2     3    1
    14     3     4    1
    15     4     5    1
    16     5     6    1
    17    14    15   ar
    18    15    16    1
    19    15    10   ar
    20    20    18    1
    21     6     2    1
    22     5     7    1
@<TRIPOS>MOLECULE
*****
 20 22 0 0 0
SMALL
GASTEIGER

@<TRIPOS>ATOM
      1 N          -6.4502  -19.4982   21.0674 N.3     1  UNL1       -0.2689
      2 C          -4.9672  -19.5890   21.2737 C.3     1  UNL1        0.0749
      3 C          -4.1906  -18.9470   22.3849 C.3     1  UNL1        0.0344
      4 C          -2.7439  -19.2990   22.2030 C.3     1  UNL1        0.0700
      5 N          -2.6263  -20.1586   20.9794 N.3     1  UNL1       -0.2963
      6 C          -4.0004  -20.3378   20.4051 C.3     1  UNL1        0.0847
      7 H          -2.2350  -21.0665   21.2304 H       1  UNL1        0.1233
      8 C          -7.3840  -19.7600   22.2117 C.3     1  UNL1        0.1000
      9 CL        -11.9838  -18.1302   23.9966 Cl      1  UNL1       -0.0814
     10 C         -10.5590  -17.8438   23.6251 C.ar    1  UNL1        0.0679
     11 C         -10.0093  -16.4562   23.7746 C.ar    1  UNL1        0.0122
     12 C          -8.5845  -16.1698   23.4031 C.ar    1  UNL1        0.0006
     13 C          -7.7095  -17.2711   22.8821 C.ar    1  UNL1       -0.0020
     14 C          -8.2592  -18.6587   22.7327 C.ar    1  UNL1        0.0053
     15 C          -9.6839  -18.9451   23.1042 C.ar    1  UNL1        0.0655
     16 CL        -10.2336  -20.3327   22.9547 Cl      1  UNL1       -0.0816
     17 C          -6.9993  -19.1455   19.7168 C.3     1  UNL1        0.0723
     18 C          -8.3318  -19.6825   19.2854 C.3     1  UNL1        0.0160
     19 C          -9.1445  -20.5978   18.4184 C.3     1  UNL1        0.0014
     20 C          -9.8269  -19.6974   19.4050 C.3     1  UNL1        0.0014
@<TRIPOS>BOND
     1     9    10    1
     2    10    11   ar
     3    11    12   ar
     4    12    13   ar
     5    13    14   ar
     6    14     8    1
     7     8     1    1
     8     1    17    1
     9    17    18    1
    10    18    19    1
    11    19    20    1
    12     2     1    1
    13     2     3    1
    14     3     4    1
    15     4     5    1
    16     5     6    1
    17    14    15   ar
    18    15    16    1
    19    15    10   ar
    20    20    18    1
    21     6     2    1
    22     5     7    1
@<TRIPOS>MOLECULE
*****
 20 22 0 0 0
SMALL
GASTEIGER

@<TRIPOS>ATOM
      1 N          -7.6196  -18.3140   22.3916 N.3     1  UNL1       -0.2689
      2 C          -6.3952  -18.9831   21.8412 C.3     1  UNL1        0.0749
      3 C          -6.3577  -19.9439   20.6899 C.3     1  UNL1        0.0344
      4 C          -4.9326  -20.3636   20.4826 C.3     1  UNL1        0.0700
      5 N          -4.0893  -19.6622   21.5058 N.3     1  UNL1       -0.2963
      6 C          -4.9932  -18.8090   22.3454 C.3     1  UNL1        0.0847
      7 H          -3.3953  -19.0774   21.0403 H       1  UNL1        0.1233
      8 C          -8.8249  -19.1321   22.7490 C.3     1  UNL1        0.1000
      9 CL        -13.7644  -18.1491   24.0280 Cl      1  UNL1       -0.0814
     10 C         -12.6648  -18.1633   23.0078 C.ar    1  UNL1        0.0679
     11 C         -12.9354  -17.7004   21.6069 C.ar    1  UNL1        0.0122
     12 C         -11.8359  -17.7146   20.5868 C.ar    1  UNL1        0.0006
     13 C         -10.4657  -18.1919   20.9674 C.ar    1  UNL1       -0.0020
     14 C         -10.1951  -18.6549   22.3683 C.ar    1  UNL1        0.0053
     15 C         -11.2946  -18.6406   23.3885 C.ar    1  UNL1        0.0655
     16 CL        -11.0240  -19.1036   24.7894 Cl      1  UNL1       -0.0816
     17 C          -7.6387  -16.8265   22.5847 C.3     1  UNL1        0.0723
     18 C          -7.9963  -16.2483   23.9217 C.3     1  UNL1        0.0160
     19 C          -7.7724  -15.2269   24.9972 C.3     1  UNL1        0.0014
     20 C          -8.8395  -16.2681   25.1621 C.3     1  UNL1        0.0014
@<TRIPOS>BOND
     1     9    10    1
     2    10    11   ar
     3    11    12   ar
     4    12    13   ar
     5    13    14   ar
     6    14     8    1
     7     8     1    1
     8     1    17    1
     9    17    18    1
    10    18    19    1
    11    19    20    1
    12     2     1    1
    13     2     3    1
    14     3     4    1
    15     4     5    1
    16     5     6    1
    17    14    15   ar
    18    15    16    1
    19    15    10   ar
    20    20    18    1
    21     6     2    1
    22     5     7    1
@<TRIPOS>MOLECULE
*****
 20 22 0 0 0
SMALL
GASTEIGER

@<TRIPOS>ATOM
      1 N          -8.1852  -17.7217   22.4236 N.3     1  UNL1       -0.2689
      2 C          -8.1069  -16.5610   23.3705 C.3     1  UNL1        0.0749
      3 C          -8.7081  -16.5010   24.7434 C.3     1  UNL1        0.0344
      4 C          -8.3865  -15.1594   25.3321 C.3     1  UNL1        0.0700
      5 N          -7.5865  -14.3901   24.3230 N.3     1  UNL1       -0.2963
      6 C          -7.4138  -15.2564   23.1107 C.3     1  UNL1        0.0847
      7 H          -6.6739  -14.1536   24.7123 H       1  UNL1        0.1233
      8 C          -7.4596  -18.9963   22.7380 C.3     1  UNL1        0.1000
      9 CL         -2.4029  -18.6157   21.6041 Cl      1  UNL1       -0.0814
     10 C          -3.7507  -19.2206   21.3439 C.ar    1  UNL1        0.0679
     11 C          -3.9178  -20.2401   20.2564 C.ar    1  UNL1        0.0122
     12 C          -5.2655  -20.8450   19.9961 C.ar    1  UNL1        0.0006
     13 C          -6.4460  -20.4304   20.8233 C.ar    1  UNL1       -0.0020
     14 C          -6.2789  -19.4109   21.9108 C.ar    1  UNL1        0.0053
     15 C          -4.9313  -18.8060   22.1711 C.ar    1  UNL1        0.0655
     16 CL         -4.7642  -17.7865   23.2586 Cl      1  UNL1       -0.0816
     17 C          -8.9891  -17.6078   21.1623 C.3     1  UNL1        0.0723
     18 C          -9.8164  -18.7676   20.6929 C.3     1  UNL1        0.0160
     19 C         -10.1971  -19.7404   19.6165 C.3     1  UNL1        0.0014
     20 C         -10.8687  -19.8036   20.9562 C.3     1  UNL1        0.0014
@<TRIPOS>BOND
     1     9    10    1
     2    10    11   ar
     3    11    12   ar
     4    12    13   ar
     5    13    14   ar
     6    14     8    1
     7     8     1    1
     8     1    17    1
     9    17    18    1
    10    18    19    1
    11    19    20    1
    12     2     1    1
    13     2     3    1
    14     3     4    1
    15     4     5    1
    16     5     6    1
    17    14    15   ar
    18    15    16    1
    19    15    10   ar
    20    20    18    1
    21     6     2    1
    22     5     7    1
