@<TRIPOS>MOLECULE
*****
 41 44 0 0 0
SMALL
GASTEIGER

@<TRIPOS>ATOM
      1 C           7.5578   -4.4236   22.3049 C.ar    1  UNL1        0.0886
      2 C           8.3585   -5.6918   22.3296 C.ar    1  UNL1        0.0191
      3 C           8.5167   -6.4541   23.6118 C.ar    1  UNL1       -0.0015
      4 C           7.8741   -5.9482   24.8693 C.ar    1  UNL1       -0.0083
      5 C           8.0322   -6.7104   26.1514 C.3     1  UNL1        0.0323
      6 C           7.0734   -4.6799   24.8445 C.ar    1  UNL1        0.0480
      7 C           6.9153   -3.9177   23.5624 C.ar    1  UNL1        0.0337
      8 N           5.9305   -2.9207   19.0120 N.ar    1  UNL1       -0.2434
      9 C           7.0833   -2.1367   18.4585 C.ar    1  UNL1        0.2855
     10 O           6.9251   -1.3744   17.1763 O.2     1  UNL1       -0.2651
     11 C           8.3943   -2.1150   19.1872 C.ar    1  UNL1        0.1813
     12 N           8.5525   -2.8772   20.4693 N.ar    1  UNL1       -0.1547
     13 N           7.3997   -3.6613   21.0228 N.ar    1  UNL1       -0.1797
     14 C           6.0887   -3.6830   20.2941 C.ar    1  UNL1        0.3536
     15 O           4.9359   -4.4671   20.8477 O.2     1  UNL1       -0.2443
     16 C           4.6196   -2.9425   18.2834 C.3     1  UNL1        0.1453
     17 C           3.9770   -1.6559   17.8572 C.3     1  UNL1        0.1627
     18 O           3.9098   -1.2970   16.4022 O.3     1  UNL1       -0.3799
     19 H           3.4666   -0.4402   16.3007 H       1  UNL1        0.2105
     20 C           3.4015   -0.7281   18.8858 C.3     1  UNL1        0.1733
     21 C           1.1653   -0.7013   20.2083 C.3     1  UNL1        0.1742
     22 O           2.5349   -1.2703   19.9836 O.3     1  UNL1       -0.3485
     23 N           6.4309   -4.1740   26.1020 N.am    1  UNL1       -0.2808
     24 C           7.1219   -3.1319   26.9305 C.2     1  UNL1        0.2471
     25 O           8.4556   -2.5957   26.5015 O.2     1  UNL1       -0.2701
     26 H           5.5556   -4.5260   26.3835 H       1  UNL1        0.1552
     27 C           6.4794   -2.6260   28.1880 C.2     1  UNL1        0.0505
     28 C           6.8329   -3.2397   29.5102 C.2     1  UNL1        0.0680
     29 N           6.1904   -2.7338   30.7676 N.am    1  UNL1       -0.2558
     30 C           6.5440   -3.3476   32.0899 C.3     1  UNL1        0.1200
     31 C           5.1943   -1.6142   30.7029 C.2     1  UNL1        0.2301
     32 O           4.5518   -1.1083   31.9603 O.2     1  UNL1       -0.2745
     33 C           4.8407   -1.0004   29.3806 C.3     1  UNL1        0.0945
     34 C           5.4833   -1.5063   28.1231 C.3     1  UNL1        0.0594
     35 C           5.1297   -0.8926   26.8009 C.ar    1  UNL1       -0.0176
     36 C           5.9810    0.2031   26.2311 C.ar    1  UNL1       -0.0016
     37 C           5.6275    0.8168   24.9088 C.ar    1  UNL1        0.0293
     38 C           4.4227    0.3349   24.1564 C.ar    1  UNL1        0.1401
     39 F           4.0692    0.9486   22.8342 F       1  UNL1       -0.2042
     40 C           3.5714   -0.7609   24.7263 C.ar    1  UNL1        0.0293
     41 C           3.9249   -1.3746   26.0485 C.ar    1  UNL1       -0.0016
@<TRIPOS>BOND
     1    21    22    1
     2    22    20    1
     3    20    17    1
     4    17    18    1
     5    17    16    1
     6    16     8    1
     7     8     9   ar
     8     9    10    2
     9     9    11   ar
    10    11    12   ar
    11    12    13   ar
    12    13     1    1
    13     1     2   ar
    14     2     3   ar
    15     3     4   ar
    16     4     5    1
    17     4     6   ar
    18     6    23    1
    19    23    24   am
    20    24    25    2
    21    24    27    1
    22    27    28    2
    23    28    29    1
    24    29    30    1
    25    29    31   am
    26    31    32    2
    27    31    33    1
    28    33    34    1
    29    34    35    1
    30    35    36   ar
    31    36    37   ar
    32    37    38   ar
    33    38    39    1
    34    38    40   ar
    35    40    41   ar
    36     6     7   ar
    37    13    14   ar
    38    14    15    2
    39    14     8   ar
    40     7     1   ar
    41    34    27    1
    42    41    35   ar
    43    18    19    1
    44    23    26    1
@<TRIPOS>MOLECULE
*****
 41 44 0 0 0
SMALL
GASTEIGER

@<TRIPOS>ATOM
      1 C           4.1819   -0.8378   24.2343 C.ar    1  UNL1        0.0886
      2 C           4.6702   -0.4210   25.5900 C.ar    1  UNL1        0.0191
      3 C           3.8496    0.5142   26.4279 C.ar    1  UNL1       -0.0015
      4 C           2.5408    1.0327   25.9101 C.ar    1  UNL1       -0.0083
      5 C           1.7202    1.9679   26.7480 C.3     1  UNL1        0.0323
      6 C           2.0525    0.6158   24.5544 C.ar    1  UNL1        0.0480
      7 C           2.8731   -0.3193   23.7165 C.ar    1  UNL1        0.0337
      8 N           6.3476   -2.2580   21.2272 N.ar    1  UNL1       -0.2434
      9 C           6.6436   -3.6433   21.7205 C.ar    1  UNL1        0.2855
     10 O           7.4641   -4.5786   20.8826 O.2     1  UNL1       -0.2651
     11 C           6.1190   -4.0934   23.0518 C.ar    1  UNL1        0.1813
     12 N           5.2984   -3.1583   23.8897 N.ar    1  UNL1       -0.1547
     13 N           5.0025   -1.7730   23.3964 N.ar    1  UNL1       -0.1797
     14 C           5.5271   -1.3229   22.0652 C.ar    1  UNL1        0.3536
     15 O           5.2311    0.0625   21.5719 O.2     1  UNL1       -0.2443
     16 C           6.8722   -1.8079   19.8960 C.3     1  UNL1        0.1453
     17 C           6.1356   -2.1663   18.6395 C.3     1  UNL1        0.1627
     18 O           6.8812   -2.2974   17.3445 O.3     1  UNL1       -0.3799
     19 H           6.2609   -2.5318   16.6365 H       1  UNL1        0.2105
     20 C           4.6535   -2.3935   18.6779 C.3     1  UNL1        0.1733
     21 C           4.5140   -4.9850   18.8001 C.3     1  UNL1        0.1742
     22 O           4.1014   -3.6364   19.3109 O.3     1  UNL1       -0.3485
     23 N           0.7436    1.1343   24.0366 N.am    1  UNL1       -0.2808
     24 C           0.7029    2.4023   23.2363 C.2     1  UNL1        0.2471
     25 O           1.9711    3.1519   22.9538 O.2     1  UNL1       -0.2701
     26 H          -0.0887    0.6423   24.2220 H       1  UNL1        0.1552
     27 C          -0.6059    2.9207   22.7185 C.2     1  UNL1        0.0505
     28 C          -1.5744    3.5806   23.6547 C.2     1  UNL1        0.0680
     29 N          -2.8833    4.0990   23.1369 N.am    1  UNL1       -0.2558
     30 C          -3.8518    4.7590   24.0732 C.3     1  UNL1        0.1200
     31 C          -3.2237    3.9576   21.6830 C.2     1  UNL1        0.2301
     32 O          -4.5325    4.4760   21.1652 O.2     1  UNL1       -0.2745
     33 C          -2.2551    3.2976   20.7467 C.3     1  UNL1        0.0945
     34 C          -0.9463    2.7792   21.2645 C.3     1  UNL1        0.0594
     35 C           0.0222    2.1193   20.3283 C.ar    1  UNL1       -0.0176
     36 C           0.8371    2.9515   19.3832 C.ar    1  UNL1       -0.0016
     37 C           1.8057    2.2916   18.4469 C.ar    1  UNL1        0.0293
     38 C           1.9593    0.7995   18.4559 C.ar    1  UNL1        0.1401
     39 F           2.9278    0.1396   17.5197 F       1  UNL1       -0.2042
     40 C           1.1443   -0.0327   19.4011 C.ar    1  UNL1        0.0293
     41 C           0.1758    0.6272   20.3373 C.ar    1  UNL1       -0.0016
@<TRIPOS>BOND
     1    21    22    1
     2    22    20    1
     3    20    17    1
     4    17    18    1
     5    17    16    1
     6    16     8    1
     7     8     9   ar
     8     9    10    2
     9     9    11   ar
    10    11    12   ar
    11    12    13   ar
    12    13     1    1
    13     1     2   ar
    14     2     3   ar
    15     3     4   ar
    16     4     5    1
    17     4     6   ar
    18     6    23    1
    19    23    24   am
    20    24    25    2
    21    24    27    1
    22    27    28    2
    23    28    29    1
    24    29    30    1
    25    29    31   am
    26    31    32    2
    27    31    33    1
    28    33    34    1
    29    34    35    1
    30    35    36   ar
    31    36    37   ar
    32    37    38   ar
    33    38    39    1
    34    38    40   ar
    35    40    41   ar
    36     6     7   ar
    37    13    14   ar
    38    14    15    2
    39    14     8   ar
    40     7     1   ar
    41    34    27    1
    42    41    35   ar
    43    18    19    1
    44    23    26    1
@<TRIPOS>MOLECULE
*****
 41 44 0 0 0
SMALL
GASTEIGER

@<TRIPOS>ATOM
      1 C           1.3520    1.9004   20.2094 C.ar    1  UNL1        0.0886
      2 C           1.0142    2.3946   18.8340 C.ar    1  UNL1        0.0191
      3 C          -0.2745    3.1241   18.5948 C.ar    1  UNL1       -0.0015
      4 C          -1.2253    3.3593   19.7308 C.ar    1  UNL1       -0.0083
      5 C          -2.5140    4.0887   19.4916 C.3     1  UNL1        0.0323
      6 C          -0.8874    2.8650   21.1062 C.ar    1  UNL1        0.0480
      7 C           0.4012    2.1356   21.3455 C.ar    1  UNL1        0.0337
      8 N           3.9831   -1.0512   20.5494 N.ar    1  UNL1       -0.2434
      9 C           5.2179   -0.2880   20.9272 C.ar    1  UNL1        0.2855
     10 O           6.5067   -1.0175   21.1665 O.2     1  UNL1       -0.2651
     11 C           5.1642    1.2046   21.0657 C.ar    1  UNL1        0.1813
     12 N           3.8756    1.9341   20.8264 N.ar    1  UNL1       -0.1547
     13 N           2.6407    1.1709   20.4487 N.ar    1  UNL1       -0.1797
     14 C           2.6945   -0.3217   20.3102 C.ar    1  UNL1        0.3536
     15 O           1.4596   -1.0849   19.9324 O.2     1  UNL1       -0.2443
     16 C           4.0369   -2.5438   20.4109 C.3     1  UNL1        0.1453
     17 C           4.1867   -3.1663   19.0545 C.3     1  UNL1        0.1627
     18 O           3.2282   -4.2301   18.6074 O.3     1  UNL1       -0.3799
     19 H           3.4645   -4.5231   17.7134 H       1  UNL1        0.2105
     20 C           5.2949   -2.7250   18.1450 C.3     1  UNL1        0.1733
     21 C           3.8526   -0.9680   16.8867 C.3     1  UNL1        0.1742
     22 O           5.1843   -1.4255   17.4038 O.3     1  UNL1       -0.3485
     23 N          -1.8382    3.1002   22.2423 N.am    1  UNL1       -0.2808
     24 C          -1.7376    4.3558   23.0568 C.2     1  UNL1        0.2471
     25 O          -0.6862    5.3762   22.7352 O.2     1  UNL1       -0.2701
     26 H          -2.5282    2.4305   22.4534 H       1  UNL1        0.1552
     27 C          -2.6884    4.5910   24.1929 C.2     1  UNL1        0.0505
     28 C          -4.0113    5.2510   23.9394 C.2     1  UNL1        0.0680
     29 N          -4.9621    5.4862   25.0754 N.am    1  UNL1       -0.2558
     30 C          -6.2850    6.1463   24.8219 C.3     1  UNL1        0.1200
     31 C          -4.5900    5.0614   26.4650 C.2     1  UNL1        0.2301
     32 O          -5.5407    5.2966   27.6011 O.2     1  UNL1       -0.2745
     33 C          -3.2670    4.4013   26.7186 C.3     1  UNL1        0.0945
     34 C          -2.3162    4.1661   25.5825 C.3     1  UNL1        0.0594
     35 C          -0.9934    3.5061   25.8360 C.ar    1  UNL1       -0.0176
     36 C          -0.8483    2.0239   25.6575 C.ar    1  UNL1       -0.0016
     37 C           0.4746    1.3638   25.9110 C.ar    1  UNL1        0.0293
     38 C           1.6524    2.1860   26.3431 C.ar    1  UNL1        0.1401
     39 F           2.9753    1.5259   26.5966 F       1  UNL1       -0.2042
     40 C           1.5074    3.6683   26.5216 C.ar    1  UNL1        0.0293
     41 C           0.1845    4.3283   26.2681 C.ar    1  UNL1       -0.0016
@<TRIPOS>BOND
     1    21    22    1
     2    22    20    1
     3    20    17    1
     4    17    18    1
     5    17    16    1
     6    16     8    1
     7     8     9   ar
     8     9    10    2
     9     9    11   ar
    10    11    12   ar
    11    12    13   ar
    12    13     1    1
    13     1     2   ar
    14     2     3   ar
    15     3     4   ar
    16     4     5    1
    17     4     6   ar
    18     6    23    1
    19    23    24   am
    20    24    25    2
    21    24    27    1
    22    27    28    2
    23    28    29    1
    24    29    30    1
    25    29    31   am
    26    31    32    2
    27    31    33    1
    28    33    34    1
    29    34    35    1
    30    35    36   ar
    31    36    37   ar
    32    37    38   ar
    33    38    39    1
    34    38    40   ar
    35    40    41   ar
    36     6     7   ar
    37    13    14   ar
    38    14    15    2
    39    14     8   ar
    40     7     1   ar
    41    34    27    1
    42    41    35   ar
    43    18    19    1
    44    23    26    1
@<TRIPOS>MOLECULE
*****
 41 44 0 0 0
SMALL
GASTEIGER

@<TRIPOS>ATOM
      1 C           1.8467    1.6453   20.6387 C.ar    1  UNL1        0.0886
      2 C           2.1496    1.8844   22.0882 C.ar    1  UNL1        0.0191
      3 C           1.0834    2.4165   22.9993 C.ar    1  UNL1       -0.0015
      4 C          -0.2856    2.7095   22.4609 C.ar    1  UNL1       -0.0083
      5 C          -1.3518    3.2416   23.3720 C.3     1  UNL1        0.0323
      6 C          -0.5885    2.4704   21.0113 C.ar    1  UNL1        0.0480
      7 C           0.4777    1.9383   20.1003 C.ar    1  UNL1        0.0337
      8 N           4.0647   -0.8911   18.5417 N.ar    1  UNL1       -0.2434
      9 C           5.0452    0.0489   17.9053 C.ar    1  UNL1        0.2855
     10 O           6.1114   -0.4833   16.9941 O.2     1  UNL1       -0.2651
     11 C           4.9595    1.5210   18.1800 C.ar    1  UNL1        0.1813
     12 N           3.8934    2.0531   19.0911 N.ar    1  UNL1       -0.1547
     13 N           2.9129    1.1132   19.7275 N.ar    1  UNL1       -0.1797
     14 C           2.9986   -0.3590   19.4528 C.ar    1  UNL1        0.3536
     15 O           2.0180   -1.2990   20.0893 O.2     1  UNL1       -0.2443
     16 C           4.1503   -2.3633   18.2670 C.3     1  UNL1        0.1453
     17 C           5.1842   -3.1973   18.9637 C.3     1  UNL1        0.1627
     18 O           6.5862   -2.6847   19.1116 O.3     1  UNL1       -0.3799
     19 H           7.1228   -3.3419   19.5819 H       1  UNL1        0.2105
     20 C           4.8162   -4.5440   19.5124 C.3     1  UNL1        0.1733
     21 C           4.6006   -3.6471   21.9413 C.3     1  UNL1        0.1742
     22 O           4.2435   -4.6599   20.8940 O.3     1  UNL1       -0.3485
     23 N          -1.9575    2.7634   20.4729 N.am    1  UNL1       -0.2808
     24 C          -2.3780    4.1816   20.2245 C.2     1  UNL1        0.2471
     25 O          -1.4295    5.3070   20.5145 O.2     1  UNL1       -0.2701
     26 H          -2.5801    2.0249   20.2826 H       1  UNL1        0.1552
     27 C          -3.7470    4.4747   19.6861 C.2     1  UNL1        0.0505
     28 C          -3.9535    4.6355   18.2091 C.2     1  UNL1        0.0680
     29 N          -5.3226    4.9285   17.6707 N.am    1  UNL1       -0.2558
     30 C          -5.5290    5.0893   16.1937 C.3     1  UNL1        0.1200
     31 C          -6.4851    5.0607   18.6093 C.2     1  UNL1        0.2301
     32 O          -7.8542    5.3537   18.0709 O.2     1  UNL1       -0.2745
     33 C          -6.2787    4.8999   20.0863 C.3     1  UNL1        0.0945
     34 C          -4.9096    4.6069   20.6247 C.3     1  UNL1        0.0594
     35 C          -4.7032    4.4461   22.1017 C.ar    1  UNL1       -0.0176
     36 C          -4.2149    5.6037   22.9211 C.ar    1  UNL1       -0.0016
     37 C          -4.0083    5.4429   24.3981 C.ar    1  UNL1        0.0293
     38 C          -4.2902    4.1245   25.0557 C.ar    1  UNL1        0.1401
     39 F          -4.0837    3.9637   26.5327 F       1  UNL1       -0.2042
     40 C          -4.7785    2.9669   24.2362 C.ar    1  UNL1        0.0293
     41 C          -4.9850    3.1277   22.7593 C.ar    1  UNL1       -0.0016
@<TRIPOS>BOND
     1    21    22    1
     2    22    20    1
     3    20    17    1
     4    17    18    1
     5    17    16    1
     6    16     8    1
     7     8     9   ar
     8     9    10    2
     9     9    11   ar
    10    11    12   ar
    11    12    13   ar
    12    13     1    1
    13     1     2   ar
    14     2     3   ar
    15     3     4   ar
    16     4     5    1
    17     4     6   ar
    18     6    23    1
    19    23    24   am
    20    24    25    2
    21    24    27    1
    22    27    28    2
    23    28    29    1
    24    29    30    1
    25    29    31   am
    26    31    32    2
    27    31    33    1
    28    33    34    1
    29    34    35    1
    30    35    36   ar
    31    36    37   ar
    32    37    38   ar
    33    38    39    1
    34    38    40   ar
    35    40    41   ar
    36     6     7   ar
    37    13    14   ar
    38    14    15    2
    39    14     8   ar
    40     7     1   ar
    41    34    27    1
    42    41    35   ar
    43    18    19    1
    44    23    26    1
@<TRIPOS>MOLECULE
*****
 41 44 0 0 0
SMALL
GASTEIGER

@<TRIPOS>ATOM
      1 C           0.2569    3.0106   18.6961 C.ar    1  UNL1        0.0886
      2 C          -0.4671    3.5036   17.4785 C.ar    1  UNL1        0.0191
      3 C          -1.8912    3.9623   17.5870 C.ar    1  UNL1       -0.0015
      4 C          -2.5912    3.9280   18.9132 C.ar    1  UNL1       -0.0083
      5 C          -4.0152    4.3867   19.0217 C.3     1  UNL1        0.0323
      6 C          -1.8671    3.4350   20.1309 C.ar    1  UNL1        0.0480
      7 C          -0.4431    2.9763   20.0223 C.ar    1  UNL1        0.0337
      8 N           3.4418    0.6431   18.6632 N.ar    1  UNL1       -0.2434
      9 C           4.5289    1.6344   18.3707 C.ar    1  UNL1        0.2855
     10 O           5.9529    1.1757   18.2622 O.2     1  UNL1       -0.2651
     11 C           4.1919    3.0844   18.1866 C.ar    1  UNL1        0.1813
     12 N           2.7680    3.5432   18.2951 N.ar    1  UNL1       -0.1547
     13 N           1.6809    2.5519   18.5876 N.ar    1  UNL1       -0.1797
     14 C           2.0179    1.1019   18.7717 C.ar    1  UNL1        0.3536
     15 O           0.9307    0.1105   19.0643 O.2     1  UNL1       -0.2443
     16 C           3.7788   -0.8069   18.8473 C.3     1  UNL1        0.1453
     17 C           4.3415   -1.5972   17.7034 C.3     1  UNL1        0.1627
     18 O           3.9099   -1.2951   16.2989 O.3     1  UNL1       -0.3799
     19 H           4.3650   -1.8928   15.6852 H       1  UNL1        0.2105
     20 C           5.3359   -2.6896   17.9638 C.3     1  UNL1        0.1733
     21 C           4.5157   -4.9652   18.9122 C.3     1  UNL1        0.1742
     22 O           5.1421   -3.6190   19.1253 O.3     1  UNL1       -0.3485
     23 N          -2.5671    3.4007   21.4571 N.am    1  UNL1       -0.2808
     24 C          -2.3297    4.4915   22.4589 C.2     1  UNL1        0.2471
     25 O          -1.3923    5.6168   22.1345 O.2     1  UNL1       -0.2701
     26 H          -3.1823    2.6622   21.6700 H       1  UNL1        0.1552
     27 C          -3.0297    4.4572   23.7851 C.2     1  UNL1        0.0505
     28 C          -4.4489    4.9300   23.8966 C.2     1  UNL1        0.0680
     29 N          -5.1489    4.8957   25.2228 N.am    1  UNL1       -0.2558
     30 C          -6.5681    5.3686   25.3342 C.3     1  UNL1        0.1200
     31 C          -4.4297    4.3886   26.4375 C.2     1  UNL1        0.2301
     32 O          -5.1297    4.3543   27.7637 O.2     1  UNL1       -0.2745
     33 C          -3.0105    3.9157   26.3261 C.3     1  UNL1        0.0945
     34 C          -2.3105    3.9500   24.9999 C.3     1  UNL1        0.0594
     35 C          -0.8914    3.4772   24.8884 C.ar    1  UNL1       -0.0176
     36 C          -0.6025    2.0406   24.5681 C.ar    1  UNL1       -0.0016
     37 C           0.8166    1.5677   24.4566 C.ar    1  UNL1        0.0293
     38 C           1.9469    2.5315   24.6654 C.ar    1  UNL1        0.1401
     39 F           3.3660    2.0587   24.5539 F       1  UNL1       -0.2042
     40 C           1.6580    3.9682   24.9857 C.ar    1  UNL1        0.0293
     41 C           0.2389    4.4410   25.0972 C.ar    1  UNL1       -0.0016
@<TRIPOS>BOND
     1    21    22    1
     2    22    20    1
     3    20    17    1
     4    17    18    1
     5    17    16    1
     6    16     8    1
     7     8     9   ar
     8     9    10    2
     9     9    11   ar
    10    11    12   ar
    11    12    13   ar
    12    13     1    1
    13     1     2   ar
    14     2     3   ar
    15     3     4   ar
    16     4     5    1
    17     4     6   ar
    18     6    23    1
    19    23    24   am
    20    24    25    2
    21    24    27    1
    22    27    28    2
    23    28    29    1
    24    29    30    1
    25    29    31   am
    26    31    32    2
    27    31    33    1
    28    33    34    1
    29    34    35    1
    30    35    36   ar
    31    36    37   ar
    32    37    38   ar
    33    38    39    1
    34    38    40   ar
    35    40    41   ar
    36     6     7   ar
    37    13    14   ar
    38    14    15    2
    39    14     8   ar
    40     7     1   ar
    41    34    27    1
    42    41    35   ar
    43    18    19    1
    44    23    26    1
@<TRIPOS>MOLECULE
*****
 41 44 0 0 0
SMALL
GASTEIGER

@<TRIPOS>ATOM
      1 C          -2.6858    4.1890   19.4734 C.ar    1  UNL1        0.0886
      2 C          -2.2812    4.1184   18.0308 C.ar    1  UNL1        0.0191
      3 C          -0.9302    3.5849   17.6560 C.ar    1  UNL1       -0.0015
      4 C           0.0160    3.1221   18.7239 C.ar    1  UNL1       -0.0083
      5 C           1.3669    2.5886   18.3492 C.3     1  UNL1        0.0323
      6 C          -0.3887    3.1927   20.1666 C.ar    1  UNL1        0.0480
      7 C          -1.7396    3.7262   20.5413 C.ar    1  UNL1        0.0337
      8 N          -6.1699    4.6083   21.3270 N.ar    1  UNL1       -0.2434
      9 C          -6.7385    5.7893   20.5979 C.ar    1  UNL1        0.2855
     10 O          -8.0895    6.3228   20.9727 O.2     1  UNL1       -0.2651
     11 C          -5.9563    6.4369   19.4939 C.ar    1  UNL1        0.1813
     12 N          -4.6054    5.9035   19.1191 N.ar    1  UNL1       -0.1547
     13 N          -4.0368    4.7225   19.8482 N.ar    1  UNL1       -0.1797
     14 C          -4.8190    4.0748   20.9522 C.ar    1  UNL1        0.3536
     15 O          -4.2503    2.8937   21.6813 O.2     1  UNL1       -0.2443
     16 C          -6.9521    3.9606   22.4309 C.3     1  UNL1        0.1453
     17 C          -7.3335    4.7542   23.6453 C.3     1  UNL1        0.1627
     18 O          -8.6723    5.4274   23.7114 O.3     1  UNL1       -0.3799
     19 H          -8.7582    5.8942   24.5573 H       1  UNL1        0.2105
     20 C          -6.3760    4.8746   24.7937 C.3     1  UNL1        0.1733
     21 C          -4.3402    3.9613   26.1247 C.3     1  UNL1        0.1742
     22 O          -5.3749    3.7879   25.0526 O.3     1  UNL1       -0.3485
     23 N           0.5576    2.7299   21.2345 N.am    1  UNL1       -0.2808
     24 C           0.6445    1.2727   21.5794 C.2     1  UNL1        0.2471
     25 O          -0.2148    0.2782   20.8563 O.2     1  UNL1       -0.2701
     26 H           1.1216    3.3826   21.7091 H       1  UNL1        0.1552
     27 C           1.5908    0.8099   22.6473 C.2     1  UNL1        0.0505
     28 C           1.2655    1.0477   24.0921 C.2     1  UNL1        0.0680
     29 N           2.2117    0.5849   25.1600 N.am    1  UNL1       -0.2558
     30 C           1.8863    0.8227   26.6049 C.3     1  UNL1        0.1200
     31 C           3.4833   -0.1158   24.7831 C.2     1  UNL1        0.2301
     32 O           4.4295   -0.5786   25.8510 O.2     1  UNL1       -0.2745
     33 C           3.8087   -0.3536   23.3382 C.3     1  UNL1        0.0945
     34 C           2.8624    0.1092   22.2703 C.3     1  UNL1        0.0594
     35 C           3.1878   -0.1286   20.8255 C.ar    1  UNL1       -0.0176
     36 C           2.7456   -1.3960   20.1559 C.ar    1  UNL1       -0.0016
     37 C           3.0710   -1.6338   18.7110 C.ar    1  UNL1        0.0293
     38 C           3.8385   -0.6043   17.9358 C.ar    1  UNL1        0.1401
     39 F           4.1638   -0.8421   16.4909 F       1  UNL1       -0.2042
     40 C           4.2806    0.6631   18.6054 C.ar    1  UNL1        0.0293
     41 C           3.9553    0.9009   20.0502 C.ar    1  UNL1       -0.0016
@<TRIPOS>BOND
     1    21    22    1
     2    22    20    1
     3    20    17    1
     4    17    18    1
     5    17    16    1
     6    16     8    1
     7     8     9   ar
     8     9    10    2
     9     9    11   ar
    10    11    12   ar
    11    12    13   ar
    12    13     1    1
    13     1     2   ar
    14     2     3   ar
    15     3     4   ar
    16     4     5    1
    17     4     6   ar
    18     6    23    1
    19    23    24   am
    20    24    25    2
    21    24    27    1
    22    27    28    2
    23    28    29    1
    24    29    30    1
    25    29    31   am
    26    31    32    2
    27    31    33    1
    28    33    34    1
    29    34    35    1
    30    35    36   ar
    31    36    37   ar
    32    37    38   ar
    33    38    39    1
    34    38    40   ar
    35    40    41   ar
    36     6     7   ar
    37    13    14   ar
    38    14    15    2
    39    14     8   ar
    40     7     1   ar
    41    34    27    1
    42    41    35   ar
    43    18    19    1
    44    23    26    1
@<TRIPOS>MOLECULE
*****
 41 44 0 0 0
SMALL
GASTEIGER

@<TRIPOS>ATOM
      1 C           8.1626   -4.0294   30.0216 C.ar    1  UNL1        0.0886
      2 C           9.1456   -4.0824   31.1532 C.ar    1  UNL1        0.0191
      3 C           9.0529   -3.0901   32.2744 C.ar    1  UNL1       -0.0015
      4 C           7.9770   -2.0450   32.2638 C.ar    1  UNL1       -0.0083
      5 C           7.8841   -1.0527   33.3849 C.3     1  UNL1        0.0323
      6 C           6.9939   -1.9921   31.1320 C.ar    1  UNL1        0.0480
      7 C           7.0867   -2.9843   30.0110 C.ar    1  UNL1        0.0337
      8 N           8.6534   -5.5461   26.3872 N.ar    1  UNL1       -0.2434
      9 C           8.4409   -7.0060   26.6582 C.ar    1  UNL1        0.2855
     10 O           8.5337   -7.9983   25.5370 O.2     1  UNL1       -0.2651
     11 C           8.1357   -7.4738   28.0503 C.ar    1  UNL1        0.1813
     12 N           8.0429   -6.4816   29.1714 N.ar    1  UNL1       -0.1547
     13 N           8.2554   -5.0217   28.9004 N.ar    1  UNL1       -0.1797
     14 C           8.5606   -4.5539   27.5083 C.ar    1  UNL1        0.3536
     15 O           8.7730   -3.0939   27.2373 O.2     1  UNL1       -0.2443
     16 C           8.9586   -5.0784   24.9950 C.3     1  UNL1        0.1453
     17 C           7.9518   -5.2739   23.9005 C.3     1  UNL1        0.1627
     18 O           8.0209   -6.4911   23.0265 O.3     1  UNL1       -0.3799
     19 H           7.3026   -6.4626   22.3752 H       1  UNL1        0.2105
     20 C           6.8759   -4.2522   23.6798 C.3     1  UNL1        0.1733
     21 C           4.6791   -3.7151   22.4008 C.3     1  UNL1        0.1742
     22 O           6.0723   -4.2709   22.4133 O.3     1  UNL1       -0.3485
     23 N           5.9180   -0.9469   31.1214 N.am    1  UNL1       -0.2808
     24 C           4.6311   -1.1878   31.8534 C.2     1  UNL1        0.2471
     25 O           4.4200   -2.4739   32.5961 O.2     1  UNL1       -0.2701
     26 H           6.0565   -0.1028   30.6340 H       1  UNL1        0.1552
     27 C           3.5552   -0.1427   31.8428 C.2     1  UNL1        0.0505
     28 C           2.5709   -0.0910   30.7122 C.2     1  UNL1        0.0680
     29 N           1.4950    0.9541   30.7016 N.am    1  UNL1       -0.2558
     30 C           0.5106    1.0057   29.5709 C.3     1  UNL1        0.1200
     31 C           1.4034    1.9476   31.8216 C.2     1  UNL1        0.2301
     32 O           0.3275    2.9928   31.8110 O.2     1  UNL1       -0.2745
     33 C           2.3878    1.8960   32.9523 C.3     1  UNL1        0.0945
     34 C           3.4637    0.8509   32.9629 C.3     1  UNL1        0.0594
     35 C           4.4480    0.7992   34.0936 C.ar    1  UNL1       -0.0176
     36 C           4.3090   -0.2445   35.1618 C.ar    1  UNL1       -0.0016
     37 C           5.2934   -0.2962   36.2925 C.ar    1  UNL1        0.0293
     38 C           6.4167    0.6959   36.3549 C.ar    1  UNL1        0.1401
     39 F           7.4010    0.6443   37.4855 F       1  UNL1       -0.2042
     40 C           6.5556    1.7397   35.2866 C.ar    1  UNL1        0.0293
     41 C           5.5713    1.7914   34.1560 C.ar    1  UNL1       -0.0016
@<TRIPOS>BOND
     1    21    22    1
     2    22    20    1
     3    20    17    1
     4    17    18    1
     5    17    16    1
     6    16     8    1
     7     8     9   ar
     8     9    10    2
     9     9    11   ar
    10    11    12   ar
    11    12    13   ar
    12    13     1    1
    13     1     2   ar
    14     2     3   ar
    15     3     4   ar
    16     4     5    1
    17     4     6   ar
    18     6    23    1
    19    23    24   am
    20    24    25    2
    21    24    27    1
    22    27    28    2
    23    28    29    1
    24    29    30    1
    25    29    31   am
    26    31    32    2
    27    31    33    1
    28    33    34    1
    29    34    35    1
    30    35    36   ar
    31    36    37   ar
    32    37    38   ar
    33    38    39    1
    34    38    40   ar
    35    40    41   ar
    36     6     7   ar
    37    13    14   ar
    38    14    15    2
    39    14     8   ar
    40     7     1   ar
    41    34    27    1
    42    41    35   ar
    43    18    19    1
    44    23    26    1
@<TRIPOS>MOLECULE
*****
 41 44 0 0 0
SMALL
GASTEIGER

@<TRIPOS>ATOM
      1 C           3.2295   -0.2207   23.7374 C.ar    1  UNL1        0.0886
      2 C           2.5825    1.0421   24.2238 C.ar    1  UNL1        0.0191
      3 C           2.4609    1.3037   25.6959 C.ar    1  UNL1       -0.0015
      4 C           2.9863    0.3024   26.6814 C.ar    1  UNL1       -0.0083
      5 C           2.8647    0.5638   28.1534 C.3     1  UNL1        0.0323
      6 C           3.6334   -0.9605   26.1949 C.ar    1  UNL1        0.0480
      7 C           3.7550   -1.2220   24.7230 C.ar    1  UNL1        0.0337
      8 N           4.8266   -0.7866   20.1486 N.ar    1  UNL1       -0.2434
      9 C           3.5946   -1.0053   19.3214 C.ar    1  UNL1        0.2855
     10 O           3.7162   -1.2668   17.8493 O.2     1  UNL1       -0.2651
     11 C           2.2409   -0.9624   19.9662 C.ar    1  UNL1        0.1813
     12 N           2.1192   -0.7009   21.4381 N.ar    1  UNL1       -0.1547
     13 N           3.3512   -0.4822   22.2653 N.ar    1  UNL1       -0.1797
     14 C           4.7049   -0.5251   21.6206 C.ar    1  UNL1        0.3536
     15 O           5.9369   -0.3064   22.4479 O.2     1  UNL1       -0.2443
     16 C           6.1802   -0.8294   19.5038 C.3     1  UNL1        0.1453
     17 C           6.7024   -2.1180   18.9410 C.3     1  UNL1        0.1627
     18 O           6.8132   -2.2974   17.4558 O.3     1  UNL1       -0.3799
     19 H           7.1657   -3.1801   17.2622 H       1  UNL1        0.2105
     20 C           7.1138   -3.2272   19.8631 C.3     1  UNL1        0.1733
     21 C           4.8774   -4.4667   19.4022 C.3     1  UNL1        0.1742
     22 O           6.1519   -4.3332   20.1819 O.3     1  UNL1       -0.3485
     23 N           4.1588   -1.9618   27.1805 N.am    1  UNL1       -0.2808
     24 C           5.5874   -1.8911   27.6321 C.2     1  UNL1        0.2471
     25 O           6.4907   -0.8191   27.0982 O.2     1  UNL1       -0.2701
     26 H           3.5660   -2.6653   27.5309 H       1  UNL1        0.1552
     27 C           6.1129   -2.8924   28.6177 C.2     1  UNL1        0.0505
     28 C           6.6632   -4.2018   28.1355 C.2     1  UNL1        0.0680
     29 N           7.1886   -5.2031   29.1210 N.am    1  UNL1       -0.2558
     30 C           7.7390   -6.5126   28.6387 C.3     1  UNL1        0.1200
     31 C           7.1637   -4.8950   30.5888 C.2     1  UNL1        0.2301
     32 O           7.6892   -5.8963   31.5743 O.2     1  UNL1       -0.2745
     33 C           6.6134   -3.5855   31.0711 C.3     1  UNL1        0.0945
     34 C           6.0880   -2.5842   30.0855 C.3     1  UNL1        0.0594
     35 C           5.5377   -1.2749   30.5677 C.ar    1  UNL1       -0.0176
     36 C           6.3608   -0.0265   30.4501 C.ar    1  UNL1       -0.0016
     37 C           5.8105    1.2830   30.9323 C.ar    1  UNL1        0.0293
     38 C           4.4370    1.3440   31.5322 C.ar    1  UNL1        0.1401
     39 F           3.8867    2.6534   32.0144 F       1  UNL1       -0.2042
     40 C           3.6139    0.0956   31.6498 C.ar    1  UNL1        0.0293
     41 C           4.1642   -1.2138   31.1676 C.ar    1  UNL1       -0.0016
@<TRIPOS>BOND
     1    21    22    1
     2    22    20    1
     3    20    17    1
     4    17    18    1
     5    17    16    1
     6    16     8    1
     7     8     9   ar
     8     9    10    2
     9     9    11   ar
    10    11    12   ar
    11    12    13   ar
    12    13     1    1
    13     1     2   ar
    14     2     3   ar
    15     3     4   ar
    16     4     5    1
    17     4     6   ar
    18     6    23    1
    19    23    24   am
    20    24    25    2
    21    24    27    1
    22    27    28    2
    23    28    29    1
    24    29    30    1
    25    29    31   am
    26    31    32    2
    27    31    33    1
    28    33    34    1
    29    34    35    1
    30    35    36   ar
    31    36    37   ar
    32    37    38   ar
    33    38    39    1
    34    38    40   ar
    35    40    41   ar
    36     6     7   ar
    37    13    14   ar
    38    14    15    2
    39    14     8   ar
    40     7     1   ar
    41    34    27    1
    42    41    35   ar
    43    18    19    1
    44    23    26    1
@<TRIPOS>MOLECULE
*****
 41 44 0 0 0
SMALL
GASTEIGER

@<TRIPOS>ATOM
      1 C           1.8067    1.0076   25.6930 C.ar    1  UNL1        0.0886
      2 C           2.9499    0.0827   25.3973 C.ar    1  UNL1        0.0191
      3 C           3.4733   -0.0391   23.9968 C.ar    1  UNL1       -0.0015
      4 C           2.8533    0.7640   22.8920 C.ar    1  UNL1       -0.0083
      5 C           3.3766    0.6423   21.4915 C.3     1  UNL1        0.0323
      6 C           1.7100    1.6890   23.1877 C.ar    1  UNL1        0.0480
      7 C           1.1867    1.8108   24.5882 C.ar    1  UNL1        0.0337
      8 N           1.6619    1.7305   29.5925 N.ar    1  UNL1       -0.2434
      9 C           0.2368    1.3731   29.8944 C.ar    1  UNL1        0.2855
     10 O          -0.2865    1.4949   31.2949 O.2     1  UNL1       -0.2651
     11 C          -0.6651    0.8938   28.7958 C.ar    1  UNL1        0.1813
     12 N          -0.1418    0.7720   27.3953 N.ar    1  UNL1       -0.1547
     13 N           1.2833    1.1294   27.0935 N.ar    1  UNL1       -0.1797
     14 C           2.1852    1.6087   28.1921 C.ar    1  UNL1        0.3536
     15 O           3.6104    1.9662   27.8902 O.2     1  UNL1       -0.2443
     16 C           2.5638    2.2098   30.6911 C.3     1  UNL1        0.1453
     17 C           2.9492    1.2809   31.8040 C.3     1  UNL1        0.1627
     18 O           2.2035    1.3191   33.1050 O.3     1  UNL1       -0.3799
     19 H           2.5765    0.6600   33.7110 H       1  UNL1        0.2105
     20 C           4.0802    0.3138   31.6160 C.3     1  UNL1        0.1733
     21 C           5.3167   -0.9647   29.7222 C.3     1  UNL1        0.1742
     22 O           4.0549   -0.6568   30.4725 O.3     1  UNL1       -0.3485
     23 N           1.0900    2.4922   22.0829 N.am    1  UNL1       -0.2808
     24 C           0.1942    1.8246   21.0820 C.2     1  UNL1        0.2471
     25 O          -0.0816    0.3538   21.1858 O.2     1  UNL1       -0.2701
     26 H           1.2711    3.4575   22.0147 H       1  UNL1        0.1552
     27 C          -0.4257    2.6277   19.9772 C.2     1  UNL1        0.0505
     28 C          -1.7473    3.3040   20.1921 C.2     1  UNL1        0.0680
     29 N          -2.3672    4.1071   19.0873 N.am    1  UNL1       -0.2558
     30 C          -3.6888    4.7834   19.3022 C.3     1  UNL1        0.1200
     31 C          -1.6656    4.2340   17.7676 C.2     1  UNL1        0.2301
     32 O          -2.2856    5.0372   16.6628 O.2     1  UNL1       -0.2745
     33 C          -0.3440    3.5578   17.5526 C.3     1  UNL1        0.0945
     34 C           0.2759    2.7546   18.6574 C.3     1  UNL1        0.0594
     35 C           1.5975    2.0784   18.4425 C.ar    1  UNL1       -0.0176
     36 C           1.6481    0.6103   18.1393 C.ar    1  UNL1       -0.0016
     37 C           2.9697   -0.0660   17.9244 C.ar    1  UNL1        0.0293
     38 C           4.2406    0.7259   18.0127 C.ar    1  UNL1        0.1401
     39 F           5.5621    0.0497   17.7978 F       1  UNL1       -0.2042
     40 C           4.1898    2.1941   18.3160 C.ar    1  UNL1        0.0293
     41 C           2.8683    2.8703   18.5309 C.ar    1  UNL1       -0.0016
@<TRIPOS>BOND
     1    21    22    1
     2    22    20    1
     3    20    17    1
     4    17    18    1
     5    17    16    1
     6    16     8    1
     7     8     9   ar
     8     9    10    2
     9     9    11   ar
    10    11    12   ar
    11    12    13   ar
    12    13     1    1
    13     1     2   ar
    14     2     3   ar
    15     3     4   ar
    16     4     5    1
    17     4     6   ar
    18     6    23    1
    19    23    24   am
    20    24    25    2
    21    24    27    1
    22    27    28    2
    23    28    29    1
    24    29    30    1
    25    29    31   am
    26    31    32    2
    27    31    33    1
    28    33    34    1
    29    34    35    1
    30    35    36   ar
    31    36    37   ar
    32    37    38   ar
    33    38    39    1
    34    38    40   ar
    35    40    41   ar
    36     6     7   ar
    37    13    14   ar
    38    14    15    2
    39    14     8   ar
    40     7     1   ar
    41    34    27    1
    42    41    35   ar
    43    18    19    1
    44    23    26    1
