@<TRIPOS>MOLECULE
*****
 35 39 0 0 0
SMALL
GASTEIGER

@<TRIPOS>ATOM
      1 C           6.2181   -3.0729   28.5535 C.ar    1  UNL1       -0.0024
      2 C           5.4460   -1.7883   28.4939 C.ar    1  UNL1       -0.0013
      3 C           5.0693   -1.0801   29.7614 C.ar    1  UNL1        0.0181
      4 C           5.4649   -1.6566   31.0886 C.ar    1  UNL1        0.1056
      5 C           6.2370   -2.9412   31.1481 C.ar    1  UNL1        0.0181
      6 C           6.6136   -3.6494   29.8806 C.ar    1  UNL1       -0.0013
      7 S           5.0883   -0.9484   32.3561 S.O2    1  UNL1        0.0071
      8 O           6.1972    0.0371   32.1349 O.2     1  UNL1       -0.1687
      9 O           3.9794   -1.9340   32.5772 O.2     1  UNL1       -0.1687
     10 C           4.7116   -0.2403   33.6236 C.3     1  UNL1        0.1366
     11 C           5.1719   -0.7758   34.9471 C.3     1  UNL1        0.0413
     12 C           4.7953   -0.0677   36.2146 C.3     1  UNL1        0.0738
     13 N           3.9584    1.1760   36.1588 N.3     1  UNL1       -0.2737
     14 C           3.4982    1.7115   34.8354 C.3     1  UNL1        0.0738
     15 C           3.8748    1.0033   33.5678 C.3     1  UNL1        0.0413
     16 C           3.5818    1.8841   37.4263 C.3     1  UNL1        0.0625
     17 C           4.5795    2.7651   38.1181 C.3     1  UNL1        0.0481
     18 C           4.2029    3.4732   39.3857 C.3     1  UNL1        0.1435
     19 O           2.8287    3.3004   39.9614 O.3     1  UNL1       -0.3537
     20 C           1.8310    2.4195   39.2696 C.3     1  UNL1        0.1435
     21 C           2.2076    1.7113   38.0020 C.3     1  UNL1        0.0481
     22 C           6.5948   -3.7811   27.2859 C.3     1  UNL1        0.1177
     23 O           7.6904   -4.8204   24.6938 O.2     1  UNL1       -0.2526
     24 C           6.4975   -3.9111   24.6929 C.2     1  UNL1        0.3047
     25 N           5.9496   -3.3915   25.9890 N.am    1  UNL1       -0.2847
     26 N           5.8523   -3.5214   23.3960 N.am    1  UNL1       -0.2560
     27 C           6.2862   -3.9598   22.0287 C.3     1  UNL1        0.1218
     28 C           5.3621   -3.3343   21.0263 C.ar    1  UNL1       -0.0016
     29 C           5.3060   -3.4094   19.5293 C.ar    1  UNL1        0.0178
     30 C           4.2448   -2.6595   18.7800 C.ar    1  UNL1        0.0986
     31 N           3.2397   -1.8345   19.5279 N.ar    1  UNL1       -0.2426
     32 C           3.2958   -1.7594   21.0249 C.ar    1  UNL1        0.0960
     33 C           4.3571   -2.5093   21.7741 C.ar    1  UNL1        0.0146
     34 C           4.6600   -2.6250   23.2386 C.3     1  UNL1        0.1233
     35 H           5.1666   -2.7947   25.9884 H       1  UNL1        0.1513
@<TRIPOS>BOND
     1    23    24    2
     2    24    25   am
     3    25    22    1
     4    22     1    1
     5     1     2   ar
     6     2     3   ar
     7     3     4   ar
     8     4     7    1
     9     7     8    2
    10     7     9    2
    11     7    10    1
    12    10    11    1
    13    11    12    1
    14    12    13    1
    15    13    16    1
    16    16    17    1
    17    17    18    1
    18    18    19    1
    19    19    20    1
    20    20    21    1
    21    13    14    1
    22    14    15    1
    23     4     5   ar
    24     5     6   ar
    25    24    26   am
    26    26    27    1
    27    27    28    1
    28    28    29   ar
    29    29    30   ar
    30    30    31   ar
    31    31    32   ar
    32    32    33   ar
    33    33    34    1
    34     6     1   ar
    35    34    26    1
    36    15    10    1
    37    33    28   ar
    38    21    16    1
    39    25    35    1
@<TRIPOS>MOLECULE
*****
 35 39 0 0 0
SMALL
GASTEIGER

@<TRIPOS>ATOM
      1 C           6.2205   -3.0122   28.5407 C.ar    1  UNL1       -0.0024
      2 C           5.4439   -1.7301   28.4855 C.ar    1  UNL1       -0.0013
      3 C           5.0612   -1.0297   29.7556 C.ar    1  UNL1        0.0181
      4 C           5.4551   -1.6115   31.0809 C.ar    1  UNL1        0.1056
      5 C           6.2317   -2.8937   31.1360 C.ar    1  UNL1        0.0181
      6 C           6.6144   -3.5940   29.8660 C.ar    1  UNL1       -0.0013
      7 S           5.0724   -0.9112   32.3509 S.O2    1  UNL1        0.0071
      8 O           3.7729   -1.6600   32.3722 O.2     1  UNL1       -0.1687
      9 O           6.3719   -0.1624   32.3296 O.2     1  UNL1       -0.1687
     10 C           4.6897   -0.2109   33.6210 C.3     1  UNL1        0.1366
     11 C           3.8754    1.0477   33.5674 C.3     1  UNL1        0.0413
     12 C           3.4927    1.7480   34.8375 C.3     1  UNL1        0.0738
     13 N           3.9243    1.1897   36.1611 N.3     1  UNL1       -0.2737
     14 C           4.7385   -0.0689   36.2147 C.3     1  UNL1        0.0738
     15 C           5.1212   -0.7693   34.9446 C.3     1  UNL1        0.0413
     16 C           3.5416    1.8900   37.4312 C.3     1  UNL1        0.0625
     17 C           2.2262    1.5891   38.0865 C.3     1  UNL1        0.0481
     18 C           1.8435    2.2894   39.3566 C.3     1  UNL1        0.1435
     19 O           2.7761    3.2906   39.9714 O.3     1  UNL1       -0.3537
     20 C           4.0914    3.5915   39.3161 C.3     1  UNL1        0.1435
     21 C           4.4741    2.8912   38.0459 C.3     1  UNL1        0.0481
     22 C           6.6033   -3.7125   27.2706 C.3     1  UNL1        0.1177
     23 O           7.6488   -4.8071   24.6806 O.2     1  UNL1       -0.2526
     24 C           6.4742   -3.8743   24.6808 C.2     1  UNL1        0.3047
     25 N           5.9514   -3.3270   25.9758 N.am    1  UNL1       -0.2847
     26 N           5.8224   -3.4888   23.3860 N.am    1  UNL1       -0.2560
     27 C           6.2320   -3.9535   22.0199 C.3     1  UNL1        0.1218
     28 C           5.3093   -3.3228   21.0196 C.ar    1  UNL1       -0.0016
     29 C           5.2348   -3.4162   19.5244 C.ar    1  UNL1        0.0178
     30 C           4.1803   -2.6550   18.7770 C.ar    1  UNL1        0.0986
     31 N           3.2002   -1.8005   19.5249 N.ar    1  UNL1       -0.2426
     32 C           3.2747   -1.7070   21.0201 C.ar    1  UNL1        0.0960
     33 C           4.3292   -2.4682   21.7674 C.ar    1  UNL1        0.0146
     34 C           4.6464   -2.5708   23.2299 C.3     1  UNL1        0.1233
     35 H           5.1805   -2.7147   25.9760 H       1  UNL1        0.1513
@<TRIPOS>BOND
     1    23    24    2
     2    24    25   am
     3    25    22    1
     4    22     1    1
     5     1     2   ar
     6     2     3   ar
     7     3     4   ar
     8     4     7    1
     9     7     8    2
    10     7     9    2
    11     7    10    1
    12    10    11    1
    13    11    12    1
    14    12    13    1
    15    13    16    1
    16    16    17    1
    17    17    18    1
    18    18    19    1
    19    19    20    1
    20    20    21    1
    21    13    14    1
    22    14    15    1
    23     4     5   ar
    24     5     6   ar
    25    24    26   am
    26    26    27    1
    27    27    28    1
    28    28    29   ar
    29    29    30   ar
    30    30    31   ar
    31    31    32   ar
    32    32    33   ar
    33    33    34    1
    34     6     1   ar
    35    34    26    1
    36    15    10    1
    37    33    28   ar
    38    21    16    1
    39    25    35    1
@<TRIPOS>MOLECULE
*****
 35 39 0 0 0
SMALL
GASTEIGER

@<TRIPOS>ATOM
      1 C           6.9061   -4.5888   27.9583 C.ar    1  UNL1       -0.0024
      2 C           6.4077   -3.1749   27.9091 C.ar    1  UNL1       -0.0013
      3 C           6.1616   -2.4216   29.1827 C.ar    1  UNL1        0.0181
      4 C           6.4141   -3.0822   30.5055 C.ar    1  UNL1        0.1056
      5 C           6.9125   -4.4962   30.5547 C.ar    1  UNL1        0.0181
      6 C           7.1585   -5.2494   29.2811 C.ar    1  UNL1       -0.0013
      7 S           6.1681   -2.3289   31.7791 S.O2    1  UNL1        0.0071
      8 O           5.0649   -1.5619   31.1124 O.2     1  UNL1       -0.1687
      9 O           7.2713   -3.0960   32.4458 O.2     1  UNL1       -0.1687
     10 C           5.9221   -1.5757   33.0527 C.3     1  UNL1        0.1366
     11 C           4.5724   -1.6263   33.7053 C.3     1  UNL1        0.0413
     12 C           4.3264   -0.8731   34.9789 C.3     1  UNL1        0.0738
     13 N           5.4300   -0.0692   35.5999 N.3     1  UNL1       -0.2737
     14 C           6.7797   -0.0185   34.9474 C.3     1  UNL1        0.0738
     15 C           7.0257   -0.7718   33.6737 C.3     1  UNL1        0.0413
     16 C           5.1840    0.6841   36.8735 C.3     1  UNL1        0.0625
     17 C           3.8530    0.5854   37.5581 C.3     1  UNL1        0.0481
     18 C           3.6070    1.3387   38.8317 C.3     1  UNL1        0.1435
     19 O           4.6920    2.1906   39.4207 O.3     1  UNL1       -0.3537
     20 C           6.0230    2.2893   38.7362 C.3     1  UNL1        0.1435
     21 C           6.2690    1.5360   37.4625 C.3     1  UNL1        0.0481
     22 C           7.1521   -5.3421   26.6847 C.3     1  UNL1        0.1177
     23 O           8.8847   -4.7194   24.3162 O.2     1  UNL1       -0.2526
     24 C           7.3963   -4.5608   24.2190 C.2     1  UNL1        0.3047
     25 N           6.5300   -4.8721   25.4032 N.am    1  UNL1       -0.2847
     26 N           6.7743   -4.0908   22.9375 N.am    1  UNL1       -0.2560
     27 C           7.5085   -3.7432   21.6765 C.3     1  UNL1        0.1218
     28 C           6.4968   -3.3235   20.6517 C.ar    1  UNL1       -0.0016
     29 C           6.6378   -2.8724   19.2281 C.ar    1  UNL1        0.0178
     30 C           5.4193   -2.5095   18.4322 C.ar    1  UNL1        0.0986
     31 N           4.0598   -2.5976   19.0598 N.ar    1  UNL1       -0.2426
     32 C           3.9188   -3.0487   20.4834 C.ar    1  UNL1        0.0960
     33 C           5.1372   -3.4116   21.2793 C.ar    1  UNL1        0.0146
     34 C           5.3088   -3.8859   22.6920 C.3     1  UNL1        0.1233
     35 H           5.5531   -4.7680   25.3394 H       1  UNL1        0.1513
@<TRIPOS>BOND
     1    23    24    2
     2    24    25   am
     3    25    22    1
     4    22     1    1
     5     1     2   ar
     6     2     3   ar
     7     3     4   ar
     8     4     7    1
     9     7     8    2
    10     7     9    2
    11     7    10    1
    12    10    11    1
    13    11    12    1
    14    12    13    1
    15    13    16    1
    16    16    17    1
    17    17    18    1
    18    18    19    1
    19    19    20    1
    20    20    21    1
    21    13    14    1
    22    14    15    1
    23     4     5   ar
    24     5     6   ar
    25    24    26   am
    26    26    27    1
    27    27    28    1
    28    28    29   ar
    29    29    30   ar
    30    30    31   ar
    31    31    32   ar
    32    32    33   ar
    33    33    34    1
    34     6     1   ar
    35    34    26    1
    36    15    10    1
    37    33    28   ar
    38    21    16    1
    39    25    35    1
@<TRIPOS>MOLECULE
*****
 35 39 0 0 0
SMALL
GASTEIGER

@<TRIPOS>ATOM
      1 C           0.5114    1.3611   26.6891 C.ar    1  UNL1       -0.0024
      2 C          -0.4321    1.0151   27.8026 C.ar    1  UNL1       -0.0013
      3 C           0.0371    1.0660   29.2265 C.ar    1  UNL1        0.0181
      4 C           1.4500    1.4630   29.5367 C.ar    1  UNL1        0.1056
      5 C           2.3936    1.8090   28.4232 C.ar    1  UNL1        0.0181
      6 C           1.9243    1.7581   26.9994 C.ar    1  UNL1       -0.0013
      7 S           1.9192    1.5140   30.9605 S.O2    1  UNL1        0.0071
      8 O           1.7629    3.0058   30.9587 O.2     1  UNL1       -0.1687
      9 O           2.0756    0.0222   30.9624 O.2     1  UNL1       -0.1687
     10 C           2.3885    1.5649   32.3843 C.3     1  UNL1        0.1366
     11 C           3.4372    0.6052   32.8631 C.3     1  UNL1        0.0413
     12 C           3.9065    0.6562   34.2869 C.3     1  UNL1        0.0738
     13 N           3.3271    1.6668   35.2319 N.3     1  UNL1       -0.2737
     14 C           2.2784    2.6265   34.7531 C.3     1  UNL1        0.0738
     15 C           1.8091    2.5755   33.3292 C.3     1  UNL1        0.0413
     16 C           3.7964    1.7178   36.6556 C.3     1  UNL1        0.0625
     17 C           5.1468    2.2844   36.9804 C.3     1  UNL1        0.0481
     18 C           5.6161    2.3353   38.4042 C.3     1  UNL1        0.1435
     19 O           4.7350    1.8197   39.5032 O.3     1  UNL1       -0.3537
     20 C           3.3847    1.2531   39.1785 C.3     1  UNL1        0.1435
     21 C           2.9153    1.2021   37.7546 C.3     1  UNL1        0.0481
     22 C           0.0422    1.3102   25.2653 C.3     1  UNL1        0.1177
     23 O          -0.0662    2.2424   22.4159 O.2     1  UNL1       -0.2526
     24 C           0.8280    1.1003   22.7978 C.2     1  UNL1        0.3047
     25 N           0.8822    0.6342   24.2225 N.am    1  UNL1       -0.2847
     26 N           1.6681    0.4243   21.7551 N.am    1  UNL1       -0.2560
     27 C           1.7189    0.7781   20.2983 C.3     1  UNL1        0.1218
     28 C           2.6870   -0.1517   19.6288 C.ar    1  UNL1       -0.0016
     29 C           3.1407   -0.2728   18.2043 C.ar    1  UNL1        0.0178
     30 C           4.1420   -1.3225   17.8228 C.ar    1  UNL1        0.0986
     31 N           4.6896   -2.2510   18.8658 N.ar    1  UNL1       -0.2426
     32 C           4.2359   -2.1299   20.2904 C.ar    1  UNL1        0.0960
     33 C           3.2346   -1.0802   20.6719 C.ar    1  UNL1        0.0146
     34 C           2.6049   -0.7242   21.9860 C.3     1  UNL1        0.1233
     35 H           1.4692   -0.1154   24.4732 H       1  UNL1        0.1513
@<TRIPOS>BOND
     1    23    24    2
     2    24    25   am
     3    25    22    1
     4    22     1    1
     5     1     2   ar
     6     2     3   ar
     7     3     4   ar
     8     4     7    1
     9     7     8    2
    10     7     9    2
    11     7    10    1
    12    10    11    1
    13    11    12    1
    14    12    13    1
    15    13    16    1
    16    16    17    1
    17    17    18    1
    18    18    19    1
    19    19    20    1
    20    20    21    1
    21    13    14    1
    22    14    15    1
    23     4     5   ar
    24     5     6   ar
    25    24    26   am
    26    26    27    1
    27    27    28    1
    28    28    29   ar
    29    29    30   ar
    30    30    31   ar
    31    31    32   ar
    32    32    33   ar
    33    33    34    1
    34     6     1   ar
    35    34    26    1
    36    15    10    1
    37    33    28   ar
    38    21    16    1
    39    25    35    1
@<TRIPOS>MOLECULE
*****
 35 39 0 0 0
SMALL
GASTEIGER

@<TRIPOS>ATOM
      1 C           0.2333    1.8892   26.1753 C.ar    1  UNL1       -0.0024
      2 C           1.4730    2.6328   26.5755 C.ar    1  UNL1       -0.0013
      3 C           1.8813    2.6888   28.0178 C.ar    1  UNL1        0.0181
      4 C           1.0499    2.0012   29.0599 C.ar    1  UNL1        0.1056
      5 C          -0.1898    1.2575   28.6597 C.ar    1  UNL1        0.0181
      6 C          -0.5981    1.2016   27.2174 C.ar    1  UNL1       -0.0013
      7 S           1.4582    2.0571   30.5022 S.O2    1  UNL1        0.0071
      8 O           1.3077    0.5681   30.6025 O.2     1  UNL1       -0.1687
      9 O           1.6086    3.5462   30.4018 O.2     1  UNL1       -0.1687
     10 C           1.8665    2.1131   31.9444 C.3     1  UNL1        0.1366
     11 C           1.3307    3.1955   32.8341 C.3     1  UNL1        0.0413
     12 C           1.7390    3.2515   34.2764 C.3     1  UNL1        0.0738
     13 N           2.6830    2.2251   34.8290 N.3     1  UNL1       -0.2737
     14 C           3.2187    1.1427   33.9394 C.3     1  UNL1        0.0738
     15 C           2.8105    1.0867   32.4970 C.3     1  UNL1        0.0413
     16 C           3.0913    2.2811   36.2713 C.3     1  UNL1        0.0625
     17 C           2.5907    3.3889   37.1500 C.3     1  UNL1        0.0481
     18 C           2.9990    3.4449   38.5923 C.3     1  UNL1        0.1435
     19 O           3.9078    2.3930   39.1558 O.3     1  UNL1       -0.3537
     20 C           4.4084    1.2852   38.2772 C.3     1  UNL1        0.1435
     21 C           4.0001    1.2292   36.8348 C.3     1  UNL1        0.0481
     22 C          -0.1750    1.8332   24.7330 C.3     1  UNL1        0.1177
     23 O          -0.1212    2.6825   21.8563 O.2     1  UNL1       -0.2526
     24 C           0.6921    1.5051   22.3060 C.2     1  UNL1        0.3047
     25 N           0.6652    1.0805   23.7444 N.am    1  UNL1       -0.2847
     26 N           1.5324    0.7524   21.3174 N.am    1  UNL1       -0.2560
     27 C           1.6589    1.0583   19.8544 C.3     1  UNL1        0.1218
     28 C           2.5983    0.0566   19.2509 C.ar    1  UNL1       -0.0016
     29 C           3.0990   -0.1328   17.8497 C.ar    1  UNL1        0.0178
     30 C           4.0536   -1.2471   17.5386 C.ar    1  UNL1        0.0986
     31 N           4.5077   -2.1720   18.6287 N.ar    1  UNL1       -0.2426
     32 C           4.0071   -1.9827   20.0299 C.ar    1  UNL1        0.0960
     33 C           3.0524   -0.8683   20.3410 C.ar    1  UNL1        0.0146
     34 C           2.3936   -0.4383   21.6181 C.3     1  UNL1        0.1233
     35 H           1.1990    0.3078   24.0396 H       1  UNL1        0.1513
@<TRIPOS>BOND
     1    23    24    2
     2    24    25   am
     3    25    22    1
     4    22     1    1
     5     1     2   ar
     6     2     3   ar
     7     3     4   ar
     8     4     7    1
     9     7     8    2
    10     7     9    2
    11     7    10    1
    12    10    11    1
    13    11    12    1
    14    12    13    1
    15    13    16    1
    16    16    17    1
    17    17    18    1
    18    18    19    1
    19    19    20    1
    20    20    21    1
    21    13    14    1
    22    14    15    1
    23     4     5   ar
    24     5     6   ar
    25    24    26   am
    26    26    27    1
    27    27    28    1
    28    28    29   ar
    29    29    30   ar
    30    30    31   ar
    31    31    32   ar
    32    32    33   ar
    33    33    34    1
    34     6     1   ar
    35    34    26    1
    36    15    10    1
    37    33    28   ar
    38    21    16    1
    39    25    35    1
@<TRIPOS>MOLECULE
*****
 35 39 0 0 0
SMALL
GASTEIGER

@<TRIPOS>ATOM
      1 C           0.2506    1.9494   26.1913 C.ar    1  UNL1       -0.0024
      2 C          -0.5976    1.2722   27.2266 C.ar    1  UNL1       -0.0013
      3 C          -0.2036    1.3288   28.6729 C.ar    1  UNL1        0.0181
      4 C           1.0385    2.0625   29.0837 C.ar    1  UNL1        0.1056
      5 C           1.8867    2.7396   28.0483 C.ar    1  UNL1        0.0181
      6 C           1.4927    2.6831   26.6021 C.ar    1  UNL1       -0.0013
      7 S           1.4325    2.1190   30.5299 S.O2    1  UNL1        0.0071
      8 O           0.2061    1.3361   30.8946 O.2     1  UNL1       -0.1687
      9 O           2.6589    2.9019   30.1652 O.2     1  UNL1       -0.1687
     10 C           1.8265    2.1756   31.9761 C.3     1  UNL1        0.1366
     11 C           1.2718    3.2506   32.8631 C.3     1  UNL1        0.0413
     12 C           1.6658    3.3072   34.3093 C.3     1  UNL1        0.0738
     13 N           2.6144    2.2888   34.8686 N.3     1  UNL1       -0.2737
     14 C           3.1691    1.2138   33.9817 C.3     1  UNL1        0.0738
     15 C           2.7751    1.1571   32.5354 C.3     1  UNL1        0.0413
     16 C           3.0084    2.3453   36.3148 C.3     1  UNL1        0.0625
     17 C           3.8918    1.2802   36.8937 C.3     1  UNL1        0.0481
     18 C           4.2858    1.3367   38.3399 C.3     1  UNL1        0.1435
     19 O           3.7964    2.4584   39.2073 O.3     1  UNL1       -0.3537
     20 C           2.9130    3.5235   38.6284 C.3     1  UNL1        0.1435
     21 C           2.5190    3.4670   37.1822 C.3     1  UNL1        0.0481
     22 C          -0.1434    1.8928   24.7450 C.3     1  UNL1        0.1177
     23 O          -0.0792    2.7064   21.8582 O.2     1  UNL1       -0.2526
     24 C           0.7296    1.5324   22.3247 C.2     1  UNL1        0.3047
     25 N           0.6975    1.1256   23.7681 N.am    1  UNL1       -0.2847
     26 N           1.5704    0.7651   21.3478 N.am    1  UNL1       -0.2560
     27 C           1.7019    1.0525   19.8814 C.3     1  UNL1        0.1218
     28 C           2.6402    0.0408   19.2931 C.ar    1  UNL1       -0.0016
     29 C           3.1442   -0.1672   17.8957 C.ar    1  UNL1        0.0178
     30 C           4.0966   -1.2880   17.6011 C.ar    1  UNL1        0.0986
     31 N           4.5449   -2.2007   18.7038 N.ar    1  UNL1       -0.2426
     32 C           4.0410   -1.9926   20.1011 C.ar    1  UNL1        0.0960
     33 C           3.0886   -0.8718   20.3958 C.ar    1  UNL1        0.0146
     34 C           2.4274   -0.4242   21.6656 C.3     1  UNL1        0.1233
     35 H           1.2283    0.3551   24.0743 H       1  UNL1        0.1513
@<TRIPOS>BOND
     1    23    24    2
     2    24    25   am
     3    25    22    1
     4    22     1    1
     5     1     2   ar
     6     2     3   ar
     7     3     4   ar
     8     4     7    1
     9     7     8    2
    10     7     9    2
    11     7    10    1
    12    10    11    1
    13    11    12    1
    14    12    13    1
    15    13    16    1
    16    16    17    1
    17    17    18    1
    18    18    19    1
    19    19    20    1
    20    20    21    1
    21    13    14    1
    22    14    15    1
    23     4     5   ar
    24     5     6   ar
    25    24    26   am
    26    26    27    1
    27    27    28    1
    28    28    29   ar
    29    29    30   ar
    30    30    31   ar
    31    31    32   ar
    32    32    33   ar
    33    33    34    1
    34     6     1   ar
    35    34    26    1
    36    15    10    1
    37    33    28   ar
    38    21    16    1
    39    25    35    1
@<TRIPOS>MOLECULE
*****
 35 39 0 0 0
SMALL
GASTEIGER

@<TRIPOS>ATOM
      1 C           1.4827    1.4355   19.1242 C.ar    1  UNL1       -0.0024
      2 C           2.9178    1.7738   19.3997 C.ar    1  UNL1       -0.0013
      3 C           3.8127    0.7666   20.0591 C.ar    1  UNL1        0.0181
      4 C           3.2723   -0.5790   20.4430 C.ar    1  UNL1        0.1056
      5 C           1.8371   -0.9174   20.1676 C.ar    1  UNL1        0.0181
      6 C           0.9424    0.0899   19.5082 C.ar    1  UNL1       -0.0013
      7 S           4.1671   -1.5862   21.1024 S.O2    1  UNL1        0.0071
      8 O           5.0098   -1.6489   19.8631 O.2     1  UNL1       -0.1687
      9 O           3.3244   -1.5235   22.3417 O.2     1  UNL1       -0.1687
     10 C           5.0619   -2.5934   21.7618 C.3     1  UNL1        0.1366
     11 C           6.0757   -3.3423   20.9484 C.3     1  UNL1        0.0413
     12 C           6.9705   -4.3495   21.6078 C.3     1  UNL1        0.0738
     13 N           6.8515   -4.6079   23.0806 N.3     1  UNL1       -0.2737
     14 C           5.8377   -3.8592   23.8940 C.3     1  UNL1        0.0738
     15 C           4.9429   -2.8519   23.2346 C.3     1  UNL1        0.0413
     16 C           7.7463   -5.6152   23.7400 C.3     1  UNL1        0.0625
     17 C           7.7482   -5.7525   25.2337 C.3     1  UNL1        0.0481
     18 C           8.6429   -6.7597   25.8931 C.3     1  UNL1        0.1435
     19 O           9.5358   -7.6296   25.0588 O.3     1  UNL1       -0.3537
     20 C           9.5340   -7.4923   23.5652 C.3     1  UNL1        0.1435
     21 C           8.6391   -6.4851   22.9057 C.3     1  UNL1        0.0481
     22 C           0.5878    2.4427   18.4648 C.3     1  UNL1        0.1177
     23 O           0.3465    2.9804   21.4063 O.2     1  UNL1       -0.2526
     24 C          -0.8717    3.0298   20.5324 C.2     1  UNL1        0.3047
     25 N          -0.7510    2.7610   19.0617 N.am    1  UNL1       -0.2847
     26 N          -2.2105    3.3481   21.1294 N.am    1  UNL1       -0.2560
     27 C          -2.4848    3.6376   22.5753 C.3     1  UNL1        0.1218
     28 C          -3.9539    3.9012   22.7248 C.ar    1  UNL1       -0.0016
     29 C          -4.7965    4.2401   23.9185 C.ar    1  UNL1        0.0178
     30 C          -6.2727    4.4524   23.7586 C.ar    1  UNL1        0.0986
     31 N          -6.9064    4.3257   22.4049 N.ar    1  UNL1       -0.2426
     32 C          -6.0638    3.9868   21.2112 C.ar    1  UNL1        0.0960
     33 C          -4.5875    3.7745   21.3711 C.ar    1  UNL1        0.0146
     34 C          -3.5100    3.4326   20.3851 C.3     1  UNL1        0.1233
     35 H          -1.5505    2.7934   18.4882 H       1  UNL1        0.1513
@<TRIPOS>BOND
     1    23    24    2
     2    24    25   am
     3    25    22    1
     4    22     1    1
     5     1     2   ar
     6     2     3   ar
     7     3     4   ar
     8     4     7    1
     9     7     8    2
    10     7     9    2
    11     7    10    1
    12    10    11    1
    13    11    12    1
    14    12    13    1
    15    13    16    1
    16    16    17    1
    17    17    18    1
    18    18    19    1
    19    19    20    1
    20    20    21    1
    21    13    14    1
    22    14    15    1
    23     4     5   ar
    24     5     6   ar
    25    24    26   am
    26    26    27    1
    27    27    28    1
    28    28    29   ar
    29    29    30   ar
    30    30    31   ar
    31    31    32   ar
    32    32    33   ar
    33    33    34    1
    34     6     1   ar
    35    34    26    1
    36    15    10    1
    37    33    28   ar
    38    21    16    1
    39    25    35    1
@<TRIPOS>MOLECULE
*****
 35 39 0 0 0
SMALL
GASTEIGER

@<TRIPOS>ATOM
      1 C           0.7494    2.4275   28.8973 C.ar    1  UNL1       -0.0024
      2 C           0.4562    3.8373   28.4772 C.ar    1  UNL1       -0.0013
      3 C          -0.4849    4.1004   27.3391 C.ar    1  UNL1        0.0181
      4 C          -1.1327    2.9537   26.6212 C.ar    1  UNL1        0.1056
      5 C          -0.8395    1.5439   27.0414 C.ar    1  UNL1        0.0181
      6 C           0.1016    1.2808   28.1794 C.ar    1  UNL1       -0.0013
      7 S          -2.0738    3.2168   25.4832 S.O2    1  UNL1        0.0071
      8 O          -3.1461    3.6016   26.4588 O.2     1  UNL1       -0.1687
      9 O          -1.0015    2.8319   24.5075 O.2     1  UNL1       -0.1687
     10 C          -3.0148    3.4798   24.3451 C.3     1  UNL1        0.1366
     11 C          -4.4893    3.5856   24.6002 C.3     1  UNL1        0.0413
     12 C          -5.4303    3.8487   23.4622 C.3     1  UNL1        0.0738
     13 N          -4.8970    4.0060   22.0690 N.3     1  UNL1       -0.2737
     14 C          -3.4227    3.9002   21.8139 C.3     1  UNL1        0.0738
     15 C          -2.4816    3.6371   22.9520 C.3     1  UNL1        0.0413
     16 C          -5.8381    4.2690   20.9310 C.3     1  UNL1        0.0625
     17 C          -6.7624    5.4495   20.9796 C.3     1  UNL1        0.0481
     18 C          -7.7034    5.7125   19.8416 C.3     1  UNL1        0.1435
     19 O          -7.7203    4.7952   18.6549 O.3     1  UNL1       -0.3537
     20 C          -6.7960    3.6148   18.6062 C.3     1  UNL1        0.1435
     21 C          -5.8549    3.3517   19.7443 C.3     1  UNL1        0.0481
     22 C           1.6905    2.1644   30.0354 C.3     1  UNL1        0.1177
     23 O           2.5722    0.6014   32.4394 O.2     1  UNL1       -0.2526
     24 C           3.1980    0.3369   31.1021 C.2     1  UNL1        0.3047
     25 N           2.7571    1.1184   29.9001 N.am    1  UNL1       -0.2847
     26 N           4.2646   -0.7091   30.9668 N.am    1  UNL1       -0.2560
     27 C           4.8052   -1.5654   32.0734 C.3     1  UNL1        0.1218
     28 C           5.8526   -2.4679   31.4916 C.ar    1  UNL1       -0.0016
     29 C           6.7229   -3.5230   32.1075 C.ar    1  UNL1        0.0178
     30 C           7.6999   -4.2795   31.2573 C.ar    1  UNL1        0.0986
     31 N           7.8067   -3.9810   29.7912 N.ar    1  UNL1       -0.2426
     32 C           6.9364   -2.9259   29.1753 C.ar    1  UNL1        0.0960
     33 C           5.9593   -2.1694   30.0255 C.ar    1  UNL1        0.0146
     34 C           4.9779   -1.0824   29.7012 C.3     1  UNL1        0.1233
     35 H           3.1678    0.9448   29.0224 H       1  UNL1        0.1513
@<TRIPOS>BOND
     1    23    24    2
     2    24    25   am
     3    25    22    1
     4    22     1    1
     5     1     2   ar
     6     2     3   ar
     7     3     4   ar
     8     4     7    1
     9     7     8    2
    10     7     9    2
    11     7    10    1
    12    10    11    1
    13    11    12    1
    14    12    13    1
    15    13    16    1
    16    16    17    1
    17    17    18    1
    18    18    19    1
    19    19    20    1
    20    20    21    1
    21    13    14    1
    22    14    15    1
    23     4     5   ar
    24     5     6   ar
    25    24    26   am
    26    26    27    1
    27    27    28    1
    28    28    29   ar
    29    29    30   ar
    30    30    31   ar
    31    31    32   ar
    32    32    33   ar
    33    33    34    1
    34     6     1   ar
    35    34    26    1
    36    15    10    1
    37    33    28   ar
    38    21    16    1
    39    25    35    1
@<TRIPOS>MOLECULE
*****
 35 39 0 0 0
SMALL
GASTEIGER

@<TRIPOS>ATOM
      1 C           6.0990   -2.1293   31.0239 C.ar    1  UNL1       -0.0024
      2 C           6.6438   -2.8916   29.8525 C.ar    1  UNL1       -0.0013
      3 C           6.1160   -2.6259   28.4737 C.ar    1  UNL1        0.0181
      4 C           5.0435   -1.5980   28.2664 C.ar    1  UNL1        0.1056
      5 C           4.4987   -0.8357   29.4378 C.ar    1  UNL1        0.0181
      6 C           5.0265   -1.1013   30.8165 C.ar    1  UNL1       -0.0013
      7 S           4.5158   -1.3323   26.8877 S.O2    1  UNL1        0.0071
      8 O           3.1233   -1.6206   27.3651 O.2     1  UNL1       -0.1687
      9 O           5.9082   -1.0440   26.4102 O.2     1  UNL1       -0.1687
     10 C           3.9880   -1.0666   25.5090 C.3     1  UNL1        0.1366
     11 C           4.4565   -1.9000   24.3530 C.3     1  UNL1        0.0413
     12 C           3.9288   -1.6343   22.9743 C.3     1  UNL1        0.0738
     13 N           2.9326   -0.5353   22.7515 N.3     1  UNL1       -0.2737
     14 C           2.4641    0.2981   23.9073 C.3     1  UNL1        0.0738
     15 C           2.9918    0.0324   25.2861 C.3     1  UNL1        0.0413
     16 C           2.4048   -0.2696   21.3728 C.3     1  UNL1        0.0625
     17 C           3.2511   -0.5783   20.1733 C.3     1  UNL1        0.0481
     18 C           2.7234   -0.3126   18.7946 C.3     1  UNL1        0.1435
     19 O           1.3494    0.2617   18.6153 O.3     1  UNL1       -0.3537
     20 C           0.5031    0.5704   19.8146 C.3     1  UNL1        0.1435
     21 C           1.0308    0.3047   21.1934 C.3     1  UNL1        0.0481
     22 C           6.6267   -2.3949   32.4027 C.3     1  UNL1        0.1177
     23 O           8.1675   -0.2277   33.7913 O.2     1  UNL1       -0.2526
     24 C           6.7997   -0.6049   34.2777 C.2     1  UNL1        0.3047
     25 N           6.0293   -1.6885   33.5834 N.am    1  UNL1       -0.2847
     26 N           6.2023    0.1015   35.4584 N.am    1  UNL1       -0.2560
     27 C           6.8498    1.1991   36.2495 C.3     1  UNL1        0.1218
     28 C           5.9002    1.6103   37.3353 C.ar    1  UNL1       -0.0016
     29 C           6.0001    2.6438   38.4179 C.ar    1  UNL1        0.0178
     30 C           4.8654    2.8338   39.3803 C.ar    1  UNL1        0.0986
     31 N           3.6308    1.9903   39.2603 N.ar    1  UNL1       -0.2426
     32 C           3.5309    0.9569   38.1778 C.ar    1  UNL1        0.0960
     33 C           4.6656    0.7668   37.2153 C.ar    1  UNL1        0.0146
     34 C           4.8523   -0.1656   36.0553 C.3     1  UNL1        0.1233
     35 H           5.1315   -1.9362   33.9026 H       1  UNL1        0.1513
@<TRIPOS>BOND
     1    23    24    2
     2    24    25   am
     3    25    22    1
     4    22     1    1
     5     1     2   ar
     6     2     3   ar
     7     3     4   ar
     8     4     7    1
     9     7     8    2
    10     7     9    2
    11     7    10    1
    12    10    11    1
    13    11    12    1
    14    12    13    1
    15    13    16    1
    16    16    17    1
    17    17    18    1
    18    18    19    1
    19    19    20    1
    20    20    21    1
    21    13    14    1
    22    14    15    1
    23     4     5   ar
    24     5     6   ar
    25    24    26   am
    26    26    27    1
    27    27    28    1
    28    28    29   ar
    29    29    30   ar
    30    30    31   ar
    31    31    32   ar
    32    32    33   ar
    33    33    34    1
    34     6     1   ar
    35    34    26    1
    36    15    10    1
    37    33    28   ar
    38    21    16    1
    39    25    35    1
