@<TRIPOS>MOLECULE
*****
 30 33 0 0 0
SMALL
GASTEIGER

@<TRIPOS>ATOM
      1 C          -4.4294    4.8427   25.2626 C.ar    1  UNL1        0.1056
      2 C          -4.6423    5.1054   23.8012 C.ar    1  UNL1        0.0214
      3 C          -3.6451    4.6087   22.7968 C.ar    1  UNL1        0.0379
      4 C          -2.4349    3.8493   23.2538 C.ar    1  UNL1        0.1342
      5 C          -2.2220    3.5866   24.7152 C.ar    1  UNL1        0.0132
      6 C          -3.2193    4.0833   25.7196 C.ar    1  UNL1        0.0171
      7 C          -1.0119    2.8272   25.1722 C.3     1  UNL1        0.0330
      8 C          -0.0145    2.3305   24.1678 C.3     1  UNL1        0.0449
      9 C          -0.2275    2.5933   22.7064 C.3     1  UNL1        0.1367
     10 C           0.9827    1.8339   23.1634 C.3     1  UNL1        0.0615
     11 C           1.9799    1.3372   22.1590 C.3     1  UNL1        0.0970
     12 N           1.7670    1.5999   20.6976 N.am    1  UNL1       -0.2790
     13 C           2.7643    1.1032   19.6932 C.2     1  UNL1        0.2301
     14 O           2.5514    1.3660   18.2318 O.2     1  UNL1       -0.2745
     15 C           0.5569    2.3593   20.2406 C.3     1  UNL1        0.0970
     16 C          -0.4404    2.8560   21.2450 C.3     1  UNL1        0.0615
     17 O          -1.4377    3.3527   22.2494 O.3     1  UNL1       -0.4828
     18 C          -6.4239    5.8360   27.2714 C.3     1  UNL1        0.1816
     19 S          -5.4266    5.3393   26.2670 S.O2    1  UNL1        0.0104
     20 O          -4.6412    4.6902   27.3677 O.2     1  UNL1       -0.1686
     21 O          -6.2120    5.9884   25.1662 O.2     1  UNL1       -0.1686
     22 C           3.9744    0.3439   20.1502 C.3     1  UNL1        0.1124
     23 C           4.1466   -1.0955   19.7645 C.ar    1  UNL1       -0.0024
     24 C           3.4621   -2.1708   20.5551 C.ar    1  UNL1       -0.0021
     25 C           3.6343   -3.6101   20.1694 C.ar    1  UNL1        0.0111
     26 C           4.4909   -3.9740   18.9930 C.ar    1  UNL1        0.0585
     27 CL          4.6630   -5.4133   18.6073 Cl      1  UNL1       -0.0822
     28 C           5.1753   -2.8986   18.2024 C.ar    1  UNL1        0.0225
     29 C           5.0031   -1.4594   18.5881 C.ar    1  UNL1        0.0550
     30 CL          5.6876   -0.3839   17.7975 Cl      1  UNL1       -0.0825
@<TRIPOS>BOND
     1    18    19    1
     2    19    20    2
     3    19    21    2
     4    19     1    1
     5     1     2   ar
     6     2     3   ar
     7     3     4   ar
     8     4     5   ar
     9     5     6   ar
    10     5     7    1
    11     7     8    1
    12     8     9    1
    13     9    10    1
    14    10    11    1
    15    11    12    1
    16    12    13   am
    17    13    14    2
    18    13    22    1
    19    22    23    1
    20    23    24   ar
    21    24    25   ar
    22    25    26   ar
    23    26    27    1
    24    26    28   ar
    25    28    29   ar
    26    29    30    1
    27    12    15    1
    28    15    16    1
    29     9    17    1
    30     6     1   ar
    31    16     9    1
    32    17     4    1
    33    29    23   ar
@<TRIPOS>MOLECULE
*****
 30 33 0 0 0
SMALL
GASTEIGER

@<TRIPOS>ATOM
      1 C          -0.7743    2.4798   20.8165 C.ar    1  UNL1        0.1056
      2 C          -0.4847    2.8370   22.2443 C.ar    1  UNL1        0.0214
      3 C           0.5516    2.0723   23.0133 C.ar    1  UNL1        0.0379
      4 C           1.2982    0.9504   22.3546 C.ar    1  UNL1        0.1342
      5 C           1.0085    0.5932   20.9268 C.ar    1  UNL1        0.0132
      6 C          -0.0278    1.3579   20.1578 C.ar    1  UNL1        0.0171
      7 C           1.7551   -0.5287   20.2681 C.3     1  UNL1        0.0330
      8 C           2.7914   -1.2934   21.0371 C.3     1  UNL1        0.0449
      9 C           3.0811   -0.9362   22.4649 C.3     1  UNL1        0.1367
     10 C           3.8276   -2.0581   21.8061 C.3     1  UNL1        0.0615
     11 C           4.8639   -2.8228   22.5751 C.3     1  UNL1        0.0970
     12 N           5.1535   -2.4656   24.0029 N.am    1  UNL1       -0.2790
     13 C           6.1898   -3.2303   24.7719 C.2     1  UNL1        0.2301
     14 O           6.4795   -2.8731   26.1997 O.2     1  UNL1       -0.2745
     15 C           4.4070   -1.3437   24.6616 C.3     1  UNL1        0.0970
     16 C           3.3707   -0.5790   23.8926 C.3     1  UNL1        0.0615
     17 O           2.3344    0.1857   23.1236 O.3     1  UNL1       -0.4828
     18 C          -2.8469    4.0092   19.2785 C.3     1  UNL1        0.1816
     19 S          -1.8106    3.2445   20.0475 S.O2    1  UNL1        0.0104
     20 O          -0.7704    3.6444   19.0435 O.2     1  UNL1       -0.1686
     21 O          -2.8508    2.8446   21.0515 O.2     1  UNL1       -0.1686
     22 C           6.9364   -4.3522   24.1132 C.3     1  UNL1        0.1124
     23 C           7.3425   -5.5545   24.9131 C.ar    1  UNL1       -0.0024
     24 C           6.8454   -5.7233   26.3182 C.ar    1  UNL1       -0.0021
     25 C           7.2515   -6.9255   27.1180 C.ar    1  UNL1        0.0111
     26 C           8.1547   -7.9589   26.5127 C.ar    1  UNL1        0.0585
     27 CL          8.5608   -9.1611   27.3126 Cl      1  UNL1       -0.0822
     28 C           8.6518   -7.7900   25.1076 C.ar    1  UNL1        0.0225
     29 C           8.2457   -6.5878   24.3078 C.ar    1  UNL1        0.0550
     30 CL          8.7429   -6.4189   22.9027 Cl      1  UNL1       -0.0825
@<TRIPOS>BOND
     1    18    19    1
     2    19    20    2
     3    19    21    2
     4    19     1    1
     5     1     2   ar
     6     2     3   ar
     7     3     4   ar
     8     4     5   ar
     9     5     6   ar
    10     5     7    1
    11     7     8    1
    12     8     9    1
    13     9    10    1
    14    10    11    1
    15    11    12    1
    16    12    13   am
    17    13    14    2
    18    13    22    1
    19    22    23    1
    20    23    24   ar
    21    24    25   ar
    22    25    26   ar
    23    26    27    1
    24    26    28   ar
    25    28    29   ar
    26    29    30    1
    27    12    15    1
    28    15    16    1
    29     9    17    1
    30     6     1   ar
    31    16     9    1
    32    17     4    1
    33    29    23   ar
@<TRIPOS>MOLECULE
*****
 30 33 0 0 0
SMALL
GASTEIGER

@<TRIPOS>ATOM
      1 C          -6.5486    4.9273   24.0521 C.ar    1  UNL1        0.1056
      2 C          -5.5290    4.9199   25.1522 C.ar    1  UNL1        0.0214
      3 C          -4.1204    4.4908   24.8664 C.ar    1  UNL1        0.0379
      4 C          -3.7314    4.0692   23.4804 C.ar    1  UNL1        0.1342
      5 C          -4.7510    4.0766   22.3802 C.ar    1  UNL1        0.0132
      6 C          -6.1597    4.5057   22.6661 C.ar    1  UNL1        0.0171
      7 C          -4.3621    3.6550   20.9943 C.3     1  UNL1        0.0330
      8 C          -2.9534    3.2259   20.7084 C.3     1  UNL1        0.0449
      9 C          -1.9338    3.2185   21.8085 C.3     1  UNL1        0.1367
     10 C          -1.5448    2.7968   20.4226 C.3     1  UNL1        0.0615
     11 C          -0.1362    2.3678   20.1368 C.3     1  UNL1        0.0970
     12 N           0.8834    2.3603   21.2369 N.am    1  UNL1       -0.2790
     13 C           2.2920    1.9312   20.9510 C.2     1  UNL1        0.2301
     14 O           3.3117    1.9237   22.0512 O.2     1  UNL1       -0.2745
     15 C           0.4944    2.7819   22.6229 C.3     1  UNL1        0.0970
     16 C          -0.9141    3.2110   22.9087 C.3     1  UNL1        0.0615
     17 O          -2.3228    3.6401   23.1946 O.3     1  UNL1       -0.4828
     18 C          -9.3659    5.7855   24.6237 C.3     1  UNL1        0.1816
     19 S          -7.9572    5.3564   24.3379 S.O2    1  UNL1        0.0104
     20 O          -8.4718    4.2370   23.4823 O.2     1  UNL1       -0.1686
     21 O          -7.4426    6.4758   25.1935 O.2     1  UNL1       -0.1686
     22 C           2.6810    1.5096   19.5651 C.3     1  UNL1        0.1124
     23 C           3.2261    0.1329   19.3251 C.ar    1  UNL1       -0.0024
     24 C           2.6161   -1.0473   20.0216 C.ar    1  UNL1       -0.0021
     25 C           3.1612   -2.4239   19.7816 C.ar    1  UNL1        0.0111
     26 C           4.3165   -2.6204   18.8452 C.ar    1  UNL1        0.0585
     27 CL          4.8616   -3.9971   18.6053 Cl      1  UNL1       -0.0822
     28 C           4.9265   -1.4403   18.1488 C.ar    1  UNL1        0.0225
     29 C           4.3814   -0.0636   18.3888 C.ar    1  UNL1        0.0550
     30 CL          4.9915    1.1166   17.6923 Cl      1  UNL1       -0.0825
@<TRIPOS>BOND
     1    18    19    1
     2    19    20    2
     3    19    21    2
     4    19     1    1
     5     1     2   ar
     6     2     3   ar
     7     3     4   ar
     8     4     5   ar
     9     5     6   ar
    10     5     7    1
    11     7     8    1
    12     8     9    1
    13     9    10    1
    14    10    11    1
    15    11    12    1
    16    12    13   am
    17    13    14    2
    18    13    22    1
    19    22    23    1
    20    23    24   ar
    21    24    25   ar
    22    25    26   ar
    23    26    27    1
    24    26    28   ar
    25    28    29   ar
    26    29    30    1
    27    12    15    1
    28    15    16    1
    29     9    17    1
    30     6     1   ar
    31    16     9    1
    32    17     4    1
    33    29    23   ar
@<TRIPOS>MOLECULE
*****
 30 33 0 0 0
SMALL
GASTEIGER

@<TRIPOS>ATOM
      1 C           3.8962   -2.4390   20.6395 C.ar    1  UNL1        0.1056
      2 C           4.0715   -2.1048   22.0912 C.ar    1  UNL1        0.0214
      3 C           3.2257   -1.0393   22.7231 C.ar    1  UNL1        0.0379
      4 C           2.2045   -0.3079   21.9032 C.ar    1  UNL1        0.1342
      5 C           2.0292   -0.6420   20.4514 C.ar    1  UNL1        0.0132
      6 C           2.8750   -1.7076   19.8196 C.ar    1  UNL1        0.0171
      7 C           1.0080    0.0894   19.6315 C.3     1  UNL1        0.0330
      8 C           0.1622    1.1550   20.2633 C.3     1  UNL1        0.0449
      9 C           0.3375    1.4891   21.7151 C.3     1  UNL1        0.1367
     10 C          -0.6836    2.2205   20.8951 C.3     1  UNL1        0.0615
     11 C          -1.5294    3.2860   21.5270 C.3     1  UNL1        0.0970
     12 N          -1.3541    3.6201   22.9787 N.am    1  UNL1       -0.2790
     13 C          -2.2000    4.6857   23.6106 C.2     1  UNL1        0.2301
     14 O          -2.0246    5.0198   25.0623 O.2     1  UNL1       -0.2745
     15 C          -0.3330    2.8887   23.7987 C.3     1  UNL1        0.0970
     16 C           0.5128    1.8232   23.1668 C.3     1  UNL1        0.0615
     17 O           1.3587    0.7576   22.5350 O.3     1  UNL1       -0.4828
     18 C           5.5878   -4.5700   19.3757 C.3     1  UNL1        0.1816
     19 S           4.7420   -3.5045   20.0076 S.O2    1  UNL1        0.0104
     20 O           4.7343   -4.2740   21.2951 O.2     1  UNL1       -0.1686
     21 O           4.7497   -2.7349   18.7202 O.2     1  UNL1       -0.1686
     22 C          -3.2211    5.4170   22.7906 C.3     1  UNL1        0.1124
     23 C          -4.6601    5.4210   23.2142 C.ar    1  UNL1       -0.0024
     24 C          -5.1829    6.5255   24.0840 C.ar    1  UNL1       -0.0021
     25 C          -6.6219    6.5293   24.5075 C.ar    1  UNL1        0.0111
     26 C          -7.5380    5.4287   24.0611 C.ar    1  UNL1        0.0585
     27 CL         -8.9770    5.4326   24.4846 Cl      1  UNL1       -0.0822
     28 C          -7.0152    4.3242   23.1912 C.ar    1  UNL1        0.0225
     29 C          -5.5763    4.3203   22.7678 C.ar    1  UNL1        0.0550
     30 CL         -5.0534    3.2158   21.8978 Cl      1  UNL1       -0.0825
@<TRIPOS>BOND
     1    18    19    1
     2    19    20    2
     3    19    21    2
     4    19     1    1
     5     1     2   ar
     6     2     3   ar
     7     3     4   ar
     8     4     5   ar
     9     5     6   ar
    10     5     7    1
    11     7     8    1
    12     8     9    1
    13     9    10    1
    14    10    11    1
    15    11    12    1
    16    12    13   am
    17    13    14    2
    18    13    22    1
    19    22    23    1
    20    23    24   ar
    21    24    25   ar
    22    25    26   ar
    23    26    27    1
    24    26    28   ar
    25    28    29   ar
    26    29    30    1
    27    12    15    1
    28    15    16    1
    29     9    17    1
    30     6     1   ar
    31    16     9    1
    32    17     4    1
    33    29    23   ar
@<TRIPOS>MOLECULE
*****
 30 33 0 0 0
SMALL
GASTEIGER

@<TRIPOS>ATOM
      1 C          -1.6267    4.0509   19.2768 C.ar    1  UNL1        0.1056
      2 C          -0.6998    4.3379   18.1329 C.ar    1  UNL1        0.0214
      3 C           0.4634    3.4298   17.8642 C.ar    1  UNL1        0.0379
      4 C           0.6998    2.2347   18.7393 C.ar    1  UNL1        0.1342
      5 C          -0.2271    1.9477   19.8832 C.ar    1  UNL1        0.0132
      6 C          -1.3904    2.8558   20.1520 C.ar    1  UNL1        0.0171
      7 C           0.0093    0.7526   20.7584 C.3     1  UNL1        0.0330
      8 C           1.1725   -0.1555   20.4896 C.3     1  UNL1        0.0449
      9 C           2.0994    0.1315   19.3457 C.3     1  UNL1        0.1367
     10 C           2.3358   -1.0636   20.2209 C.3     1  UNL1        0.0615
     11 C           3.4990   -1.9717   19.9521 C.3     1  UNL1        0.0970
     12 N           4.4259   -1.6847   18.8082 N.am    1  UNL1       -0.2790
     13 C           5.5891   -2.5928   18.5395 C.2     1  UNL1        0.2301
     14 O           6.5160   -2.3058   17.3956 O.2     1  UNL1       -0.2745
     15 C           4.1895   -0.4896   17.9331 C.3     1  UNL1        0.0970
     16 C           3.0263    0.4185   18.2018 C.3     1  UNL1        0.0615
     17 O           1.8630    1.3266   18.4706 O.3     1  UNL1       -0.4828
     18 C          -3.9532    5.8671   19.8144 C.3     1  UNL1        0.1816
     19 S          -2.7899    4.9589   19.5456 S.O2    1  UNL1        0.0104
     20 O          -3.5819    3.7927   20.0580 O.2     1  UNL1       -0.1686
     21 O          -1.9979    6.1252   19.0332 O.2     1  UNL1       -0.1686
     22 C           5.8255   -3.7879   19.4146 C.3     1  UNL1        0.1124
     23 C           6.7526   -3.6856   20.5894 C.ar    1  UNL1       -0.0024
     24 C           8.2262   -3.5123   20.3690 C.ar    1  UNL1       -0.0021
     25 C           9.1532   -3.4101   21.5438 C.ar    1  UNL1        0.0111
     26 C           8.6067   -3.4812   22.9389 C.ar    1  UNL1        0.0585
     27 CL          9.5339   -3.3789   24.1137 Cl      1  UNL1       -0.0822
     28 C           7.1332   -3.6545   23.1592 C.ar    1  UNL1        0.0225
     29 C           6.2061   -3.7567   21.9845 C.ar    1  UNL1        0.0550
     30 CL          4.7325   -3.9301   22.2048 Cl      1  UNL1       -0.0825
@<TRIPOS>BOND
     1    18    19    1
     2    19    20    2
     3    19    21    2
     4    19     1    1
     5     1     2   ar
     6     2     3   ar
     7     3     4   ar
     8     4     5   ar
     9     5     6   ar
    10     5     7    1
    11     7     8    1
    12     8     9    1
    13     9    10    1
    14    10    11    1
    15    11    12    1
    16    12    13   am
    17    13    14    2
    18    13    22    1
    19    22    23    1
    20    23    24   ar
    21    24    25   ar
    22    25    26   ar
    23    26    27    1
    24    26    28   ar
    25    28    29   ar
    26    29    30    1
    27    12    15    1
    28    15    16    1
    29     9    17    1
    30     6     1   ar
    31    16     9    1
    32    17     4    1
    33    29    23   ar
@<TRIPOS>MOLECULE
*****
 30 33 0 0 0
SMALL
GASTEIGER

@<TRIPOS>ATOM
      1 C          -5.4519    5.3758   25.9166 C.ar    1  UNL1        0.1056
      2 C          -5.9944    5.2508   24.5237 C.ar    1  UNL1        0.0214
      3 C          -5.1194    4.7310   23.4219 C.ar    1  UNL1        0.0379
      4 C          -3.7018    4.3362   23.7128 C.ar    1  UNL1        0.1342
      5 C          -3.1593    4.4612   25.1057 C.ar    1  UNL1        0.0132
      6 C          -4.0344    4.9810   26.2076 C.ar    1  UNL1        0.0171
      7 C          -1.7417    4.0665   25.3967 C.3     1  UNL1        0.0330
      8 C          -0.8666    3.5467   24.2948 C.3     1  UNL1        0.0449
      9 C          -1.4091    3.4217   22.9019 C.3     1  UNL1        0.1367
     10 C           0.0084    3.0269   23.1929 C.3     1  UNL1        0.0615
     11 C           0.8834    2.5072   22.0911 C.3     1  UNL1        0.0970
     12 N           0.3409    2.3822   20.6982 N.am    1  UNL1       -0.2790
     13 C           1.2160    1.8624   19.5963 C.2     1  UNL1        0.2301
     14 O           0.6735    1.7374   18.2035 O.2     1  UNL1       -0.2745
     15 C          -1.0766    2.7769   20.4072 C.3     1  UNL1        0.0970
     16 C          -1.9517    3.2967   21.5091 C.3     1  UNL1        0.0615
     17 O          -2.8268    3.8165   22.6110 O.3     1  UNL1       -0.4828
     18 C          -7.2020    6.4153   28.1203 C.3     1  UNL1        0.1816
     19 S          -6.3269    5.8956   27.0184 S.O2    1  UNL1        0.0104
     20 O          -5.1861    5.7690   27.9841 O.2     1  UNL1       -0.1686
     21 O          -7.4677    6.0221   26.0528 O.2     1  UNL1       -0.1686
     22 C           2.6335    1.4676   19.8873 C.3     1  UNL1        0.1124
     23 C           3.1109    0.0855   19.5528 C.ar    1  UNL1       -0.0024
     24 C           3.6136   -0.2210   18.1732 C.ar    1  UNL1       -0.0021
     25 C           4.0910   -1.6031   17.8388 C.ar    1  UNL1        0.0111
     26 C           4.0657   -2.6787   18.8840 C.ar    1  UNL1        0.0585
     27 CL          4.5431   -4.0609   18.5495 Cl      1  UNL1       -0.0822
     28 C           3.5630   -2.3723   20.2636 C.ar    1  UNL1        0.0225
     29 C           3.0856   -0.9902   20.5980 C.ar    1  UNL1        0.0550
     30 CL          2.5829   -0.6837   21.9777 Cl      1  UNL1       -0.0825
@<TRIPOS>BOND
     1    18    19    1
     2    19    20    2
     3    19    21    2
     4    19     1    1
     5     1     2   ar
     6     2     3   ar
     7     3     4   ar
     8     4     5   ar
     9     5     6   ar
    10     5     7    1
    11     7     8    1
    12     8     9    1
    13     9    10    1
    14    10    11    1
    15    11    12    1
    16    12    13   am
    17    13    14    2
    18    13    22    1
    19    22    23    1
    20    23    24   ar
    21    24    25   ar
    22    25    26   ar
    23    26    27    1
    24    26    28   ar
    25    28    29   ar
    26    29    30    1
    27    12    15    1
    28    15    16    1
    29     9    17    1
    30     6     1   ar
    31    16     9    1
    32    17     4    1
    33    29    23   ar
@<TRIPOS>MOLECULE
*****
 30 33 0 0 0
SMALL
GASTEIGER

@<TRIPOS>ATOM
      1 C           5.4884   -3.2973   22.9699 C.ar    1  UNL1        0.1056
      2 C           5.0000   -3.3420   21.5524 C.ar    1  UNL1        0.0214
      3 C           3.9315   -2.3928   21.0970 C.ar    1  UNL1        0.0379
      4 C           3.3514   -1.3989   22.0591 C.ar    1  UNL1        0.1342
      5 C           3.8398   -1.3542   23.4767 C.ar    1  UNL1        0.0132
      6 C           4.9083   -2.3035   23.9321 C.ar    1  UNL1        0.0171
      7 C           3.2598   -0.3604   24.4388 C.3     1  UNL1        0.0330
      8 C           2.1913    0.5889   23.9835 C.3     1  UNL1        0.0449
      9 C           1.7029    0.5442   22.5659 C.3     1  UNL1        0.1367
     10 C           1.1229    1.5381   23.5281 C.3     1  UNL1        0.0615
     11 C           0.0544    2.4873   23.0726 C.3     1  UNL1        0.0970
     12 N          -0.4339    2.4426   21.6551 N.am    1  UNL1       -0.2790
     13 C          -1.5024    3.3919   21.1997 C.2     1  UNL1        0.2301
     14 O          -1.9908    3.3472   19.7821 O.2     1  UNL1       -0.2745
     15 C           0.1461    1.4488   20.6929 C.3     1  UNL1        0.0970
     16 C           1.2145    0.4996   21.1483 C.3     1  UNL1        0.0615
     17 O           2.2830   -0.4497   21.6037 O.3     1  UNL1       -0.4828
     18 C           7.6253   -5.1958   23.8807 C.3     1  UNL1        0.1816
     19 S           6.5568   -4.2465   23.4253 S.O2    1  UNL1        0.0104
     20 O           6.2595   -3.8962   24.8532 O.2     1  UNL1       -0.1686
     21 O           6.8541   -4.5969   21.9975 O.2     1  UNL1       -0.1686
     22 C          -2.0825    4.3857   22.1618 C.3     1  UNL1        0.1124
     23 C          -3.5452    4.3447   22.4917 C.ar    1  UNL1       -0.0024
     24 C          -4.5550    4.8017   21.4811 C.ar    1  UNL1       -0.0021
     25 C          -6.0177    4.7607   21.8109 C.ar    1  UNL1        0.0111
     26 C          -6.4706    4.2626   23.1514 C.ar    1  UNL1        0.0585
     27 CL         -7.9334    4.2216   23.4812 Cl      1  UNL1       -0.0822
     28 C          -5.4608    3.8056   24.1620 C.ar    1  UNL1        0.0225
     29 C          -3.9981    3.8466   23.8321 C.ar    1  UNL1        0.0550
     30 CL         -2.9882    3.3896   24.8428 Cl      1  UNL1       -0.0825
@<TRIPOS>BOND
     1    18    19    1
     2    19    20    2
     3    19    21    2
     4    19     1    1
     5     1     2   ar
     6     2     3   ar
     7     3     4   ar
     8     4     5   ar
     9     5     6   ar
    10     5     7    1
    11     7     8    1
    12     8     9    1
    13     9    10    1
    14    10    11    1
    15    11    12    1
    16    12    13   am
    17    13    14    2
    18    13    22    1
    19    22    23    1
    20    23    24   ar
    21    24    25   ar
    22    25    26   ar
    23    26    27    1
    24    26    28   ar
    25    28    29   ar
    26    29    30    1
    27    12    15    1
    28    15    16    1
    29     9    17    1
    30     6     1   ar
    31    16     9    1
    32    17     4    1
    33    29    23   ar
@<TRIPOS>MOLECULE
*****
 30 33 0 0 0
SMALL
GASTEIGER

@<TRIPOS>ATOM
      1 C           1.5313    1.6888   29.6887 C.ar    1  UNL1        0.1056
      2 C           0.4608    2.4130   28.9273 C.ar    1  UNL1        0.0214
      3 C           0.3583    2.2510   27.4397 C.ar    1  UNL1        0.0379
      4 C           1.3264    1.3649   26.7132 C.ar    1  UNL1        0.1342
      5 C           2.3969    0.6407   27.4746 C.ar    1  UNL1        0.0132
      6 C           2.4993    0.8027   28.9623 C.ar    1  UNL1        0.0171
      7 C           3.3650   -0.2454   26.7482 C.3     1  UNL1        0.0330
      8 C           3.2626   -0.4074   25.2605 C.3     1  UNL1        0.0449
      9 C           2.1921    0.3168   24.4991 C.3     1  UNL1        0.1367
     10 C           3.1602   -0.5693   23.7728 C.3     1  UNL1        0.0615
     11 C           3.0577   -0.7313   22.2851 C.3     1  UNL1        0.0970
     12 N           1.9872   -0.0071   21.5238 N.am    1  UNL1       -0.2790
     13 C           1.8848   -0.1691   20.0360 C.2     1  UNL1        0.2301
     14 O           0.8143    0.5551   19.2747 O.2     1  UNL1       -0.2745
     15 C           1.0192    0.8790   22.2501 C.3     1  UNL1        0.0970
     16 C           1.1216    1.0409   23.7378 C.3     1  UNL1        0.0615
     17 O           1.2240    1.2029   25.2256 O.3     1  UNL1       -0.4828
     18 C           1.7362    2.0127   32.6641 C.3     1  UNL1        0.1816
     19 S           1.6337    1.8507   31.1763 S.O2    1  UNL1        0.0104
     20 O           0.1490    1.6747   31.2977 O.2     1  UNL1       -0.1686
     21 O           3.1183    2.0268   31.0550 O.2     1  UNL1       -0.1686
     22 C           2.8529   -1.0552   19.3097 C.3     1  UNL1        0.1124
     23 C           4.0450   -0.4586   18.6218 C.ar    1  UNL1       -0.0024
     24 C           4.1370    1.0267   18.4340 C.ar    1  UNL1       -0.0021
     25 C           5.3291    1.6232   17.7461 C.ar    1  UNL1        0.0111
     26 C           6.4291    0.7343   17.2461 C.ar    1  UNL1        0.0585
     27 CL          7.6211    1.3309   16.5582 Cl      1  UNL1       -0.0822
     28 C           6.3370   -0.7510   17.4339 C.ar    1  UNL1        0.0225
     29 C           5.1450   -1.3475   18.1217 C.ar    1  UNL1        0.0550
     30 CL          5.0528   -2.8329   18.3096 Cl      1  UNL1       -0.0825
@<TRIPOS>BOND
     1    18    19    1
     2    19    20    2
     3    19    21    2
     4    19     1    1
     5     1     2   ar
     6     2     3   ar
     7     3     4   ar
     8     4     5   ar
     9     5     6   ar
    10     5     7    1
    11     7     8    1
    12     8     9    1
    13     9    10    1
    14    10    11    1
    15    11    12    1
    16    12    13   am
    17    13    14    2
    18    13    22    1
    19    22    23    1
    20    23    24   ar
    21    24    25   ar
    22    25    26   ar
    23    26    27    1
    24    26    28   ar
    25    28    29   ar
    26    29    30    1
    27    12    15    1
    28    15    16    1
    29     9    17    1
    30     6     1   ar
    31    16     9    1
    32    17     4    1
    33    29    23   ar
@<TRIPOS>MOLECULE
*****
 30 33 0 0 0
SMALL
GASTEIGER

@<TRIPOS>ATOM
      1 C           6.9928   -4.9326   27.5536 C.ar    1  UNL1        0.1056
      2 C           7.2701   -5.9680   26.5043 C.ar    1  UNL1        0.0214
      3 C           7.2389   -5.5916   25.0526 C.ar    1  UNL1        0.0379
      4 C           6.9306   -4.1798   24.6503 C.ar    1  UNL1        0.1342
      5 C           6.6533   -3.1444   25.6996 C.ar    1  UNL1        0.0132
      6 C           6.6845   -3.5209   27.1513 C.ar    1  UNL1        0.0171
      7 C           6.3450   -1.7327   25.2973 C.3     1  UNL1        0.0330
      8 C           6.3138   -1.3563   23.8456 C.3     1  UNL1        0.0449
      9 C           6.5911   -2.3916   22.7963 C.3     1  UNL1        0.1367
     10 C           6.2827   -0.9799   22.3940 C.3     1  UNL1        0.0615
     11 C           6.2516   -0.6035   20.9423 C.3     1  UNL1        0.0970
     12 N           6.5288   -1.6389   19.8930 N.am    1  UNL1       -0.2790
     13 C           6.4977   -1.2625   18.4412 C.2     1  UNL1        0.2301
     14 O           6.7749   -2.2978   17.3919 O.2     1  UNL1       -0.2745
     15 C           6.8372   -3.0506   20.2952 C.3     1  UNL1        0.0970
     16 C           6.8683   -3.4270   21.7469 C.3     1  UNL1        0.0615
     17 O           6.8995   -3.8034   23.1986 O.3     1  UNL1       -0.4828
     18 C           7.0550   -5.6853   30.4570 C.3     1  UNL1        0.1816
     19 S           7.0239   -5.3090   29.0053 S.O2    1  UNL1        0.0104
     20 O           7.6763   -6.6129   28.6532 O.2     1  UNL1       -0.1686
     21 O           6.3716   -4.0050   29.3573 O.2     1  UNL1       -0.1686
     22 C           6.1893    0.1493   18.0390 C.3     1  UNL1        0.1124
     23 C           4.7878    0.6721   18.1514 C.ar    1  UNL1       -0.0024
     24 C           3.6265   -0.2747   18.0836 C.ar    1  UNL1       -0.0021
     25 C           2.2251    0.2481   18.1960 C.ar    1  UNL1        0.0111
     26 C           1.9851    1.7178   18.3762 C.ar    1  UNL1        0.0585
     27 CL          0.5836    2.2406   18.4886 Cl      1  UNL1       -0.0822
     28 C           3.1464    2.6646   18.4439 C.ar    1  UNL1        0.0225
     29 C           4.5478    2.1418   18.3315 C.ar    1  UNL1        0.0550
     30 CL          5.7093    3.0886   18.3993 Cl      1  UNL1       -0.0825
@<TRIPOS>BOND
     1    18    19    1
     2    19    20    2
     3    19    21    2
     4    19     1    1
     5     1     2   ar
     6     2     3   ar
     7     3     4   ar
     8     4     5   ar
     9     5     6   ar
    10     5     7    1
    11     7     8    1
    12     8     9    1
    13     9    10    1
    14    10    11    1
    15    11    12    1
    16    12    13   am
    17    13    14    2
    18    13    22    1
    19    22    23    1
    20    23    24   ar
    21    24    25   ar
    22    25    26   ar
    23    26    27    1
    24    26    28   ar
    25    28    29   ar
    26    29    30    1
    27    12    15    1
    28    15    16    1
    29     9    17    1
    30     6     1   ar
    31    16     9    1
    32    17     4    1
    33    29    23   ar
