@<TRIPOS>MOLECULE
*****
 35 39 0 0 0
SMALL
GASTEIGER

@<TRIPOS>ATOM
      1 C          -9.1178  -15.7029   22.7157 C.3     1  UNL1        0.0749
      2 C          -7.6362  -15.5576   22.8995 C.3     1  UNL1        0.0444
      3 C          -7.0603  -15.4337   24.2790 C.ar    1  UNL1       -0.0103
      4 C          -7.9658  -15.4551   25.4746 C.ar    1  UNL1       -0.0091
      5 C          -7.3898  -15.3312   26.8540 C.ar    1  UNL1       -0.0032
      6 C          -5.9082  -15.1859   27.0379 C.ar    1  UNL1        0.0010
      7 C          -5.0027  -15.1645   25.8422 C.ar    1  UNL1        0.0140
      8 C          -5.5786  -15.2884   24.4628 C.ar    1  UNL1        0.0403
      9 C          -9.4474  -15.6005   25.2907 C.3     1  UNL1        0.0954
     10 N         -10.0234  -15.7243   23.9113 N.3     1  UNL1       -0.2934
     11 H         -10.6810  -14.9531   23.7965 H       1  UNL1        0.1236
     12 N          -4.6731  -15.2669   23.2672 N.pl3   1  UNL1       -0.3343
     13 H          -4.5318  -14.4281   22.7716 H       1  UNL1        0.1468
     14 C          -3.9826  -16.5236   22.8267 C.3     1  UNL1        0.0691
     15 C          -2.6448  -16.4475   22.1525 C.3     1  UNL1        0.0208
     16 C          -1.9544  -17.7042   21.7120 C.3     1  UNL1        0.0172
     17 C          -2.6018  -19.0370   21.9456 C.3     1  UNL1        0.0509
     18 N          -1.9114  -20.2936   21.5050 N.3     1  UNL1       -0.3222
     19 C          -3.9396  -19.1131   22.6198 C.3     1  UNL1        0.0172
     20 C          -4.6300  -17.8564   23.0603 C.3     1  UNL1        0.0208
     21 H          -1.0201  -20.0570   21.0692 H       1  UNL1        0.1188
     22 H          -2.4987  -20.7863   20.8322 H       1  UNL1        0.1188
     23 C          -9.6938  -15.8268   21.3362 C.3     1  UNL1        0.0886
     24 C         -10.8848  -17.3754   19.6235 C.3     1  UNL1        0.0899
     25 N          -9.8796  -17.1816   20.7199 N.3     1  UNL1       -0.2667
     26 C          -9.0603  -18.3427   21.2001 C.3     1  UNL1        0.0978
     27 C          -7.8443  -18.7707   20.4332 C.3     1  UNL1        0.0224
     28 C          -7.0249  -19.9318   20.9133 C.3     1  UNL1        0.0065
     29 C          -7.4216  -20.6650   22.1603 C.3     1  UNL1        0.0277
     30 C          -8.6377  -20.2370   22.9273 C.ar    1  UNL1       -0.0073
     31 C          -9.0343  -20.9702   24.1743 C.ar    1  UNL1       -0.0015
     32 C         -10.2503  -20.5422   24.9412 C.ar    1  UNL1        0.0203
     33 C         -11.0696  -19.3811   24.4611 C.ar    1  UNL1        0.0985
     34 N         -10.6730  -18.6480   23.2140 N.ar    1  UNL1       -0.2471
     35 C          -9.4570  -19.0759   22.4472 C.ar    1  UNL1        0.0695
@<TRIPOS>BOND
     1    24    25    1
     2    25    23    1
     3     1    23    1
     4     1     2    1
     5     2     3    1
     6     3     4   ar
     7     4     5   ar
     8     5     6   ar
     9     6     7   ar
    10     7     8   ar
    11     8    12    1
    12    14    12    1
    13    14    15    1
    14    15    16    1
    15    16    17    1
    16    17    18    1
    17    17    19    1
    18    19    20    1
    19     4     9    1
    20     9    10    1
    21    26    25    1
    22    26    27    1
    23    27    28    1
    24    28    29    1
    25    29    30    1
    26    30    31   ar
    27    31    32   ar
    28    32    33   ar
    29    33    34   ar
    30    34    35   ar
    31    10     1    1
    32    35    26    1
    33     8     3   ar
    34    20    14    1
    35    35    30   ar
    36    12    13    1
    37    18    21    1
    38    18    22    1
    39    10    11    1
@<TRIPOS>MOLECULE
*****
 35 39 0 0 0
SMALL
GASTEIGER

@<TRIPOS>ATOM
      1 C          -7.8015  -19.7332   21.3688 C.3     1  UNL1        0.0749
      2 C          -8.6081  -19.0008   22.3997 C.3     1  UNL1        0.0444
      3 C          -9.8631  -18.2835   21.9993 C.ar    1  UNL1       -0.0103
      4 C         -10.3115  -18.2985   20.5679 C.ar    1  UNL1       -0.0091
      5 C         -11.5666  -17.5811   20.1675 C.ar    1  UNL1       -0.0032
      6 C         -12.3732  -16.8487   21.1985 C.ar    1  UNL1        0.0010
      7 C         -11.9248  -16.8336   22.6298 C.ar    1  UNL1        0.0140
      8 C         -10.6698  -17.5510   23.0302 C.ar    1  UNL1        0.0403
      9 C          -9.5049  -19.0310   19.5370 C.3     1  UNL1        0.0954
     10 N          -8.2499  -19.7483   19.9374 N.3     1  UNL1       -0.2934
     11 H          -7.4917  -19.3448   19.3871 H       1  UNL1        0.1236
     12 N         -10.2215  -17.5359   24.4616 N.pl3   1  UNL1       -0.3343
     13 H         -10.7151  -18.0542   25.1375 H       1  UNL1        0.1468
     14 C          -9.0211  -16.7311   24.8631 C.3     1  UNL1        0.0691
     15 C          -8.5543  -16.7406   26.2885 C.3     1  UNL1        0.0208
     16 C          -7.3538  -15.9357   26.6900 C.3     1  UNL1        0.0172
     17 C          -6.6202  -15.1214   25.6660 C.3     1  UNL1        0.0509
     18 N          -5.4198  -14.3165   26.0675 N.3     1  UNL1       -0.3222
     19 C          -7.0870  -15.1119   24.2405 C.3     1  UNL1        0.0172
     20 C          -8.2874  -15.9167   23.8390 C.3     1  UNL1        0.0208
     21 H          -5.2465  -14.4391   27.0651 H       1  UNL1        0.1188
     22 H          -5.5903  -13.3304   25.8706 H       1  UNL1        0.1188
     23 C          -6.5465  -20.4506   21.7692 C.3     1  UNL1        0.0886
     24 C          -4.7083  -20.8217   19.9710 C.3     1  UNL1        0.0899
     25 N          -5.2336  -20.0649   21.1548 N.3     1  UNL1       -0.2667
     26 C          -4.4459  -18.9224   21.7242 C.3     1  UNL1        0.0978
     27 C          -4.8386  -18.3239   23.0424 C.3     1  UNL1        0.0224
     28 C          -4.0509  -17.1814   23.6118 C.3     1  UNL1        0.0065
     29 C          -2.8706  -16.6373   22.8631 C.3     1  UNL1        0.0277
     30 C          -2.4778  -17.2357   21.5448 C.ar    1  UNL1       -0.0073
     31 C          -1.2975  -16.6916   20.7960 C.ar    1  UNL1       -0.0015
     32 C          -0.9048  -17.2900   19.4778 C.ar    1  UNL1        0.0203
     33 C          -1.6925  -18.4326   18.9084 C.ar    1  UNL1        0.0985
     34 N          -2.8728  -18.9767   19.6572 N.ar    1  UNL1       -0.2471
     35 C          -3.2655  -18.3783   20.9754 C.ar    1  UNL1        0.0695
@<TRIPOS>BOND
     1    24    25    1
     2    25    23    1
     3     1    23    1
     4     1     2    1
     5     2     3    1
     6     3     4   ar
     7     4     5   ar
     8     5     6   ar
     9     6     7   ar
    10     7     8   ar
    11     8    12    1
    12    14    12    1
    13    14    15    1
    14    15    16    1
    15    16    17    1
    16    17    18    1
    17    17    19    1
    18    19    20    1
    19     4     9    1
    20     9    10    1
    21    26    25    1
    22    26    27    1
    23    27    28    1
    24    28    29    1
    25    29    30    1
    26    30    31   ar
    27    31    32   ar
    28    32    33   ar
    29    33    34   ar
    30    34    35   ar
    31    10     1    1
    32    35    26    1
    33     8     3   ar
    34    20    14    1
    35    35    30   ar
    36    12    13    1
    37    18    21    1
    38    18    22    1
    39    10    11    1
@<TRIPOS>MOLECULE
*****
 35 39 0 0 0
SMALL
GASTEIGER

@<TRIPOS>ATOM
      1 C          -8.9950  -15.6097   22.6684 C.3     1  UNL1        0.0749
      2 C          -7.5094  -15.5201   22.8552 C.3     1  UNL1        0.0444
      3 C          -6.9289  -15.4717   24.2374 C.ar    1  UNL1       -0.0103
      4 C          -7.8340  -15.5129   25.4329 C.ar    1  UNL1       -0.0091
      5 C          -7.2534  -15.4645   26.8152 C.ar    1  UNL1       -0.0032
      6 C          -5.7678  -15.3748   27.0019 C.ar    1  UNL1        0.0010
      7 C          -4.8627  -15.3336   25.8065 C.ar    1  UNL1        0.0140
      8 C          -5.4432  -15.3820   24.4242 C.ar    1  UNL1        0.0403
      9 C          -9.3196  -15.6025   25.2461 C.3     1  UNL1        0.0954
     10 N          -9.9001  -15.6509   23.8639 N.3     1  UNL1       -0.2934
     11 H         -10.5324  -14.8548   23.7821 H       1  UNL1        0.1236
     12 N          -4.5381  -15.3408   23.2288 N.pl3   1  UNL1       -0.3343
     13 H          -4.3911  -14.4923   22.7517 H       1  UNL1        0.1468
     14 C          -3.8572  -16.5925   22.7601 C.3     1  UNL1        0.0691
     15 C          -2.5340  -16.5087   22.0586 C.3     1  UNL1        0.0208
     16 C          -1.8530  -17.7604   21.5899 C.3     1  UNL1        0.0172
     17 C          -2.4952  -19.0958   21.8228 C.3     1  UNL1        0.0509
     18 N          -1.8143  -20.3474   21.3542 N.3     1  UNL1       -0.3222
     19 C          -3.8184  -19.1795   22.5244 C.3     1  UNL1        0.0172
     20 C          -4.4994  -17.9279   22.9930 C.3     1  UNL1        0.0208
     21 H          -0.9324  -20.1058   20.9021 H       1  UNL1        0.1188
     22 H          -2.4157  -20.8329   20.6886 H       1  UNL1        0.1188
     23 C          -9.5756  -15.6581   21.2861 C.3     1  UNL1        0.0886
     24 C         -11.3315  -16.5940   19.6155 C.3     1  UNL1        0.0899
     25 N         -10.7781  -16.5102   21.0072 N.3     1  UNL1       -0.2667
     26 C         -11.4274  -17.2785   22.1199 C.3     1  UNL1        0.0978
     27 C         -12.8057  -16.9087   22.5820 C.3     1  UNL1        0.0224
     28 C         -13.4550  -17.6770   23.6947 C.3     1  UNL1        0.0065
     29 C         -12.7260  -18.8150   24.3454 C.3     1  UNL1        0.0277
     30 C         -11.3476  -19.1848   23.8834 C.ar    1  UNL1       -0.0073
     31 C         -10.6186  -20.3228   24.5341 C.ar    1  UNL1       -0.0015
     32 C          -9.2403  -20.6925   24.0720 C.ar    1  UNL1        0.0203
     33 C          -8.5910  -19.9242   22.9593 C.ar    1  UNL1        0.0985
     34 N          -9.3200  -18.7862   22.3086 N.ar    1  UNL1       -0.2471
     35 C         -10.6983  -18.4165   22.7706 C.ar    1  UNL1        0.0695
@<TRIPOS>BOND
     1    24    25    1
     2    25    23    1
     3     1    23    1
     4     1     2    1
     5     2     3    1
     6     3     4   ar
     7     4     5   ar
     8     5     6   ar
     9     6     7   ar
    10     7     8   ar
    11     8    12    1
    12    14    12    1
    13    14    15    1
    14    15    16    1
    15    16    17    1
    16    17    18    1
    17    17    19    1
    18    19    20    1
    19     4     9    1
    20     9    10    1
    21    26    25    1
    22    26    27    1
    23    27    28    1
    24    28    29    1
    25    29    30    1
    26    30    31   ar
    27    31    32   ar
    28    32    33   ar
    29    33    34   ar
    30    34    35   ar
    31    10     1    1
    32    35    26    1
    33     8     3   ar
    34    20    14    1
    35    35    30   ar
    36    12    13    1
    37    18    21    1
    38    18    22    1
    39    10    11    1
@<TRIPOS>MOLECULE
*****
 35 39 0 0 0
SMALL
GASTEIGER

@<TRIPOS>ATOM
      1 C          -7.5125  -17.8761   21.4855 C.3     1  UNL1        0.0749
      2 C          -6.2509  -17.9651   22.2919 C.3     1  UNL1        0.0444
      3 C          -6.0117  -17.0043   23.4186 C.ar    1  UNL1       -0.0103
      4 C          -7.0340  -15.9544   23.7389 C.ar    1  UNL1       -0.0091
      5 C          -6.7948  -14.9936   24.8657 C.ar    1  UNL1       -0.0032
      6 C          -5.5331  -15.0826   25.6721 C.ar    1  UNL1        0.0010
      7 C          -4.5108  -16.1324   25.3518 C.ar    1  UNL1        0.0140
      8 C          -4.7500  -17.0932   24.2251 C.ar    1  UNL1        0.0403
      9 C          -8.2956  -15.8654   22.9325 C.3     1  UNL1        0.0954
     10 N          -8.5349  -16.8262   21.8057 N.3     1  UNL1       -0.2934
     11 H          -8.6561  -16.2662   20.9619 H       1  UNL1        0.1236
     12 N          -3.7276  -18.1431   23.9048 N.pl3   1  UNL1       -0.3343
     13 H          -3.5758  -18.8890   24.5291 H       1  UNL1        0.1468
     14 C          -2.9366  -18.0564   22.6333 C.3     1  UNL1        0.0691
     15 C          -2.3541  -16.7437   22.2004 C.3     1  UNL1        0.0208
     16 C          -1.5631  -16.6571   20.9288 C.3     1  UNL1        0.0172
     17 C          -1.3545  -17.8832   20.0903 C.3     1  UNL1        0.0509
     18 N          -0.5635  -17.7965   18.8188 N.3     1  UNL1       -0.3222
     19 C          -1.9370  -19.1959   20.5232 C.3     1  UNL1        0.0172
     20 C          -2.7280  -19.2826   21.7947 C.3     1  UNL1        0.0208
     21 H          -0.2458  -16.8371   18.6807 H       1  UNL1        0.1188
     22 H          -1.1508  -18.0766   18.0333 H       1  UNL1        0.1188
     23 C          -7.7518  -18.8369   20.3587 C.3     1  UNL1        0.0886
     24 C          -9.3999  -20.2269   18.9090 C.3     1  UNL1        0.0899
     25 N          -9.1533  -19.1558   19.9297 N.3     1  UNL1       -0.2667
     26 C         -10.3082  -18.4035   20.5215 C.3     1  UNL1        0.0978
     27 C         -11.0151  -17.3568   19.7124 C.3     1  UNL1        0.0224
     28 C         -12.1701  -16.6046   20.3042 C.3     1  UNL1        0.0065
     29 C         -12.6181  -16.8990   21.7051 C.3     1  UNL1        0.0277
     30 C         -11.9112  -17.9457   22.5143 C.ar    1  UNL1       -0.0073
     31 C         -12.3593  -18.2401   23.9151 C.ar    1  UNL1       -0.0015
     32 C         -11.6524  -19.2868   24.7243 C.ar    1  UNL1        0.0203
     33 C         -10.4974  -20.0391   24.1325 C.ar    1  UNL1        0.0985
     34 N         -10.0494  -19.7446   22.7316 N.ar    1  UNL1       -0.2471
     35 C         -10.7563  -18.6980   21.9225 C.ar    1  UNL1        0.0695
@<TRIPOS>BOND
     1    24    25    1
     2    25    23    1
     3     1    23    1
     4     1     2    1
     5     2     3    1
     6     3     4   ar
     7     4     5   ar
     8     5     6   ar
     9     6     7   ar
    10     7     8   ar
    11     8    12    1
    12    14    12    1
    13    14    15    1
    14    15    16    1
    15    16    17    1
    16    17    18    1
    17    17    19    1
    18    19    20    1
    19     4     9    1
    20     9    10    1
    21    26    25    1
    22    26    27    1
    23    27    28    1
    24    28    29    1
    25    29    30    1
    26    30    31   ar
    27    31    32   ar
    28    32    33   ar
    29    33    34   ar
    30    34    35   ar
    31    10     1    1
    32    35    26    1
    33     8     3   ar
    34    20    14    1
    35    35    30   ar
    36    12    13    1
    37    18    21    1
    38    18    22    1
    39    10    11    1
@<TRIPOS>MOLECULE
*****
 35 39 0 0 0
SMALL
GASTEIGER

@<TRIPOS>ATOM
      1 C          -8.8501  -19.2234   20.3694 C.3     1  UNL1        0.0749
      2 C          -9.2359  -19.0733   21.8111 C.3     1  UNL1        0.0444
      3 C         -10.6017  -18.5702   22.1735 C.ar    1  UNL1       -0.0103
      4 C         -11.5818  -18.2172   21.0941 C.ar    1  UNL1       -0.0091
      5 C         -12.9477  -17.7141   21.4566 C.ar    1  UNL1       -0.0032
      6 C         -13.3334  -17.5639   22.8983 C.ar    1  UNL1        0.0010
      7 C         -12.3534  -17.9169   23.9776 C.ar    1  UNL1        0.0140
      8 C         -10.9876  -18.4200   23.6153 C.ar    1  UNL1        0.0403
      9 C         -11.1960  -18.3674   19.6524 C.3     1  UNL1        0.0954
     10 N          -9.8301  -18.8705   19.2901 N.3     1  UNL1       -0.2934
     11 H          -9.3919  -18.1476   18.7193 H       1  UNL1        0.1236
     12 N         -10.0075  -18.7729   24.6946 N.pl3   1  UNL1       -0.3343
     13 H          -9.8863  -19.7128   24.9612 H       1  UNL1        0.1468
     14 C          -9.2123  -17.6938   25.3676 C.3     1  UNL1        0.0691
     15 C          -9.1153  -17.6561   26.8640 C.3     1  UNL1        0.0208
     16 C          -8.3200  -16.5769   27.5371 C.3     1  UNL1        0.0172
     17 C          -7.6217  -15.5355   26.7137 C.3     1  UNL1        0.0509
     18 N          -6.8264  -14.4564   27.3868 N.3     1  UNL1       -0.3222
     19 C          -7.7187  -15.5733   25.2173 C.3     1  UNL1        0.0172
     20 C          -8.5139  -16.6524   24.5443 C.3     1  UNL1        0.0208
     21 H          -6.8687  -14.5833   28.3980 H       1  UNL1        0.1188
     22 H          -7.2142  -13.5453   27.1419 H       1  UNL1        0.1188
     23 C          -7.4842  -19.7266   20.0070 C.3     1  UNL1        0.0886
     24 C          -6.9874  -20.8058   22.3175 C.3     1  UNL1        0.0899
     25 N          -6.5097  -20.0944   21.0862 N.3     1  UNL1       -0.2667
     26 C          -5.0574  -19.7510   20.9344 C.3     1  UNL1        0.0978
     27 C          -4.1960  -20.5355   19.9897 C.3     1  UNL1        0.0224
     28 C          -2.7438  -20.1921   19.8378 C.3     1  UNL1        0.0065
     29 C          -2.1530  -19.0641   20.6306 C.3     1  UNL1        0.0277
     30 C          -3.0144  -18.2796   21.5754 C.ar    1  UNL1       -0.0073
     31 C          -2.4235  -17.1516   22.3683 C.ar    1  UNL1       -0.0015
     32 C          -3.2849  -16.3672   23.3130 C.ar    1  UNL1        0.0203
     33 C          -4.7372  -16.7106   23.4648 C.ar    1  UNL1        0.0985
     34 N          -5.3280  -17.8385   22.6720 N.ar    1  UNL1       -0.2471
     35 C          -4.4666  -18.6230   21.7273 C.ar    1  UNL1        0.0695
@<TRIPOS>BOND
     1    24    25    1
     2    25    23    1
     3     1    23    1
     4     1     2    1
     5     2     3    1
     6     3     4   ar
     7     4     5   ar
     8     5     6   ar
     9     6     7   ar
    10     7     8   ar
    11     8    12    1
    12    14    12    1
    13    14    15    1
    14    15    16    1
    15    16    17    1
    16    17    18    1
    17    17    19    1
    18    19    20    1
    19     4     9    1
    20     9    10    1
    21    26    25    1
    22    26    27    1
    23    27    28    1
    24    28    29    1
    25    29    30    1
    26    30    31   ar
    27    31    32   ar
    28    32    33   ar
    29    33    34   ar
    30    34    35   ar
    31    10     1    1
    32    35    26    1
    33     8     3   ar
    34    20    14    1
    35    35    30   ar
    36    12    13    1
    37    18    21    1
    38    18    22    1
    39    10    11    1
@<TRIPOS>MOLECULE
*****
 35 39 0 0 0
SMALL
GASTEIGER

@<TRIPOS>ATOM
      1 C          -6.4904  -15.8714   23.3854 C.3     1  UNL1        0.0749
      2 C          -6.2038  -17.3064   23.0559 C.3     1  UNL1        0.0444
      3 C          -4.8052  -17.7346   22.7233 C.ar    1  UNL1       -0.0103
      4 C          -3.6933  -16.7278   22.7201 C.ar    1  UNL1       -0.0091
      5 C          -2.2947  -17.1560   22.3875 C.ar    1  UNL1       -0.0032
      6 C          -2.0081  -18.5910   22.0580 C.ar    1  UNL1        0.0010
      7 C          -3.1200  -19.5978   22.0612 C.ar    1  UNL1        0.0140
      8 C          -4.5185  -19.1696   22.3938 C.ar    1  UNL1        0.0403
      9 C          -3.9800  -15.2928   23.0496 C.3     1  UNL1        0.0954
     10 N          -5.3785  -14.8646   23.3822 N.3     1  UNL1       -0.2934
     11 H          -5.6348  -14.1450   22.7063 H       1  UNL1        0.1236
     12 N          -5.6304  -20.1764   22.3969 N.pl3   1  UNL1       -0.3343
     13 H          -5.5505  -20.9964   22.9359 H       1  UNL1        0.1468
     14 C          -6.8641  -19.9340   21.5789 C.3     1  UNL1        0.0691
     15 C          -8.2085  -19.8942   22.2429 C.3     1  UNL1        0.0208
     16 C          -9.4422  -19.6518   21.4247 C.3     1  UNL1        0.0172
     17 C          -9.3314  -19.4490   19.9426 C.3     1  UNL1        0.0509
     18 N         -10.5650  -19.2066   19.1246 N.3     1  UNL1       -0.3222
     19 C          -7.9869  -19.4888   19.2786 C.3     1  UNL1        0.0172
     20 C          -6.7533  -19.7313   20.0967 C.3     1  UNL1        0.0208
     21 H         -11.3833  -19.2119   19.7335 H       1  UNL1        0.1188
     22 H         -10.6580  -19.9417   18.4236 H       1  UNL1        0.1188
     23 C          -7.8890  -15.4432   23.7180 C.3     1  UNL1        0.0886
     24 C          -8.3570  -15.5111   26.2727 C.3     1  UNL1        0.0899
     25 N          -8.5990  -16.0476   24.8930 N.3     1  UNL1       -0.2667
     26 C          -9.5511  -17.1885   24.6882 C.3     1  UNL1        0.0978
     27 C          -9.4736  -18.3978   25.5722 C.3     1  UNL1        0.0224
     28 C         -10.4257  -19.5387   25.3675 C.3     1  UNL1        0.0065
     29 C         -11.4552  -19.4703   24.2788 C.3     1  UNL1        0.0277
     30 C         -11.5327  -18.2610   23.3947 C.ar    1  UNL1       -0.0073
     31 C         -12.5622  -18.1926   22.3060 C.ar    1  UNL1       -0.0015
     32 C         -12.6396  -16.9833   21.4220 C.ar    1  UNL1        0.0203
     33 C         -11.6876  -15.8423   21.6267 C.ar    1  UNL1        0.0985
     34 N         -10.6581  -15.9107   22.7154 N.ar    1  UNL1       -0.2471
     35 C         -10.5806  -17.1201   23.5994 C.ar    1  UNL1        0.0695
@<TRIPOS>BOND
     1    24    25    1
     2    25    23    1
     3     1    23    1
     4     1     2    1
     5     2     3    1
     6     3     4   ar
     7     4     5   ar
     8     5     6   ar
     9     6     7   ar
    10     7     8   ar
    11     8    12    1
    12    14    12    1
    13    14    15    1
    14    15    16    1
    15    16    17    1
    16    17    18    1
    17    17    19    1
    18    19    20    1
    19     4     9    1
    20     9    10    1
    21    26    25    1
    22    26    27    1
    23    27    28    1
    24    28    29    1
    25    29    30    1
    26    30    31   ar
    27    31    32   ar
    28    32    33   ar
    29    33    34   ar
    30    34    35   ar
    31    10     1    1
    32    35    26    1
    33     8     3   ar
    34    20    14    1
    35    35    30   ar
    36    12    13    1
    37    18    21    1
    38    18    22    1
    39    10    11    1
@<TRIPOS>MOLECULE
*****
 35 39 0 0 0
SMALL
GASTEIGER

@<TRIPOS>ATOM
      1 C          -6.9727  -19.3479   22.0892 C.3     1  UNL1        0.0749
      2 C          -6.2435  -18.0808   22.4249 C.3     1  UNL1        0.0444
      3 C          -4.7439  -18.0519   22.4094 C.ar    1  UNL1       -0.0103
      4 C          -3.9735  -19.2901   22.0584 C.ar    1  UNL1       -0.0091
      5 C          -2.4738  -19.2611   22.0429 C.ar    1  UNL1       -0.0032
      6 C          -1.7446  -17.9940   22.3786 C.ar    1  UNL1        0.0010
      7 C          -2.5150  -16.7558   22.7297 C.ar    1  UNL1        0.0140
      8 C          -4.0146  -16.7847   22.7451 C.ar    1  UNL1        0.0403
      9 C          -4.7026  -20.5572   21.7227 C.3     1  UNL1        0.0954
     10 N          -6.2022  -20.5861   21.7381 N.3     1  UNL1       -0.2934
     11 H          -6.4760  -21.3035   22.4095 H       1  UNL1        0.1236
     12 N          -4.7851  -15.5465   23.0962 N.pl3   1  UNL1       -0.3343
     13 H          -4.6765  -14.7298   22.5572 H       1  UNL1        0.1468
     14 C          -5.7208  -15.5526   24.2684 C.3     1  UNL1        0.0691
     15 C          -5.1862  -15.7647   25.6538 C.3     1  UNL1        0.0208
     16 C          -6.1220  -15.7708   26.8261 C.3     1  UNL1        0.0172
     17 C          -7.5924  -15.5646   26.6130 C.3     1  UNL1        0.0509
     18 N          -8.5281  -15.5707   27.7853 N.3     1  UNL1       -0.3222
     19 C          -8.1270  -15.3525   25.2277 C.3     1  UNL1        0.0172
     20 C          -7.1913  -15.3464   24.0554 C.3     1  UNL1        0.0208
     21 H          -7.9981  -15.7269   28.6427 H       1  UNL1        0.1188
     22 H          -9.2141  -16.3166   27.6690 H       1  UNL1        0.1188
     23 C          -8.4724  -19.3768   22.1046 C.3     1  UNL1        0.0886
     24 C          -8.7958  -19.5422   19.5321 C.3     1  UNL1        0.0899
     25 N          -9.2421  -19.0231   20.8668 N.3     1  UNL1       -0.2667
     26 C         -10.4582  -18.1503   20.9635 C.3     1  UNL1        0.0978
     27 C         -10.7867  -17.1961   19.8538 C.3     1  UNL1        0.0224
     28 C         -12.0028  -16.3233   19.9506 C.3     1  UNL1        0.0065
     29 C         -12.8903  -16.4046   21.1571 C.3     1  UNL1        0.0277
     30 C         -12.5618  -17.3588   22.2669 C.ar    1  UNL1       -0.0073
     31 C         -13.4493  -17.4402   23.4734 C.ar    1  UNL1       -0.0015
     32 C         -13.1207  -18.3944   24.5831 C.ar    1  UNL1        0.0203
     33 C         -11.9046  -19.2672   24.4863 C.ar    1  UNL1        0.0985
     34 N         -11.0171  -19.1858   23.2798 N.ar    1  UNL1       -0.2471
     35 C         -11.3457  -18.2316   22.1701 C.ar    1  UNL1        0.0695
@<TRIPOS>BOND
     1    24    25    1
     2    25    23    1
     3     1    23    1
     4     1     2    1
     5     2     3    1
     6     3     4   ar
     7     4     5   ar
     8     5     6   ar
     9     6     7   ar
    10     7     8   ar
    11     8    12    1
    12    14    12    1
    13    14    15    1
    14    15    16    1
    15    16    17    1
    16    17    18    1
    17    17    19    1
    18    19    20    1
    19     4     9    1
    20     9    10    1
    21    26    25    1
    22    26    27    1
    23    27    28    1
    24    28    29    1
    25    29    30    1
    26    30    31   ar
    27    31    32   ar
    28    32    33   ar
    29    33    34   ar
    30    34    35   ar
    31    10     1    1
    32    35    26    1
    33     8     3   ar
    34    20    14    1
    35    35    30   ar
    36    12    13    1
    37    18    21    1
    38    18    22    1
    39    10    11    1
@<TRIPOS>MOLECULE
*****
 35 39 0 0 0
SMALL
GASTEIGER

@<TRIPOS>ATOM
      1 C          -7.0493  -19.3154   21.7807 C.3     1  UNL1        0.0749
      2 C          -6.3155  -18.0866   22.2295 C.3     1  UNL1        0.0444
      3 C          -4.8208  -18.1089   22.3530 C.ar    1  UNL1       -0.0103
      4 C          -4.0599  -19.3600   22.0277 C.ar    1  UNL1       -0.0091
      5 C          -2.5651  -19.3822   22.1513 C.ar    1  UNL1       -0.0032
      6 C          -1.8313  -18.1534   22.6001 C.ar    1  UNL1        0.0010
      7 C          -2.5922  -16.9023   22.9254 C.ar    1  UNL1        0.0140
      8 C          -4.0869  -16.8800   22.8019 C.ar    1  UNL1        0.0403
      9 C          -4.7937  -20.5888   21.5789 C.3     1  UNL1        0.0954
     10 N          -6.2885  -20.5665   21.4554 N.3     1  UNL1       -0.2934
     11 H          -6.6457  -21.2969   22.0712 H       1  UNL1        0.1236
     12 N          -4.8478  -15.6289   23.1272 N.pl3   1  UNL1       -0.3343
     13 H          -4.7341  -14.8249   22.5706 H       1  UNL1        0.1468
     14 C          -5.7818  -15.6029   24.3006 C.3     1  UNL1        0.0691
     15 C          -7.2581  -15.4538   24.0808 C.3     1  UNL1        0.0208
     16 C          -8.1922  -15.4277   25.2543 C.3     1  UNL1        0.0172
     17 C          -7.6499  -15.5508   26.6474 C.3     1  UNL1        0.0509
     18 N          -8.5840  -15.5247   27.8207 N.3     1  UNL1       -0.3222
     19 C          -6.1736  -15.6999   26.8671 C.3     1  UNL1        0.0172
     20 C          -5.2396  -15.7259   25.6938 C.3     1  UNL1        0.0208
     21 H          -9.5428  -15.4181   27.4897 H       1  UNL1        0.1188
     22 H          -8.3449  -14.7410   28.4283 H       1  UNL1        0.1188
     23 C          -8.5441  -19.2931   21.6571 C.3     1  UNL1        0.0886
     24 C          -8.9452  -20.6126   23.8590 C.3     1  UNL1        0.0899
     25 N          -9.3999  -19.5999   22.8501 N.3     1  UNL1       -0.2667
     26 C         -10.7105  -18.8940   23.0345 C.3     1  UNL1        0.0978
     27 C         -11.5366  -19.1538   24.2592 C.3     1  UNL1        0.0224
     28 C         -12.8472  -18.4479   24.4435 C.3     1  UNL1        0.0065
     29 C         -13.3317  -17.4821   23.4031 C.3     1  UNL1        0.0277
     30 C         -12.5056  -17.2222   22.1783 C.ar    1  UNL1       -0.0073
     31 C         -12.9902  -16.2564   21.1379 C.ar    1  UNL1       -0.0015
     32 C         -12.1641  -15.9966   19.9132 C.ar    1  UNL1        0.0203
     33 C         -10.8535  -16.7025   19.7289 C.ar    1  UNL1        0.0985
     34 N         -10.3689  -17.6683   20.7693 N.ar    1  UNL1       -0.2471
     35 C         -11.1950  -17.9281   21.9940 C.ar    1  UNL1        0.0695
@<TRIPOS>BOND
     1    24    25    1
     2    25    23    1
     3     1    23    1
     4     1     2    1
     5     2     3    1
     6     3     4   ar
     7     4     5   ar
     8     5     6   ar
     9     6     7   ar
    10     7     8   ar
    11     8    12    1
    12    14    12    1
    13    14    15    1
    14    15    16    1
    15    16    17    1
    16    17    18    1
    17    17    19    1
    18    19    20    1
    19     4     9    1
    20     9    10    1
    21    26    25    1
    22    26    27    1
    23    27    28    1
    24    28    29    1
    25    29    30    1
    26    30    31   ar
    27    31    32   ar
    28    32    33   ar
    29    33    34   ar
    30    34    35   ar
    31    10     1    1
    32    35    26    1
    33     8     3   ar
    34    20    14    1
    35    35    30   ar
    36    12    13    1
    37    18    21    1
    38    18    22    1
    39    10    11    1
@<TRIPOS>MOLECULE
*****
 35 39 0 0 0
SMALL
GASTEIGER

@<TRIPOS>ATOM
      1 C          -9.8690  -17.5848   22.0987 C.3     1  UNL1        0.0749
      2 C          -8.6203  -18.3920   21.9012 C.3     1  UNL1        0.0444
      3 C          -8.4782  -19.2701   20.6934 C.ar    1  UNL1       -0.0103
      4 C          -9.5847  -19.3410   19.6833 C.ar    1  UNL1       -0.0091
      5 C          -9.4426  -20.2192   18.4755 C.ar    1  UNL1       -0.0032
      6 C          -8.1939  -21.0264   18.2779 C.ar    1  UNL1        0.0010
      7 C          -7.0873  -20.9556   19.2881 C.ar    1  UNL1        0.0140
      8 C          -7.2294  -20.0774   20.4959 C.ar    1  UNL1        0.0403
      9 C         -10.8334  -18.5337   19.8808 C.3     1  UNL1        0.0954
     10 N         -10.9756  -17.6556   21.0885 N.3     1  UNL1       -0.2934
     11 H         -11.8084  -17.9713   21.5857 H       1  UNL1        0.1236
     12 N          -6.1229  -20.0066   21.5061 N.pl3   1  UNL1       -0.3343
     13 H          -6.3066  -20.2069   22.4523 H       1  UNL1        0.1468
     14 C          -4.7364  -19.6305   21.0746 C.3     1  UNL1        0.0691
     15 C          -4.5113  -19.0190   19.7235 C.3     1  UNL1        0.0208
     16 C          -3.1248  -18.6429   19.2921 C.3     1  UNL1        0.0172
     17 C          -1.9634  -18.8783   20.2117 C.3     1  UNL1        0.0509
     18 N          -0.5769  -18.5022   19.7802 N.3     1  UNL1       -0.3222
     19 C          -2.1885  -19.4898   21.5628 C.3     1  UNL1        0.0172
     20 C          -3.5749  -19.8659   21.9942 C.3     1  UNL1        0.0208
     21 H          -0.6092  -18.1035   18.8420 H       1  UNL1        0.1188
     22 H           0.0151  -19.3328   19.7765 H       1  UNL1        0.1188
     23 C         -10.0112  -16.7066   23.3065 C.3     1  UNL1        0.0886
     24 C         -10.2028  -18.4955   25.1809 C.3     1  UNL1        0.0899
     25 N          -9.6116  -17.2197   24.6581 N.3     1  UNL1       -0.2667
     26 C          -8.6210  -16.4573   25.4871 C.3     1  UNL1        0.0978
     27 C          -9.0331  -15.8862   26.8115 C.3     1  UNL1        0.0224
     28 C          -8.0424  -15.1237   27.6404 C.3     1  UNL1        0.0065
     29 C          -6.6396  -14.9323   27.1450 C.3     1  UNL1        0.0277
     30 C          -6.2274  -15.5034   25.8206 C.ar    1  UNL1       -0.0073
     31 C          -4.8246  -15.3120   25.3252 C.ar    1  UNL1       -0.0015
     32 C          -4.4125  -15.8830   24.0009 C.ar    1  UNL1        0.0203
     33 C          -5.4032  -16.6455   23.1719 C.ar    1  UNL1        0.0985
     34 N          -6.8060  -16.8369   23.6673 N.ar    1  UNL1       -0.2471
     35 C          -7.2181  -16.2659   24.9916 C.ar    1  UNL1        0.0695
@<TRIPOS>BOND
     1    24    25    1
     2    25    23    1
     3     1    23    1
     4     1     2    1
     5     2     3    1
     6     3     4   ar
     7     4     5   ar
     8     5     6   ar
     9     6     7   ar
    10     7     8   ar
    11     8    12    1
    12    14    12    1
    13    14    15    1
    14    15    16    1
    15    16    17    1
    16    17    18    1
    17    17    19    1
    18    19    20    1
    19     4     9    1
    20     9    10    1
    21    26    25    1
    22    26    27    1
    23    27    28    1
    24    28    29    1
    25    29    30    1
    26    30    31   ar
    27    31    32   ar
    28    32    33   ar
    29    33    34   ar
    30    34    35   ar
    31    10     1    1
    32    35    26    1
    33     8     3   ar
    34    20    14    1
    35    35    30   ar
    36    12    13    1
    37    18    21    1
    38    18    22    1
    39    10    11    1
