@<TRIPOS>MOLECULE
*****
 22 25 0 0 0
SMALL
GASTEIGER

@<TRIPOS>ATOM
      1 O          -5.3792  -14.7879   25.3445 O.2     1  UNL1       -0.2638
      2 C          -5.3170  -15.9085   24.3493 C.2     1  UNL1        0.3160
      3 N          -3.9896  -16.3853   23.8386 N.am    1  UNL1       -0.1720
      4 C          -3.9274  -17.5059   22.8434 C.ar    1  UNL1        0.0775
      5 C          -2.6001  -17.9826   22.3327 C.ar    1  UNL1        0.0172
      6 C          -2.5380  -19.1032   21.3375 C.ar    1  UNL1        0.0080
      7 C          -3.8032  -19.7470   20.8530 C.ar    1  UNL1        0.0348
      8 BR         -3.7410  -20.8676   19.8578 Br      1  UNL1       -0.0490
      9 C          -5.1305  -19.2703   21.3637 C.ar    1  UNL1        0.0118
     10 C          -5.1926  -18.1497   22.3589 C.ar    1  UNL1        0.0628
     11 C          -6.5200  -17.6729   22.8696 C.2     1  UNL1        0.2419
     12 N          -7.9243  -18.1110   22.5764 N.2     1  UNL1       -0.0302
     13 C          -8.8544  -17.2611   23.3905 C.2     1  UNL1        0.3765
     14 N          -8.0249  -16.2978   24.1867 N.2     1  UNL1       -0.0256
     15 C          -6.5822  -16.5524   23.8648 C.2     1  UNL1        0.2907
     16 C         -10.3513  -17.3576   23.4056 C.ar    1  UNL1        0.0989
     17 C         -11.1734  -16.3886   22.6086 C.ar    1  UNL1        0.0085
     18 C         -12.6702  -16.4851   22.6237 C.ar    1  UNL1        0.0003
     19 C         -13.3449  -17.5506   23.4358 C.ar    1  UNL1        0.0009
     20 C         -12.5228  -18.5196   24.2328 C.ar    1  UNL1        0.0116
     21 C         -11.0260  -18.4230   24.2177 C.ar    1  UNL1        0.0651
     22 CL        -10.2038  -19.3920   25.0147 Cl      1  UNL1       -0.0820
@<TRIPOS>BOND
     1     1     2    2
     2     2     3    1
     3     3     4    2
     4     4     5   ar
     5     5     6   ar
     6     6     7   ar
     7     7     8    1
     8     7     9   ar
     9     9    10   ar
    10    10    11    2
    11    11    12    1
    12    12    13    2
    13    13    16    1
    14    16    17   ar
    15    17    18   ar
    16    18    19   ar
    17    19    20   ar
    18    20    21   ar
    19    21    22    1
    20    13    14    1
    21    14    15    2
    22    15     2    1
    23    10     4   ar
    24    15    11    1
    25    21    16   ar
@<TRIPOS>MOLECULE
*****
 22 25 0 0 0
SMALL
GASTEIGER

@<TRIPOS>ATOM
      1 O          -5.9474  -14.4316   24.9967 O.2     1  UNL1       -0.2638
      2 C          -5.7763  -15.6288   24.1091 C.2     1  UNL1        0.3160
      3 N          -4.4074  -16.0277   23.6435 N.am    1  UNL1       -0.1720
      4 C          -4.2364  -17.2248   22.7559 C.ar    1  UNL1        0.0775
      5 C          -2.8674  -17.6238   22.2903 C.ar    1  UNL1        0.0172
      6 C          -2.6964  -18.8209   21.4028 C.ar    1  UNL1        0.0080
      7 C          -3.8944  -19.6190   20.9809 C.ar    1  UNL1        0.0348
      8 BR         -3.7233  -20.8162   20.0934 Br      1  UNL1       -0.0490
      9 C          -5.2633  -19.2201   21.4466 C.ar    1  UNL1        0.0118
     10 C          -5.4343  -18.0230   22.3341 C.ar    1  UNL1        0.0628
     11 C          -6.8032  -17.6240   22.7998 C.2     1  UNL1        0.2419
     12 N          -8.1598  -18.2131   22.5495 N.2     1  UNL1       -0.0302
     13 C          -9.1692  -17.3801   23.2824 C.2     1  UNL1        0.3765
     14 N          -8.4365  -16.2762   23.9855 N.2     1  UNL1       -0.0256
     15 C          -6.9742  -16.4269   23.6872 C.2     1  UNL1        0.2907
     16 C         -10.6513  -17.6106   23.3077 C.ar    1  UNL1        0.0989
     17 C         -11.2804  -18.3190   24.4706 C.ar    1  UNL1        0.0085
     18 C         -12.7623  -18.5494   24.4958 C.ar    1  UNL1        0.0003
     19 C         -13.6151  -18.0715   23.3581 C.ar    1  UNL1        0.0009
     20 C         -12.9860  -17.3632   22.1952 C.ar    1  UNL1        0.0116
     21 C         -11.5041  -17.1327   22.1700 C.ar    1  UNL1        0.0651
     22 CL        -10.8749  -16.4243   21.0071 Cl      1  UNL1       -0.0820
@<TRIPOS>BOND
     1     1     2    2
     2     2     3    1
     3     3     4    2
     4     4     5   ar
     5     5     6   ar
     6     6     7   ar
     7     7     8    1
     8     7     9   ar
     9     9    10   ar
    10    10    11    2
    11    11    12    1
    12    12    13    2
    13    13    16    1
    14    16    17   ar
    15    17    18   ar
    16    18    19   ar
    17    19    20   ar
    18    20    21   ar
    19    21    22    1
    20    13    14    1
    21    14    15    2
    22    15     2    1
    23    10     4   ar
    24    15    11    1
    25    21    16   ar
@<TRIPOS>MOLECULE
*****
 22 25 0 0 0
SMALL
GASTEIGER

@<TRIPOS>ATOM
      1 O          -9.0540  -20.4492   18.0135 O.2     1  UNL1       -0.2638
      2 C          -8.9453  -19.9217   19.4135 C.2     1  UNL1        0.3160
      3 N         -10.1659  -19.8416   20.2816 N.am    1  UNL1       -0.1720
      4 C         -10.0573  -19.3141   21.6816 C.ar    1  UNL1        0.0775
      5 C         -11.2779  -19.2339   22.5497 C.ar    1  UNL1        0.0172
      6 C         -11.1692  -18.7064   23.9497 C.ar    1  UNL1        0.0080
      7 C          -9.8399  -18.2591   24.4815 C.ar    1  UNL1        0.0348
      8 BR         -9.7313  -17.7315   25.8816 Br      1  UNL1       -0.0490
      9 C          -8.6193  -18.3392   23.6134 C.ar    1  UNL1        0.0118
     10 C          -8.7280  -18.8667   22.2135 C.ar    1  UNL1        0.0628
     11 C          -7.5073  -18.9469   21.3453 C.2     1  UNL1        0.2419
     12 N          -6.0737  -18.5822   21.5933 N.2     1  UNL1       -0.0302
     13 C          -5.2962  -18.8844   20.3466 C.2     1  UNL1        0.3765
     14 N          -6.2495  -19.4357   19.3281 N.2     1  UNL1       -0.0256
     15 C          -7.6160  -19.4744   19.9454 C.2     1  UNL1        0.2907
     16 C          -3.8240  -18.6724   20.1525 C.ar    1  UNL1        0.0989
     17 C          -3.3150  -18.0674   18.8777 C.ar    1  UNL1        0.0085
     18 C          -1.8429  -17.8554   18.6837 C.ar    1  UNL1        0.0003
     19 C          -0.8796  -18.2484   19.7643 C.ar    1  UNL1        0.0009
     20 C          -1.3886  -18.8533   21.0390 C.ar    1  UNL1        0.0116
     21 C          -2.8608  -19.0653   21.2331 C.ar    1  UNL1        0.0651
     22 CL         -3.3698  -19.6702   22.5079 Cl      1  UNL1       -0.0820
@<TRIPOS>BOND
     1     1     2    2
     2     2     3    1
     3     3     4    2
     4     4     5   ar
     5     5     6   ar
     6     6     7   ar
     7     7     8    1
     8     7     9   ar
     9     9    10   ar
    10    10    11    2
    11    11    12    1
    12    12    13    2
    13    13    16    1
    14    16    17   ar
    15    17    18   ar
    16    18    19   ar
    17    19    20   ar
    18    20    21   ar
    19    21    22    1
    20    13    14    1
    21    14    15    2
    22    15     2    1
    23    10     4   ar
    24    15    11    1
    25    21    16   ar
@<TRIPOS>MOLECULE
*****
 22 25 0 0 0
SMALL
GASTEIGER

@<TRIPOS>ATOM
      1 O         -10.3497   -6.9711   18.9912 O.2     1  UNL1       -0.2638
      2 C         -11.2831   -5.7995   18.9109 C.2     1  UNL1        0.3160
      3 N         -10.7330   -4.4091   18.7932 N.am    1  UNL1       -0.1720
      4 C         -11.6664   -3.2375   18.7129 C.ar    1  UNL1        0.0775
      5 C         -11.1164   -1.8470   18.5952 C.ar    1  UNL1        0.0172
      6 C         -12.0498   -0.6756   18.5149 C.ar    1  UNL1        0.0080
      7 C         -13.5332   -0.8947   18.5523 C.ar    1  UNL1        0.0348
      8 BR        -14.4666    0.2769   18.4720 Br      1  UNL1       -0.0490
      9 C         -14.0833   -2.2852   18.6700 C.ar    1  UNL1        0.0118
     10 C         -13.1499   -3.4566   18.7503 C.ar    1  UNL1        0.0628
     11 C         -13.6999   -4.8472   18.8680 C.2     1  UNL1        0.2419
     12 N         -15.1049   -5.3689   18.9283 N.2     1  UNL1       -0.0302
     13 C         -15.0399   -6.8629   19.0459 C.2     1  UNL1        0.3765
     14 N         -13.5947   -7.2644   19.0583 N.2     1  UNL1       -0.0256
     15 C         -12.7666   -6.0186   18.9483 C.2     1  UNL1        0.2907
     16 C         -16.2140   -7.7922   19.1355 C.ar    1  UNL1        0.0989
     17 C         -17.4582   -7.3617   19.8542 C.ar    1  UNL1        0.0085
     18 C         -18.6322   -8.2910   19.9437 C.ar    1  UNL1        0.0003
     19 C         -18.5620   -9.6508   19.3145 C.ar    1  UNL1        0.0009
     20 C         -17.3179  -10.0814   18.5958 C.ar    1  UNL1        0.0116
     21 C         -16.1438   -9.1521   18.5063 C.ar    1  UNL1        0.0651
     22 CL        -14.8996   -9.5826   17.7876 Cl      1  UNL1       -0.0820
@<TRIPOS>BOND
     1     1     2    2
     2     2     3    1
     3     3     4    2
     4     4     5   ar
     5     5     6   ar
     6     6     7   ar
     7     7     8    1
     8     7     9   ar
     9     9    10   ar
    10    10    11    2
    11    11    12    1
    12    12    13    2
    13    13    16    1
    14    16    17   ar
    15    17    18   ar
    16    18    19   ar
    17    19    20   ar
    18    20    21   ar
    19    21    22    1
    20    13    14    1
    21    14    15    2
    22    15     2    1
    23    10     4   ar
    24    15    11    1
    25    21    16   ar
@<TRIPOS>MOLECULE
*****
 22 25 0 0 0
SMALL
GASTEIGER

@<TRIPOS>ATOM
      1 O          -8.5937  -21.3330   18.1158 O.2     1  UNL1       -0.2638
      2 C          -8.9571  -20.2675   19.1072 C.2     1  UNL1        0.3160
      3 N         -10.3860  -19.8357   19.2540 N.am    1  UNL1       -0.1720
      4 C         -10.7495  -18.7702   20.2454 C.ar    1  UNL1        0.0775
      5 C         -12.1784  -18.3383   20.3922 C.ar    1  UNL1        0.0172
      6 C         -12.5417  -17.2729   21.3835 C.ar    1  UNL1        0.0080
      7 C         -11.4762  -16.6393   22.2280 C.ar    1  UNL1        0.0348
      8 BR        -11.8396  -15.5738   23.2194 Br      1  UNL1       -0.0490
      9 C         -10.0472  -17.0712   22.0812 C.ar    1  UNL1        0.0118
     10 C          -9.6839  -18.1366   21.0899 C.ar    1  UNL1        0.0628
     11 C          -8.2549  -18.5686   20.9430 C.2     1  UNL1        0.2419
     12 N          -6.9975  -18.1286   21.6324 N.2     1  UNL1       -0.0302
     13 C          -5.8570  -18.9221   21.0672 C.2     1  UNL1        0.3765
     14 N          -6.4095  -19.8525   20.0284 N.2     1  UNL1       -0.0256
     15 C          -7.8915  -19.6340   19.9517 C.2     1  UNL1        0.2907
     16 C          -4.4167  -18.8057   21.4700 C.ar    1  UNL1        0.0989
     17 C          -4.0418  -18.0304   22.6981 C.ar    1  UNL1        0.0085
     18 C          -2.6016  -17.9140   23.1009 C.ar    1  UNL1        0.0003
     19 C          -1.5364  -18.5728   22.2755 C.ar    1  UNL1        0.0009
     20 C          -1.9113  -19.3481   21.0474 C.ar    1  UNL1        0.0116
     21 C          -3.3515  -19.4645   20.6446 C.ar    1  UNL1        0.0651
     22 CL         -3.7265  -20.2397   19.4164 Cl      1  UNL1       -0.0820
@<TRIPOS>BOND
     1     1     2    2
     2     2     3    1
     3     3     4    2
     4     4     5   ar
     5     5     6   ar
     6     6     7   ar
     7     7     8    1
     8     7     9   ar
     9     9    10   ar
    10    10    11    2
    11    11    12    1
    12    12    13    2
    13    13    16    1
    14    16    17   ar
    15    17    18   ar
    16    18    19   ar
    17    19    20   ar
    18    20    21   ar
    19    21    22    1
    20    13    14    1
    21    14    15    2
    22    15     2    1
    23    10     4   ar
    24    15    11    1
    25    21    16   ar
@<TRIPOS>MOLECULE
*****
 22 25 0 0 0
SMALL
GASTEIGER

@<TRIPOS>ATOM
      1 O           7.2883   -2.4124   17.4753 O.2     1  UNL1       -0.2638
      2 C           6.0734   -1.9988   18.2519 C.2     1  UNL1        0.3160
      3 N           5.0105   -1.1685   17.5955 N.am    1  UNL1       -0.1720
      4 C           3.7956   -0.7549   18.3721 C.ar    1  UNL1        0.0775
      5 C           2.7327    0.0753   17.7157 C.ar    1  UNL1        0.0172
      6 C           1.5178    0.4889   18.4922 C.ar    1  UNL1        0.0080
      7 C           1.3658    0.0721   19.9251 C.ar    1  UNL1        0.0348
      8 BR          0.1509    0.4857   20.7017 Br      1  UNL1       -0.0490
      9 C           2.4287   -0.7582   20.5815 C.ar    1  UNL1        0.0118
     10 C           3.6436   -1.1717   19.8050 C.ar    1  UNL1        0.0628
     11 C           4.7066   -2.0020   20.4613 C.2     1  UNL1        0.2419
     12 N           4.8313   -2.5589   21.8485 N.2     1  UNL1       -0.0302
     13 C           6.1233   -3.3167   21.9292 C.2     1  UNL1        0.3765
     14 N           6.7970   -3.2281   20.5920 N.2     1  UNL1       -0.0256
     15 C           5.9214   -2.4155   19.6848 C.2     1  UNL1        0.2907
     16 C           6.6493   -4.0367   23.1355 C.ar    1  UNL1        0.0989
     17 C           7.5688   -5.2097   22.9671 C.ar    1  UNL1        0.0085
     18 C           8.0947   -5.9296   24.1734 C.ar    1  UNL1        0.0003
     19 C           7.7010   -5.4765   25.5481 C.ar    1  UNL1        0.0009
     20 C           6.7814   -4.3035   25.7165 C.ar    1  UNL1        0.0116
     21 C           6.2555   -3.5836   24.5102 C.ar    1  UNL1        0.0651
     22 CL          5.3359   -2.4106   24.6786 Cl      1  UNL1       -0.0820
@<TRIPOS>BOND
     1     1     2    2
     2     2     3    1
     3     3     4    2
     4     4     5   ar
     5     5     6   ar
     6     6     7   ar
     7     7     8    1
     8     7     9   ar
     9     9    10   ar
    10    10    11    2
    11    11    12    1
    12    12    13    2
    13    13    16    1
    14    16    17   ar
    15    17    18   ar
    16    18    19   ar
    17    19    20   ar
    18    20    21   ar
    19    21    22    1
    20    13    14    1
    21    14    15    2
    22    15     2    1
    23    10     4   ar
    24    15    11    1
    25    21    16   ar
