@<TRIPOS>MOLECULE
*****
 29 31 0 0 0
SMALL
GASTEIGER

@<TRIPOS>ATOM
      1 C           2.6103   -0.0608   23.8259 C.ar    1  UNL1        0.1593
      2 C           3.3533   -0.5258   25.0430 C.ar    1  UNL1        0.1357
      3 N           4.3199   -1.6683   24.9406 N.ar    1  UNL1       -0.2390
      4 C           4.5435   -2.3457   23.6211 C.ar    1  UNL1        0.1030
      5 C           5.4266   -3.4886   23.2165 C.ar    1  UNL1        0.0895
      6 C           5.2293   -3.7299   21.7492 C.ar    1  UNL1        0.0823
      7 N           4.2243   -2.7361   21.2470 N.ar    1  UNL1       -0.3189
      8 C           3.8004   -1.8806   22.4040 C.ar    1  UNL1        0.0814
      9 C           2.8338   -0.7381   22.5063 C.ar    1  UNL1        0.0572
     10 C           6.3456   -4.2556   24.1204 C.2     1  UNL1        0.2489
     11 O           7.2441   -5.3144   23.5532 O.2     1  UNL1       -0.2700
     12 N           6.3662   -3.9638   25.5916 N.am    1  UNL1       -0.2984
     13 H           5.7765   -3.2689   25.9639 H       1  UNL1        0.1498
     14 C           7.2852   -4.7308   26.4956 C.3     1  UNL1        0.1215
     15 C           6.7655   -5.9031   27.2739 C.3     1  UNL1        0.1583
     16 O           5.3748   -5.8735   27.8352 O.3     1  UNL1       -0.3802
     17 H           5.3161   -5.1867   28.5176 H       1  UNL1        0.2105
     18 C           0.6691    1.1399   25.0670 C.3     1  UNL1        0.2525
     19 O           1.6437    1.0817   23.9282 O.3     1  UNL1       -0.4698
     20 C           3.7299   -2.6184   19.8357 C.3     1  UNL1        0.1518
     21 C           4.0310   -1.3857   19.0359 C.ar    1  UNL1        0.0841
     22 N           3.0471   -0.2539   19.0033 N.ar    1  UNL1       -0.2265
     23 C           3.3482    0.9788   18.2036 C.ar    1  UNL1        0.2012
     24 N           4.6331    1.0799   17.4363 N.ar    1  UNL1       -0.1896
     25 C           5.6170   -0.0520   17.4689 C.ar    1  UNL1        0.2234
     26 C           5.3160   -1.2847   18.2687 C.ar    1  UNL1        0.0468
     27 C           6.2999   -2.4165   18.3012 C.3     1  UNL1        0.0372
     28 O           6.9020    0.0490   16.7017 O.3     1  UNL1       -0.4563
     29 C           7.4333    1.3937   16.3023 C.3     1  UNL1        0.2542
@<TRIPOS>BOND
     1    18    19    1
     2    19     1    1
     3     1     2   ar
     4     2     3   ar
     5     3     4   ar
     6     4     5   ar
     7     5    10    1
     8    10    11    2
     9    10    12   am
    10    12    14    1
    11    14    15    1
    12    15    16    1
    13     5     6   ar
    14     6     7   ar
    15     7    20    1
    16    20    21    1
    17    21    22   ar
    18    22    23   ar
    19    23    24   ar
    20    24    25   ar
    21    25    28    1
    22    28    29    1
    23    25    26   ar
    24    26    27    1
    25     7     8   ar
    26     8     9   ar
    27     9     1   ar
    28     8     4   ar
    29    26    21   ar
    30    12    13    1
    31    16    17    1
@<TRIPOS>MOLECULE
*****
 29 31 0 0 0
SMALL
GASTEIGER

@<TRIPOS>ATOM
      1 C           2.7002    0.1950   24.3478 C.ar    1  UNL1        0.1593
      2 C           3.5333   -0.4344   25.4247 C.ar    1  UNL1        0.1357
      3 N           4.4168   -1.6030   25.1028 N.ar    1  UNL1       -0.2390
      4 C           4.4673   -2.1423   23.7040 C.ar    1  UNL1        0.1030
      5 C           5.2376   -3.2745   23.0919 C.ar    1  UNL1        0.0895
      6 C           4.8805   -3.3449   21.6367 C.ar    1  UNL1        0.0823
      7 N           3.8896   -2.2561   21.3494 N.ar    1  UNL1       -0.3189
      8 C           3.6342   -1.5129   22.6271 C.ar    1  UNL1        0.0814
      9 C           2.7506   -0.3442   22.9490 C.ar    1  UNL1        0.0572
     10 C           6.1965   -4.1778   23.8092 C.2     1  UNL1        0.2489
     11 O           7.1341   -5.0490   23.0270 O.2     1  UNL1       -0.2700
     12 N           6.2179   -4.2099   25.3087 N.am    1  UNL1       -0.2984
     13 H           5.6026   -3.6381   25.8221 H       1  UNL1        0.1498
     14 C           7.1769   -5.1132   26.0259 C.3     1  UNL1        0.1215
     15 C           6.6645   -6.1154   27.0173 C.3     1  UNL1        0.1583
     16 O           5.4643   -5.7933   27.8575 O.3     1  UNL1       -0.3802
     17 H           5.6778   -5.0636   28.4599 H       1  UNL1        0.2105
     18 C           0.7333    1.2241   25.6977 C.3     1  UNL1        0.2525
     19 O           1.8166    1.3636   24.6697 O.3     1  UNL1       -0.4698
     20 C           3.2639   -1.9622   20.0182 C.3     1  UNL1        0.1518
     21 C           3.4711   -0.6250   19.3710 C.ar    1  UNL1        0.0841
     22 N           4.8265   -0.2441   18.8536 N.ar    1  UNL1       -0.2265
     23 C           5.0337    1.0931   18.2063 C.ar    1  UNL1        0.2012
     24 N           3.8855    2.0495   18.0766 N.ar    1  UNL1       -0.1896
     25 C           2.5300    1.6686   18.5941 C.ar    1  UNL1        0.2234
     26 C           2.3228    0.3314   19.2413 C.ar    1  UNL1        0.0468
     27 C           0.9673   -0.0494   19.7587 C.3     1  UNL1        0.0372
     28 O           1.3818    2.6251   18.4643 O.3     1  UNL1       -0.4563
     29 C           1.2037    3.7239   19.4696 C.3     1  UNL1        0.2542
@<TRIPOS>BOND
     1    18    19    1
     2    19     1    1
     3     1     2   ar
     4     2     3   ar
     5     3     4   ar
     6     4     5   ar
     7     5    10    1
     8    10    11    2
     9    10    12   am
    10    12    14    1
    11    14    15    1
    12    15    16    1
    13     5     6   ar
    14     6     7   ar
    15     7    20    1
    16    20    21    1
    17    21    22   ar
    18    22    23   ar
    19    23    24   ar
    20    24    25   ar
    21    25    28    1
    22    28    29    1
    23    25    26   ar
    24    26    27    1
    25     7     8   ar
    26     8     9   ar
    27     9     1   ar
    28     8     4   ar
    29    26    21   ar
    30    12    13    1
    31    16    17    1
@<TRIPOS>MOLECULE
*****
 29 31 0 0 0
SMALL
GASTEIGER

@<TRIPOS>ATOM
      1 C           2.8289   -0.2469   24.2262 C.ar    1  UNL1        0.1593
      2 C           1.8792    0.9045   24.3754 C.ar    1  UNL1        0.1357
      3 N           1.1266    1.4154   23.1827 N.ar    1  UNL1       -0.2390
      4 C           1.3236    0.7749   21.8408 C.ar    1  UNL1        0.1030
      5 C           0.7251    1.0595   20.4952 C.ar    1  UNL1        0.0895
      6 C           1.3049    0.0839   19.5142 C.ar    1  UNL1        0.0823
      7 N           2.2618   -0.8036   20.2536 N.ar    1  UNL1       -0.3189
      8 C           2.2733   -0.3765   21.6915 C.ar    1  UNL1        0.0814
      9 C           3.0260   -0.8874   22.8842 C.ar    1  UNL1        0.0572
     10 C          -0.2772    2.1314   20.1849 C.2     1  UNL1        0.2489
     11 O          -0.2550    2.8154   18.8502 O.2     1  UNL1       -0.2700
     12 N          -1.3017    2.5194   21.2095 N.am    1  UNL1       -0.2984
     13 H          -1.3163    2.0705   22.0856 H       1  UNL1        0.1498
     14 C          -2.3041    3.5914   20.8993 C.3     1  UNL1        0.1215
     15 C          -3.6856    3.5168   21.4788 C.3     1  UNL1        0.1583
     16 O          -4.5809    2.3628   21.1374 O.3     1  UNL1       -0.3802
     17 H          -4.8023    2.3935   20.1935 H       1  UNL1        0.2105
     18 C           3.2671   -0.2292   26.7870 C.3     1  UNL1        0.2525
     19 O           3.5815   -0.7578   25.4189 O.3     1  UNL1       -0.4698
     20 C           3.0659   -1.9218   19.6595 C.3     1  UNL1        0.1518
     21 C           4.5228   -1.7227   19.3632 C.ar    1  UNL1        0.0841
     22 N           5.5582   -2.1940   20.3408 N.ar    1  UNL1       -0.2265
     23 C           7.0151   -1.9950   20.0446 C.ar    1  UNL1        0.2012
     24 N           7.4367   -1.3246   18.7706 N.ar    1  UNL1       -0.1896
     25 C           6.4012   -0.8533   17.7929 C.ar    1  UNL1        0.2234
     26 C           4.9443   -1.0524   18.0892 C.ar    1  UNL1        0.0468
     27 C           3.9089   -0.5811   17.1115 C.3     1  UNL1        0.0372
     28 O           6.8227   -0.1830   16.5190 O.3     1  UNL1       -0.4563
     29 C           7.3523    1.2201   16.5494 C.3     1  UNL1        0.2542
@<TRIPOS>BOND
     1    18    19    1
     2    19     1    1
     3     1     2   ar
     4     2     3   ar
     5     3     4   ar
     6     4     5   ar
     7     5    10    1
     8    10    11    2
     9    10    12   am
    10    12    14    1
    11    14    15    1
    12    15    16    1
    13     5     6   ar
    14     6     7   ar
    15     7    20    1
    16    20    21    1
    17    21    22   ar
    18    22    23   ar
    19    23    24   ar
    20    24    25   ar
    21    25    28    1
    22    28    29    1
    23    25    26   ar
    24    26    27    1
    25     7     8   ar
    26     8     9   ar
    27     9     1   ar
    28     8     4   ar
    29    26    21   ar
    30    12    13    1
    31    16    17    1
@<TRIPOS>MOLECULE
*****
 29 31 0 0 0
SMALL
GASTEIGER

@<TRIPOS>ATOM
      1 C           7.7786   -6.9382   25.7081 C.ar    1  UNL1        0.1593
      2 C           7.1658   -6.2670   26.9013 C.ar    1  UNL1        0.1357
      3 N           6.6013   -4.8829   26.7756 N.ar    1  UNL1       -0.2390
      4 C           6.6498   -4.1701   25.4567 C.ar    1  UNL1        0.1030
      5 C           6.1770   -2.8114   25.0322 C.ar    1  UNL1        0.0895
      6 C           6.4978   -2.6428   23.5766 C.ar    1  UNL1        0.0823
      7 N           7.1687   -3.8974   23.1015 N.ar    1  UNL1       -0.3189
      8 C           7.2627   -4.8414   24.2635 C.ar    1  UNL1        0.0814
      9 C           7.8271   -6.2254   24.3892 C.ar    1  UNL1        0.0572
     10 C           5.5021   -1.7989   25.9093 C.2     1  UNL1        0.2489
     11 O           5.3228   -0.3898   25.4274 O.2     1  UNL1       -0.2700
     12 N           5.0064   -2.1955   27.2683 N.am    1  UNL1       -0.2984
     13 H           5.1240   -3.1203   27.5847 H       1  UNL1        0.1498
     14 C           4.3314   -1.1830   28.1454 C.3     1  UNL1        0.1215
     15 C           2.8949   -0.8230   27.9070 C.3     1  UNL1        0.1583
     16 O           2.4838   -0.1998   26.6060 O.3     1  UNL1       -0.3802
     17 H           2.8867    0.6790   26.5269 H       1  UNL1        0.2105
     18 C           8.5397   -8.9318   27.1902 C.3     1  UNL1        0.2525
     19 O           8.3431   -8.3223   25.8338 O.3     1  UNL1       -0.4698
     20 C           7.6596   -4.1617   21.7090 C.3     1  UNL1        0.1518
     21 C           6.7913   -3.8292   20.5319 C.ar    1  UNL1        0.0841
     22 N           5.4561   -4.4941   20.3732 N.ar    1  UNL1       -0.2265
     23 C           4.5878   -4.1615   19.1962 C.ar    1  UNL1        0.2012
     24 N           5.0547   -3.1641   18.1778 N.ar    1  UNL1       -0.1896
     25 C           6.3899   -2.4992   18.3365 C.ar    1  UNL1        0.2234
     26 C           7.2582   -2.8317   19.5136 C.ar    1  UNL1        0.0468
     27 C           8.5934   -2.1667   19.6722 C.3     1  UNL1        0.0372
     28 O           6.8567   -1.5017   17.3181 O.3     1  UNL1       -0.4563
     29 C           6.2780   -0.1179   17.3035 C.3     1  UNL1        0.2542
@<TRIPOS>BOND
     1    18    19    1
     2    19     1    1
     3     1     2   ar
     4     2     3   ar
     5     3     4   ar
     6     4     5   ar
     7     5    10    1
     8    10    11    2
     9    10    12   am
    10    12    14    1
    11    14    15    1
    12    15    16    1
    13     5     6   ar
    14     6     7   ar
    15     7    20    1
    16    20    21    1
    17    21    22   ar
    18    22    23   ar
    19    23    24   ar
    20    24    25   ar
    21    25    28    1
    22    28    29    1
    23    25    26   ar
    24    26    27    1
    25     7     8   ar
    26     8     9   ar
    27     9     1   ar
    28     8     4   ar
    29    26    21   ar
    30    12    13    1
    31    16    17    1
@<TRIPOS>MOLECULE
*****
 29 31 0 0 0
SMALL
GASTEIGER

@<TRIPOS>ATOM
      1 C           0.1899    1.9981   22.0489 C.ar    1  UNL1        0.1593
      2 C           0.5260    2.0989   23.5073 C.ar    1  UNL1        0.1357
      3 N           1.5499    1.1808   24.1062 N.ar    1  UNL1       -0.2390
      4 C           2.2378    0.1620   23.2468 C.ar    1  UNL1        0.1030
      5 C           3.2816   -0.8704   23.5543 C.ar    1  UNL1        0.0895
      6 C           3.5907   -1.6093   22.2860 C.ar    1  UNL1        0.0823
      7 N           2.7379   -1.0335   21.1946 N.ar    1  UNL1       -0.3189
      8 C           1.9018    0.0612   21.7884 C.ar    1  UNL1        0.0814
      9 C           0.8778    0.9793   21.1895 C.ar    1  UNL1        0.0572
     10 C           3.9066   -1.1201   24.8948 C.2     1  UNL1        0.2489
     11 O           5.3028   -1.6612   24.9824 O.2     1  UNL1       -0.2700
     12 N           3.1354   -0.8287   26.1479 N.am    1  UNL1       -0.2984
     13 H           2.2189   -0.4735   26.0905 H       1  UNL1        0.1498
     14 C           3.7603   -1.0784   27.4885 C.3     1  UNL1        0.1215
     15 C           2.9949   -0.7723   28.7416 C.3     1  UNL1        0.1583
     16 O           1.5051   -0.9446   28.7715 O.3     1  UNL1       -0.3802
     17 H           1.0935   -0.3050   28.1695 H       1  UNL1        0.2105
     18 C          -0.4876    4.3498   21.1770 C.3     1  UNL1        0.2525
     19 O          -0.8340    2.9161   21.4500 O.3     1  UNL1       -0.4698
     20 C           2.7237   -1.4749   19.7611 C.3     1  UNL1        0.1518
     21 C           3.9816   -1.4171   18.9460 C.ar    1  UNL1        0.0841
     22 N           4.8967   -2.6044   18.8936 N.ar    1  UNL1       -0.2265
     23 C           6.1546   -2.5466   18.0786 C.ar    1  UNL1        0.2012
     24 N           6.4975   -1.3013   17.3159 N.ar    1  UNL1       -0.1896
     25 C           5.5824   -0.1139   17.3683 C.ar    1  UNL1        0.2234
     26 C           4.3244   -0.1717   18.1834 C.ar    1  UNL1        0.0468
     27 C           3.4094    1.0157   18.2357 C.3     1  UNL1        0.0372
     28 O           5.9253    1.1314   16.6056 O.3     1  UNL1       -0.4563
     29 C           7.3351    1.3687   16.1519 C.3     1  UNL1        0.2542
@<TRIPOS>BOND
     1    18    19    1
     2    19     1    1
     3     1     2   ar
     4     2     3   ar
     5     3     4   ar
     6     4     5   ar
     7     5    10    1
     8    10    11    2
     9    10    12   am
    10    12    14    1
    11    14    15    1
    12    15    16    1
    13     5     6   ar
    14     6     7   ar
    15     7    20    1
    16    20    21    1
    17    21    22   ar
    18    22    23   ar
    19    23    24   ar
    20    24    25   ar
    21    25    28    1
    22    28    29    1
    23    25    26   ar
    24    26    27    1
    25     7     8   ar
    26     8     9   ar
    27     9     1   ar
    28     8     4   ar
    29    26    21   ar
    30    12    13    1
    31    16    17    1
@<TRIPOS>MOLECULE
*****
 29 31 0 0 0
SMALL
GASTEIGER

@<TRIPOS>ATOM
      1 C           0.6444    1.5267   20.1617 C.ar    1  UNL1        0.1593
      2 C           1.0953    0.3394   19.3637 C.ar    1  UNL1        0.1357
      3 N           2.0379   -0.6576   19.9699 N.ar    1  UNL1       -0.2390
      4 C           2.5296   -0.4672   21.3741 C.ar    1  UNL1        0.1030
      5 C           3.4565   -1.2770   22.2315 C.ar    1  UNL1        0.0895
      6 C           3.5785   -0.5901   23.5594 C.ar    1  UNL1        0.0823
      7 N           2.7270    0.6442   23.5228 N.ar    1  UNL1       -0.3189
      8 C           2.0787    0.7201   22.1721 C.ar    1  UNL1        0.0814
      9 C           1.1361    1.7171   21.5659 C.ar    1  UNL1        0.0572
     10 C           4.1412   -2.5502   21.8312 C.2     1  UNL1        0.2489
     11 O           4.3719   -3.6292   22.8473 O.2     1  UNL1       -0.2700
     12 N           4.5952   -2.7444   20.4148 N.am    1  UNL1       -0.2984
     13 H           4.4437   -2.0362   19.7479 H       1  UNL1        0.1498
     14 C           5.2799   -4.0175   20.0146 C.3     1  UNL1        0.1215
     15 C           4.6381   -4.9314   19.0131 C.3     1  UNL1        0.1583
     16 O           3.2750   -4.6140   18.4735 O.3     1  UNL1       -0.3802
     17 H           2.6223   -4.6730   19.1887 H       1  UNL1        0.2105
     18 C          -0.0621    3.0285   18.1628 C.3     1  UNL1        0.2525
     19 O          -0.2982    2.5237   19.5554 O.3     1  UNL1       -0.4698
     20 C           2.5541    1.6296   24.6404 C.3     1  UNL1        0.1518
     21 C           2.1181    1.1575   25.9958 C.ar    1  UNL1        0.0841
     22 N           3.1240    0.5855   26.9502 N.ar    1  UNL1       -0.2265
     23 C           2.6881    0.1134   28.3055 C.ar    1  UNL1        0.2012
     24 N           1.2461    0.2132   28.7065 N.ar    1  UNL1       -0.1896
     25 C           0.2401    0.7852   27.7520 C.ar    1  UNL1        0.2234
     26 C           0.6761    1.2573   26.3967 C.ar    1  UNL1        0.0468
     27 C          -0.3299    1.8293   25.4423 C.3     1  UNL1        0.0372
     28 O          -1.2018    0.8850   28.1531 O.3     1  UNL1       -0.4563
     29 C          -1.7892   -0.1219   29.0970 C.3     1  UNL1        0.2542
@<TRIPOS>BOND
     1    18    19    1
     2    19     1    1
     3     1     2   ar
     4     2     3   ar
     5     3     4   ar
     6     4     5   ar
     7     5    10    1
     8    10    11    2
     9    10    12   am
    10    12    14    1
    11    14    15    1
    12    15    16    1
    13     5     6   ar
    14     6     7   ar
    15     7    20    1
    16    20    21    1
    17    21    22   ar
    18    22    23   ar
    19    23    24   ar
    20    24    25   ar
    21    25    28    1
    22    28    29    1
    23    25    26   ar
    24    26    27    1
    25     7     8   ar
    26     8     9   ar
    27     9     1   ar
    28     8     4   ar
    29    26    21   ar
    30    12    13    1
    31    16    17    1
@<TRIPOS>MOLECULE
*****
 29 31 0 0 0
SMALL
GASTEIGER

@<TRIPOS>ATOM
      1 C           7.0495   -4.5854   23.2278 C.ar    1  UNL1        0.1593
      2 C           7.0389   -4.1669   24.6681 C.ar    1  UNL1        0.1357
      3 N           6.0576   -3.1365   25.1426 N.ar    1  UNL1       -0.2390
      4 C           5.0869   -2.5245   24.1766 C.ar    1  UNL1        0.1030
      5 C           4.0117   -1.4933   24.3518 C.ar    1  UNL1        0.0895
      6 C           3.3578   -1.2744   23.0197 C.ar    1  UNL1        0.0823
      7 N           4.0288   -2.1704   22.0212 N.ar    1  UNL1       -0.3189
      8 C           5.0975   -2.9429   22.7362 C.ar    1  UNL1        0.0814
      9 C           6.0788   -3.9734   22.2618 C.ar    1  UNL1        0.0572
     10 C           3.6534   -0.8022   25.6340 C.2     1  UNL1        0.2489
     11 O           3.3779    0.6722   25.6398 O.2     1  UNL1       -0.2700
     12 N           3.5706   -1.5857   26.9105 N.am    1  UNL1       -0.2984
     13 H           3.7514   -2.5534   26.9067 H       1  UNL1        0.1498
     14 C           3.2123   -0.8946   28.1927 C.3     1  UNL1        0.1215
     15 C           1.7835   -0.5386   28.4789 C.3     1  UNL1        0.1583
     16 O           1.0224    0.3337   27.5252 O.3     1  UNL1       -0.3802
     17 H           1.4125    1.2218   27.5176 H       1  UNL1        0.2105
     18 C           8.7519   -6.4782   23.7465 C.3     1  UNL1        0.2525
     19 O           8.0309   -5.6159   22.7533 O.3     1  UNL1       -0.4698
     20 C           3.6907   -2.2754   20.5636 C.3     1  UNL1        0.1518
     21 C           3.6416   -1.0400   19.7142 C.ar    1  UNL1        0.0841
     22 N           4.8985   -0.5058   19.0939 N.ar    1  UNL1       -0.2265
     23 C           4.8495    0.7295   18.2445 C.ar    1  UNL1        0.2012
     24 N           3.5434    1.4308   18.0154 N.ar    1  UNL1       -0.1896
     25 C           2.2864    0.8966   18.6357 C.ar    1  UNL1        0.2234
     26 C           2.3355   -0.3388   19.4851 C.ar    1  UNL1        0.0468
     27 C           1.0785   -0.8729   20.1053 C.3     1  UNL1        0.0372
     28 O           0.9804    1.5978   18.4065 O.3     1  UNL1       -0.4563
     29 C           0.6731    2.8695   19.1402 C.3     1  UNL1        0.2542
@<TRIPOS>BOND
     1    18    19    1
     2    19     1    1
     3     1     2   ar
     4     2     3   ar
     5     3     4   ar
     6     4     5   ar
     7     5    10    1
     8    10    11    2
     9    10    12   am
    10    12    14    1
    11    14    15    1
    12    15    16    1
    13     5     6   ar
    14     6     7   ar
    15     7    20    1
    16    20    21    1
    17    21    22   ar
    18    22    23   ar
    19    23    24   ar
    20    24    25   ar
    21    25    28    1
    22    28    29    1
    23    25    26   ar
    24    26    27    1
    25     7     8   ar
    26     8     9   ar
    27     9     1   ar
    28     8     4   ar
    29    26    21   ar
    30    12    13    1
    31    16    17    1
@<TRIPOS>MOLECULE
*****
 29 31 0 0 0
SMALL
GASTEIGER

@<TRIPOS>ATOM
      1 C           2.4795   -0.4433   21.4649 C.ar    1  UNL1        0.1593
      2 C           1.9431    0.1704   22.7241 C.ar    1  UNL1        0.1357
      3 N           2.5561   -0.1775   24.0482 N.ar    1  UNL1       -0.2390
      4 C           3.7054   -1.1392   24.1131 C.ar    1  UNL1        0.1030
      5 C           4.5074   -1.6686   25.2649 C.ar    1  UNL1        0.0895
      6 C           5.5394   -2.6095   24.7175 C.ar    1  UNL1        0.0823
      7 N           5.3753   -2.6616   23.2275 N.ar    1  UNL1       -0.3189
      8 C           4.2418   -1.7529   22.8539 C.ar    1  UNL1        0.0814
      9 C           3.6288   -1.4049   21.5298 C.ar    1  UNL1        0.0572
     10 C           4.3116   -1.3185   26.7103 C.2     1  UNL1        0.2489
     11 O           5.4716   -1.3755   27.6595 O.2     1  UNL1       -0.2700
     12 N           2.9558   -0.9115   27.2065 N.am    1  UNL1       -0.2984
     13 H           2.1945   -0.8742   26.5834 H       1  UNL1        0.1498
     14 C           2.7601   -0.5615   28.6518 C.3     1  UNL1        0.1215
     15 C           1.3782   -0.3279   29.1865 C.3     1  UNL1        0.1583
     16 O           0.1956   -0.4032   28.2669 O.3     1  UNL1       -0.3802
     17 H           0.2431    0.3175   27.6194 H       1  UNL1        0.2105
     18 C           0.4376    0.3555   20.0712 C.3     1  UNL1        0.2525
     19 O           1.8665   -0.0954   20.1408 O.3     1  UNL1       -0.4698
     20 C           6.1998   -3.4790   22.2777 C.3     1  UNL1        0.1518
     21 C           5.8901   -3.4623   20.8101 C.ar    1  UNL1        0.0841
     22 N           4.8920   -4.4279   20.2432 N.ar    1  UNL1       -0.2265
     23 C           4.5823   -4.4113   18.7756 C.ar    1  UNL1        0.2012
     24 N           5.2707   -3.4291   17.8749 N.ar    1  UNL1       -0.1896
     25 C           6.2689   -2.4635   18.4418 C.ar    1  UNL1        0.2234
     26 C           6.5786   -2.4801   19.9094 C.ar    1  UNL1        0.0468
     27 C           7.5768   -1.5145   20.4762 C.3     1  UNL1        0.0372
     28 O           6.9574   -1.4813   17.5411 O.3     1  UNL1       -0.4563
     29 C           6.3049   -0.1680   17.2254 C.3     1  UNL1        0.2542
@<TRIPOS>BOND
     1    18    19    1
     2    19     1    1
     3     1     2   ar
     4     2     3   ar
     5     3     4   ar
     6     4     5   ar
     7     5    10    1
     8    10    11    2
     9    10    12   am
    10    12    14    1
    11    14    15    1
    12    15    16    1
    13     5     6   ar
    14     6     7   ar
    15     7    20    1
    16    20    21    1
    17    21    22   ar
    18    22    23   ar
    19    23    24   ar
    20    24    25   ar
    21    25    28    1
    22    28    29    1
    23    25    26   ar
    24    26    27    1
    25     7     8   ar
    26     8     9   ar
    27     9     1   ar
    28     8     4   ar
    29    26    21   ar
    30    12    13    1
    31    16    17    1
@<TRIPOS>MOLECULE
*****
 29 31 0 0 0
SMALL
GASTEIGER

@<TRIPOS>ATOM
      1 C           7.9774   -6.2714   28.4805 C.ar    1  UNL1        0.1593
      2 C           7.5282   -6.1225   29.9038 C.ar    1  UNL1        0.1357
      3 N           6.9045   -4.8380   30.3630 N.ar    1  UNL1       -0.2390
      4 C           6.7300   -3.7023   29.3988 C.ar    1  UNL1        0.1030
      5 C           6.1529   -2.3273   29.5613 C.ar    1  UNL1        0.0895
      6 C           6.2454   -1.6264   28.2384 C.ar    1  UNL1        0.0823
      7 N           6.8797   -2.5681   27.2582 N.ar    1  UNL1       -0.3189
      8 C           7.1792   -3.8511   27.9755 C.ar    1  UNL1        0.0814
      9 C           7.8029   -5.1357   27.5163 C.ar    1  UNL1        0.0572
     10 C           5.5832   -1.7540   30.8249 C.2     1  UNL1        0.2489
     11 O           4.5369   -0.6813   30.7569 O.2     1  UNL1       -0.2700
     12 N           6.0598   -2.2533   32.1567 N.am    1  UNL1       -0.2984
     13 H           6.7465   -2.9573   32.2014 H       1  UNL1        0.1498
     14 C           5.4902   -1.6799   33.4203 C.3     1  UNL1        0.1215
     15 C           4.1407   -2.1226   33.9031 C.3     1  UNL1        0.1583
     16 O           3.6856   -3.5325   33.6686 O.3     1  UNL1       -0.3802
     17 H           3.5746   -3.6823   32.7167 H       1  UNL1        0.2105
     18 C           7.9593   -8.3509   26.9231 C.3     1  UNL1        0.2525
     19 O           8.6012   -7.5560   28.0213 O.3     1  UNL1       -0.4698
     20 C           7.1646   -2.2779   25.8144 C.3     1  UNL1        0.1518
     21 C           6.0396   -2.2266   24.8236 C.ar    1  UNL1        0.0841
     22 N           5.0724   -1.0803   24.8456 N.ar    1  UNL1       -0.2265
     23 C           3.9474   -1.0290   23.8548 C.ar    1  UNL1        0.2012
     24 N           3.7895   -2.1241   22.8419 N.ar    1  UNL1       -0.1896
     25 C           4.7568   -3.2704   22.8199 C.ar    1  UNL1        0.2234
     26 C           5.8818   -3.3217   23.8107 C.ar    1  UNL1        0.0468
     27 C           6.8489   -4.4681   23.7886 C.3     1  UNL1        0.0372
     28 O           4.5989   -4.3655   21.8070 O.3     1  UNL1       -0.4563
     29 C           4.3430   -4.0255   20.3686 C.3     1  UNL1        0.2542
@<TRIPOS>BOND
     1    18    19    1
     2    19     1    1
     3     1     2   ar
     4     2     3   ar
     5     3     4   ar
     6     4     5   ar
     7     5    10    1
     8    10    11    2
     9    10    12   am
    10    12    14    1
    11    14    15    1
    12    15    16    1
    13     5     6   ar
    14     6     7   ar
    15     7    20    1
    16    20    21    1
    17    21    22   ar
    18    22    23   ar
    19    23    24   ar
    20    24    25   ar
    21    25    28    1
    22    28    29    1
    23    25    26   ar
    24    26    27    1
    25     7     8   ar
    26     8     9   ar
    27     9     1   ar
    28     8     4   ar
    29    26    21   ar
    30    12    13    1
    31    16    17    1
