@<TRIPOS>MOLECULE
*****
 33 37 0 0 0
SMALL
GASTEIGER

@<TRIPOS>ATOM
      1 C         -10.3717  -17.4361   22.7588 C.ar    1  UNL1        0.0436
      2 C         -11.8363  -17.2741   23.0391 C.ar    1  UNL1        0.0142
      3 C         -12.8489  -17.8472   22.0925 C.ar    1  UNL1        0.0010
      4 C         -12.3969  -18.5822   20.8655 C.ar    1  UNL1       -0.0032
      5 C         -10.9323  -18.7441   20.5852 C.ar    1  UNL1       -0.0091
      6 C          -9.9197  -18.1711   21.5318 C.ar    1  UNL1       -0.0101
      7 C          -8.4550  -18.3330   21.2514 C.3     1  UNL1        0.0444
      8 C          -8.0030  -19.0680   20.0244 C.3     1  UNL1        0.0749
      9 N          -9.0157  -19.6411   19.0778 N.3     1  UNL1       -0.2934
     10 C         -10.4803  -19.4791   19.3582 C.3     1  UNL1        0.0954
     11 H          -8.8351  -20.6436   19.0249 H       1  UNL1        0.1236
     12 N          -7.3335  -15.7168   25.5986 N.3     1  UNL1       -0.2711
     13 C          -8.3546  -16.6968   26.0957 C.3     1  UNL1        0.0938
     14 C          -9.3673  -17.2699   25.1491 C.3     1  UNL1        0.1081
     15 N          -9.3589  -16.8630   23.7054 N.pl3   1  UNL1       -0.3049
     16 C          -8.3379  -15.8830   23.2082 C.3     1  UNL1        0.1081
     17 C          -7.3252  -15.3099   24.1548 C.3     1  UNL1        0.0938
     18 C          -6.7290  -14.7557   27.9354 C.3     1  UNL1        0.0173
     19 C          -6.3208  -15.1437   26.5451 C.3     1  UNL1        0.0577
     20 C          -4.9000  -14.9586   26.1014 C.3     1  UNL1        0.0173
     21 C          -6.5384  -19.2299   19.7441 C.3     1  UNL1        0.0886
     22 N          -5.6337  -19.8082   20.7915 N.3     1  UNL1       -0.2667
     23 C          -5.7085  -21.2692   21.1235 C.3     1  UNL1        0.0899
     24 C          -4.6543  -18.9257   21.5069 C.3     1  UNL1        0.0978
     25 C          -4.9083  -18.5218   22.9290 C.3     1  UNL1        0.0224
     26 C          -3.9289  -17.6392   23.6444 C.3     1  UNL1        0.0065
     27 C          -2.6954  -17.1606   22.9377 C.3     1  UNL1        0.0277
     28 C          -2.4413  -17.5644   21.5156 C.ar    1  UNL1       -0.0073
     29 C          -1.2078  -17.0858   20.8089 C.ar    1  UNL1       -0.0015
     30 C          -0.9538  -17.4897   19.3868 C.ar    1  UNL1        0.0203
     31 C          -1.9332  -18.3722   18.6714 C.ar    1  UNL1        0.0985
     32 N          -3.1667  -18.8509   19.3781 N.ar    1  UNL1       -0.2471
     33 C          -3.4208  -18.4470   20.8002 C.ar    1  UNL1        0.0695
@<TRIPOS>BOND
     1    18    19    1
     2    19    20    1
     3    19    12    1
     4    12    13    1
     5    13    14    1
     6    14    15    1
     7    15     1    1
     8     1     2   ar
     9     2     3   ar
    10     3     4   ar
    11     4     5   ar
    12     5     6   ar
    13     6     7    1
    14     7     8    1
    15     8    21    1
    16    21    22    1
    17    22    23    1
    18    24    22    1
    19    24    25    1
    20    25    26    1
    21    26    27    1
    22    27    28    1
    23    28    29   ar
    24    29    30   ar
    25    30    31   ar
    26    31    32   ar
    27    32    33   ar
    28     8     9    1
    29     9    10    1
    30    15    16    1
    31    16    17    1
    32    17    12    1
    33     6     1   ar
    34    33    24    1
    35    10     5    1
    36    33    28   ar
    37     9    11    1
@<TRIPOS>MOLECULE
*****
 33 37 0 0 0
SMALL
GASTEIGER

@<TRIPOS>ATOM
      1 C          -5.2968  -16.3254   24.5481 C.ar    1  UNL1        0.0436
      2 C          -4.7389  -16.2393   25.9378 C.ar    1  UNL1        0.0142
      3 C          -5.6248  -15.8328   27.0778 C.ar    1  UNL1        0.0010
      4 C          -7.0688  -15.5123   26.8282 C.ar    1  UNL1       -0.0032
      5 C          -7.6268  -15.5985   25.4386 C.ar    1  UNL1       -0.0091
      6 C          -6.7408  -16.0050   24.2985 C.ar    1  UNL1       -0.0101
      7 C          -7.2988  -16.0911   22.9088 C.3     1  UNL1        0.0444
      8 C          -8.7427  -15.7707   22.6592 C.3     1  UNL1        0.0749
      9 N          -9.6287  -15.3642   23.7993 N.3     1  UNL1       -0.2934
     10 C          -9.0707  -15.2780   25.1889 C.3     1  UNL1        0.0954
     11 H         -10.3951  -16.0365   23.8309 H       1  UNL1        0.1236
     12 N          -2.6389  -17.5451   21.1278 N.3     1  UNL1       -0.2711
     13 C          -3.5892  -18.5373   21.7299 C.3     1  UNL1        0.0938
     14 C          -4.4751  -18.1307   22.8701 C.3     1  UNL1        0.1081
     15 N          -4.4109  -16.7320   23.4080 N.pl3   1  UNL1       -0.3049
     16 C          -3.4606  -15.7398   22.8059 C.3     1  UNL1        0.1081
     17 C          -2.5747  -16.1463   21.6658 C.3     1  UNL1        0.0938
     18 C          -2.3519  -18.5460   18.7476 C.3     1  UNL1        0.0173
     19 C          -1.7530  -17.9516   19.9877 C.3     1  UNL1        0.0577
     20 C          -0.2682  -17.7636   20.0878 C.3     1  UNL1        0.0173
     21 C          -9.3007  -15.8568   21.2695 C.3     1  UNL1        0.0886
     22 N         -10.5328  -16.6705   21.0051 N.3     1  UNL1       -0.2667
     23 C         -11.0638  -16.7950   19.6077 C.3     1  UNL1        0.0899
     24 C         -11.2339  -17.3597   22.1380 C.3     1  UNL1        0.0978
     25 C         -12.5852  -16.8848   22.5837 C.3     1  UNL1        0.0224
     26 C         -13.2863  -17.5740   23.7166 C.3     1  UNL1        0.0065
     27 C         -12.6361  -18.7380   24.4038 C.3     1  UNL1        0.0277
     28 C         -11.2849  -19.2129   23.9582 C.ar    1  UNL1       -0.0073
     29 C         -10.6348  -20.3769   24.6455 C.ar    1  UNL1       -0.0015
     30 C          -9.2834  -20.8518   24.1998 C.ar    1  UNL1        0.0203
     31 C          -8.5824  -20.1626   23.0669 C.ar    1  UNL1        0.0985
     32 N          -9.2325  -18.9986   22.3796 N.ar    1  UNL1       -0.2471
     33 C         -10.5837  -18.5237   22.8253 C.ar    1  UNL1        0.0695
@<TRIPOS>BOND
     1    18    19    1
     2    19    20    1
     3    19    12    1
     4    12    13    1
     5    13    14    1
     6    14    15    1
     7    15     1    1
     8     1     2   ar
     9     2     3   ar
    10     3     4   ar
    11     4     5   ar
    12     5     6   ar
    13     6     7    1
    14     7     8    1
    15     8    21    1
    16    21    22    1
    17    22    23    1
    18    24    22    1
    19    24    25    1
    20    25    26    1
    21    26    27    1
    22    27    28    1
    23    28    29   ar
    24    29    30   ar
    25    30    31   ar
    26    31    32   ar
    27    32    33   ar
    28     8     9    1
    29     9    10    1
    30    15    16    1
    31    16    17    1
    32    17    12    1
    33     6     1   ar
    34    33    24    1
    35    10     5    1
    36    33    28   ar
    37     9    11    1
@<TRIPOS>MOLECULE
*****
 33 37 0 0 0
SMALL
GASTEIGER

@<TRIPOS>ATOM
      1 C          -3.5463  -16.9427   22.5526 C.ar    1  UNL1        0.0436
      2 C          -2.2502  -16.2321   22.2973 C.ar    1  UNL1        0.0142
      3 C          -1.3809  -16.6476   21.1477 C.ar    1  UNL1        0.0010
      4 C          -1.8076  -17.7738   20.2535 C.ar    1  UNL1       -0.0032
      5 C          -3.1037  -18.4844   20.5088 C.ar    1  UNL1       -0.0091
      6 C          -3.9730  -18.0689   21.6584 C.ar    1  UNL1       -0.0101
      7 C          -5.2691  -18.7795   21.9138 C.3     1  UNL1        0.0444
      8 C          -5.6958  -19.9057   21.0196 C.3     1  UNL1        0.0749
      9 N          -4.8264  -20.3213   19.8700 N.3     1  UNL1       -0.2934
     10 C          -3.5304  -19.6106   19.6146 C.3     1  UNL1        0.0954
     11 H          -5.3884  -20.2215   19.0247 H       1  UNL1        0.1236
     12 N          -6.1544  -15.6961   26.0014 N.3     1  UNL1       -0.2711
     13 C          -6.4323  -15.1726   24.6235 C.3     1  UNL1        0.0938
     14 C          -5.5629  -15.5882   23.4739 C.3     1  UNL1        0.1081
     15 N          -4.4157  -16.5272   23.7022 N.pl3   1  UNL1       -0.3049
     16 C          -4.1378  -17.0507   25.0802 C.3     1  UNL1        0.1081
     17 C          -5.0071  -16.6352   26.2298 C.3     1  UNL1        0.0938
     18 C          -6.6378  -14.1027   27.9957 C.3     1  UNL1        0.0173
     19 C          -7.0237  -15.2806   27.1510 C.3     1  UNL1        0.0577
     20 C          -8.2790  -16.0431   27.4560 C.3     1  UNL1        0.0173
     21 C          -6.9918  -20.6164   21.2749 C.3     1  UNL1        0.0886
     22 N          -8.2933  -19.9336   20.9749 N.3     1  UNL1       -0.2667
     23 C          -8.6615  -19.6108   19.5570 C.3     1  UNL1        0.0899
     24 C          -9.2266  -19.5738   22.0926 C.3     1  UNL1        0.0978
     25 C          -9.1426  -20.2992   23.4029 C.3     1  UNL1        0.0224
     26 C         -10.0759  -19.9393   24.5206 C.3     1  UNL1        0.0065
     27 C         -11.0932  -18.8540   24.3282 C.3     1  UNL1        0.0277
     28 C         -11.1773  -18.1286   23.0180 C.ar    1  UNL1       -0.0073
     29 C         -12.1947  -17.0433   22.8256 C.ar    1  UNL1       -0.0015
     30 C         -12.2788  -16.3178   21.5153 C.ar    1  UNL1        0.0203
     31 C         -11.3455  -16.6777   20.3976 C.ar    1  UNL1        0.0985
     32 N         -10.3281  -17.7630   20.5900 N.ar    1  UNL1       -0.2471
     33 C         -10.2440  -18.4884   21.9002 C.ar    1  UNL1        0.0695
@<TRIPOS>BOND
     1    18    19    1
     2    19    20    1
     3    19    12    1
     4    12    13    1
     5    13    14    1
     6    14    15    1
     7    15     1    1
     8     1     2   ar
     9     2     3   ar
    10     3     4   ar
    11     4     5   ar
    12     5     6   ar
    13     6     7    1
    14     7     8    1
    15     8    21    1
    16    21    22    1
    17    22    23    1
    18    24    22    1
    19    24    25    1
    20    25    26    1
    21    26    27    1
    22    27    28    1
    23    28    29   ar
    24    29    30   ar
    25    30    31   ar
    26    31    32   ar
    27    32    33   ar
    28     8     9    1
    29     9    10    1
    30    15    16    1
    31    16    17    1
    32    17    12    1
    33     6     1   ar
    34    33    24    1
    35    10     5    1
    36    33    28   ar
    37     9    11    1
@<TRIPOS>MOLECULE
*****
 33 37 0 0 0
SMALL
GASTEIGER

@<TRIPOS>ATOM
      1 C          -5.6797  -15.9478   24.8693 C.ar    1  UNL1        0.0436
      2 C          -5.1860  -15.6846   26.2610 C.ar    1  UNL1        0.0142
      3 C          -6.1499  -15.2698   27.3328 C.ar    1  UNL1        0.0010
      4 C          -7.6075  -15.1180   27.0129 C.ar    1  UNL1       -0.0032
      5 C          -8.1012  -15.3812   25.6212 C.ar    1  UNL1       -0.0091
      6 C          -7.1374  -15.7961   24.5494 C.ar    1  UNL1       -0.0101
      7 C          -7.6311  -16.0593   23.1576 C.3     1  UNL1        0.0444
      8 C          -9.0887  -15.9076   22.8376 C.3     1  UNL1        0.0749
      9 N         -10.0526  -15.4927   23.9095 N.3     1  UNL1       -0.2934
     10 C          -9.5588  -15.2295   25.3012 C.3     1  UNL1        0.0954
     11 H         -10.7511  -16.2327   23.9799 H       1  UNL1        0.1236
     12 N          -2.7881  -17.1925   21.6537 N.3     1  UNL1       -0.2711
     13 C          -3.5467  -18.2325   22.4237 C.3     1  UNL1        0.0938
     14 C          -4.5106  -17.8176   23.4955 C.3     1  UNL1        0.1081
     15 N          -4.7159  -16.3627   23.7974 N.pl3   1  UNL1       -0.3049
     16 C          -3.9572  -15.3227   23.0275 C.3     1  UNL1        0.1081
     17 C          -2.9934  -15.7375   21.9557 C.3     1  UNL1        0.0938
     18 C          -2.1007  -18.8289   19.7566 C.3     1  UNL1        0.0173
     19 C          -1.8243  -17.6073   20.5819 C.3     1  UNL1        0.0577
     20 C          -0.5839  -16.8006   20.3354 C.3     1  UNL1        0.0173
     21 C          -9.5824  -16.1708   21.4459 C.3     1  UNL1        0.0886
     22 N          -9.8546  -17.5769   21.0000 N.3     1  UNL1       -0.2667
     23 C         -10.7348  -17.8298   19.8120 C.3     1  UNL1        0.0899
     24 C          -9.2465  -18.7300   21.7420 C.3     1  UNL1        0.0978
     25 C          -9.9771  -19.3472   22.8976 C.3     1  UNL1        0.0224
     26 C          -9.3690  -20.5003   23.6396 C.3     1  UNL1        0.0065
     27 C          -8.0304  -21.0362   23.2261 C.3     1  UNL1        0.0277
     28 C          -7.2999  -20.4190   22.0706 C.ar    1  UNL1       -0.0073
     29 C          -5.9613  -20.9549   21.6570 C.ar    1  UNL1       -0.0015
     30 C          -5.2307  -20.3376   20.5014 C.ar    1  UNL1        0.0203
     31 C          -5.8388  -19.1845   19.7594 C.ar    1  UNL1        0.0985
     32 N          -7.1774  -18.6486   20.1729 N.ar    1  UNL1       -0.2471
     33 C          -7.9079  -19.2658   21.3285 C.ar    1  UNL1        0.0695
@<TRIPOS>BOND
     1    18    19    1
     2    19    20    1
     3    19    12    1
     4    12    13    1
     5    13    14    1
     6    14    15    1
     7    15     1    1
     8     1     2   ar
     9     2     3   ar
    10     3     4   ar
    11     4     5   ar
    12     5     6   ar
    13     6     7    1
    14     7     8    1
    15     8    21    1
    16    21    22    1
    17    22    23    1
    18    24    22    1
    19    24    25    1
    20    25    26    1
    21    26    27    1
    22    27    28    1
    23    28    29   ar
    24    29    30   ar
    25    30    31   ar
    26    31    32   ar
    27    32    33   ar
    28     8     9    1
    29     9    10    1
    30    15    16    1
    31    16    17    1
    32    17    12    1
    33     6     1   ar
    34    33    24    1
    35    10     5    1
    36    33    28   ar
    37     9    11    1
@<TRIPOS>MOLECULE
*****
 33 37 0 0 0
SMALL
GASTEIGER

@<TRIPOS>ATOM
      1 C          -5.4618  -16.1867   24.6479 C.ar    1  UNL1        0.0436
      2 C          -4.9121  -16.0472   26.0365 C.ar    1  UNL1        0.0142
      3 C          -5.8135  -15.6341   27.1620 C.ar    1  UNL1        0.0010
      4 C          -7.2647  -15.3604   26.8988 C.ar    1  UNL1       -0.0032
      5 C          -7.8144  -15.4999   25.5102 C.ar    1  UNL1       -0.0091
      6 C          -6.9130  -15.9131   24.3848 C.ar    1  UNL1       -0.0101
      7 C          -7.4627  -16.0526   22.9961 C.3     1  UNL1        0.0444
      8 C          -8.9138  -15.7789   22.7329 C.3     1  UNL1        0.0749
      9 N          -9.8153  -15.3658   23.8584 N.3     1  UNL1       -0.2934
     10 C          -9.2656  -15.2263   25.2471 C.3     1  UNL1        0.0954
     11 H         -10.5631  -16.0578   23.9059 H       1  UNL1        0.1236
     12 N          -2.7575  -17.4261   21.2713 N.3     1  UNL1       -0.2711
     13 C          -3.6868  -18.4257   21.8935 C.3     1  UNL1        0.0938
     14 C          -4.5882  -18.0126   23.0190 C.3     1  UNL1        0.1081
     15 N          -4.5603  -16.5998   23.5224 N.pl3   1  UNL1       -0.3049
     16 C          -3.6310  -15.6002   22.9002 C.3     1  UNL1        0.1081
     17 C          -2.7296  -16.0133   21.7747 C.3     1  UNL1        0.0938
     18 C          -2.4190  -18.5727   18.9648 C.3     1  UNL1        0.0173
     19 C          -1.8561  -17.8391   20.1459 C.3     1  UNL1        0.0577
     20 C          -0.3918  -17.5186   20.2014 C.3     1  UNL1        0.0173
     21 C          -9.4636  -15.9184   21.3443 C.3     1  UNL1        0.0886
     22 N          -9.7042  -17.2815   20.7663 N.3     1  UNL1       -0.2667
     23 C         -10.7203  -17.4661   19.6784 C.3     1  UNL1        0.0899
     24 C          -8.9289  -18.4599   21.2762 C.3     1  UNL1        0.0978
     25 C          -7.7080  -18.9291   20.5418 C.3     1  UNL1        0.0224
     26 C          -6.9326  -20.1076   21.0517 C.3     1  UNL1        0.0065
     27 C          -7.3781  -20.8169   22.2961 C.3     1  UNL1        0.0277
     28 C          -8.5989  -20.3477   23.0305 C.ar    1  UNL1       -0.0073
     29 C          -9.0444  -21.0570   24.2749 C.ar    1  UNL1       -0.0015
     30 C         -10.2653  -20.5879   25.0093 C.ar    1  UNL1        0.0203
     31 C         -11.0406  -19.4094   24.4994 C.ar    1  UNL1        0.0985
     32 N         -10.5952  -18.7001   23.2550 N.ar    1  UNL1       -0.2471
     33 C          -9.3743  -19.1692   22.5206 C.ar    1  UNL1        0.0695
@<TRIPOS>BOND
     1    18    19    1
     2    19    20    1
     3    19    12    1
     4    12    13    1
     5    13    14    1
     6    14    15    1
     7    15     1    1
     8     1     2   ar
     9     2     3   ar
    10     3     4   ar
    11     4     5   ar
    12     5     6   ar
    13     6     7    1
    14     7     8    1
    15     8    21    1
    16    21    22    1
    17    22    23    1
    18    24    22    1
    19    24    25    1
    20    25    26    1
    21    26    27    1
    22    27    28    1
    23    28    29   ar
    24    29    30   ar
    25    30    31   ar
    26    31    32   ar
    27    32    33   ar
    28     8     9    1
    29     9    10    1
    30    15    16    1
    31    16    17    1
    32    17    12    1
    33     6     1   ar
    34    33    24    1
    35    10     5    1
    36    33    28   ar
    37     9    11    1
@<TRIPOS>MOLECULE
*****
 33 37 0 0 0
SMALL
GASTEIGER

@<TRIPOS>ATOM
      1 C          -5.2014  -16.0239   24.4650 C.ar    1  UNL1        0.0436
      2 C          -4.6421  -15.6685   25.8106 C.ar    1  UNL1        0.0142
      3 C          -5.5528  -15.1714   26.8938 C.ar    1  UNL1        0.0010
      4 C          -7.0229  -15.0297   26.6314 C.ar    1  UNL1       -0.0032
      5 C          -7.5822  -15.3852   25.2858 C.ar    1  UNL1       -0.0091
      6 C          -6.6715  -15.8823   24.2026 C.ar    1  UNL1       -0.0101
      7 C          -7.2308  -16.2378   22.8569 C.3     1  UNL1        0.0444
      8 C          -8.7009  -16.0961   22.5945 C.3     1  UNL1        0.0749
      9 N          -9.6116  -15.5990   23.6778 N.3     1  UNL1       -0.2934
     10 C          -9.0523  -15.2436   25.0234 C.3     1  UNL1        0.0954
     11 H         -10.3101  -16.3262   23.8320 H       1  UNL1        0.1236
     12 N          -2.4692  -17.5152   21.2151 N.3     1  UNL1       -0.2711
     13 C          -3.4004  -18.4661   21.9071 C.3     1  UNL1        0.0938
     14 C          -4.3111  -17.9689   22.9904 C.3     1  UNL1        0.1081
     15 N          -4.2907  -16.5211   23.3817 N.pl3   1  UNL1       -0.3049
     16 C          -3.3595  -15.5702   22.6897 C.3     1  UNL1        0.1081
     17 C          -2.4488  -16.0673   21.6064 C.3     1  UNL1        0.0938
     18 C          -0.0814  -17.7684   20.2233 C.3     1  UNL1        0.0173
     19 C          -1.5585  -18.0123   20.1318 C.3     1  UNL1        0.0577
     20 C          -2.1250  -18.7532   18.9570 C.3     1  UNL1        0.0173
     21 C          -9.2602  -16.4516   21.2489 C.3     1  UNL1        0.0886
     22 N          -9.9563  -17.7652   21.0492 N.3     1  UNL1       -0.2667
     23 C         -10.3793  -18.1884   19.6736 C.3     1  UNL1        0.0899
     24 C         -10.2294  -18.6557   22.2250 C.3     1  UNL1        0.0978
     25 C          -9.2643  -19.7482   22.5786 C.3     1  UNL1        0.0224
     26 C          -9.5374  -20.6386   23.7544 C.3     1  UNL1        0.0065
     27 C         -10.7756  -20.4366   24.5766 C.3     1  UNL1        0.0277
     28 C         -11.7407  -19.3441   24.2230 C.ar    1  UNL1       -0.0073
     29 C         -12.9789  -19.1421   25.0452 C.ar    1  UNL1       -0.0015
     30 C         -13.9440  -18.0495   24.6916 C.ar    1  UNL1        0.0203
     31 C         -13.6709  -17.1591   23.5159 C.ar    1  UNL1        0.0985
     32 N         -12.4327  -17.3611   22.6936 N.ar    1  UNL1       -0.2471
     33 C         -11.4676  -18.4536   23.0472 C.ar    1  UNL1        0.0695
@<TRIPOS>BOND
     1    18    19    1
     2    19    20    1
     3    19    12    1
     4    12    13    1
     5    13    14    1
     6    14    15    1
     7    15     1    1
     8     1     2   ar
     9     2     3   ar
    10     3     4   ar
    11     4     5   ar
    12     5     6   ar
    13     6     7    1
    14     7     8    1
    15     8    21    1
    16    21    22    1
    17    22    23    1
    18    24    22    1
    19    24    25    1
    20    25    26    1
    21    26    27    1
    22    27    28    1
    23    28    29   ar
    24    29    30   ar
    25    30    31   ar
    26    31    32   ar
    27    32    33   ar
    28     8     9    1
    29     9    10    1
    30    15    16    1
    31    16    17    1
    32    17    12    1
    33     6     1   ar
    34    33    24    1
    35    10     5    1
    36    33    28   ar
    37     9    11    1
@<TRIPOS>MOLECULE
*****
 33 37 0 0 0
SMALL
GASTEIGER

@<TRIPOS>ATOM
      1 C           3.4291   -1.5638   20.2675 C.ar    1  UNL1        0.0436
      2 C           3.7730   -2.2537   18.9808 C.ar    1  UNL1        0.0142
      3 C           4.6843   -3.4450   18.9889 C.ar    1  UNL1        0.0010
      4 C           5.2517   -3.9465   20.2838 C.ar    1  UNL1       -0.0032
      5 C           4.9078   -3.2566   21.5705 C.ar    1  UNL1       -0.0091
      6 C           3.9965   -2.0652   21.5624 C.ar    1  UNL1       -0.0101
      7 C           3.6525   -1.3753   22.8492 C.3     1  UNL1        0.0444
      8 C           4.2199   -1.8768   24.1440 C.3     1  UNL1        0.0749
      9 N           5.1312   -3.0682   24.1520 N.3     1  UNL1       -0.2934
     10 C           5.4751   -3.7581   22.8653 C.3     1  UNL1        0.0954
     11 H           4.6963   -3.7675   24.7540 H       1  UNL1        0.1236
     12 N           0.6952    2.0106   20.2434 N.3     1  UNL1       -0.2711
     13 C           0.1209    0.6277   20.3329 C.3     1  UNL1        0.0938
     14 C           1.0323   -0.5637   20.3410 C.3     1  UNL1        0.1081
     15 N           2.5178   -0.3723   20.2595 N.pl3   1  UNL1       -0.3049
     16 C           3.0920    1.0105   20.1699 C.3     1  UNL1        0.1081
     17 C           2.1807    2.2019   20.1618 C.3     1  UNL1        0.0938
     18 C          -1.5760    3.1103   20.8616 C.3     1  UNL1        0.0173
     19 C          -0.2161    3.2020   20.2353 C.3     1  UNL1        0.0577
     20 C           0.2326    4.4851   19.6010 C.3     1  UNL1        0.0173
     21 C           3.8759   -1.1869   25.4307 C.3     1  UNL1        0.0886
     22 N           3.6586    0.2971   25.4513 N.3     1  UNL1       -0.2667
     23 C           4.8321    1.2257   25.5555 C.3     1  UNL1        0.0899
     24 C           2.2678    0.8527   25.3675 C.3     1  UNL1        0.0978
     25 C           1.7577    1.4052   24.0696 C.3     1  UNL1        0.0224
     26 C           0.3669    1.9607   23.9858 C.3     1  UNL1        0.0065
     27 C          -0.5138    1.9638   25.2000 C.3     1  UNL1        0.0277
     28 C          -0.0038    1.4113   26.4979 C.ar    1  UNL1       -0.0073
     29 C          -0.8846    1.4143   27.7121 C.ar    1  UNL1       -0.0015
     30 C          -0.3746    0.8618   29.0100 C.ar    1  UNL1        0.0203
     31 C           1.0162    0.3063   29.0938 C.ar    1  UNL1        0.0985
     32 N           1.8970    0.3032   27.8796 N.ar    1  UNL1       -0.2471
     33 C           1.3870    0.8557   26.5817 C.ar    1  UNL1        0.0695
@<TRIPOS>BOND
     1    18    19    1
     2    19    20    1
     3    19    12    1
     4    12    13    1
     5    13    14    1
     6    14    15    1
     7    15     1    1
     8     1     2   ar
     9     2     3   ar
    10     3     4   ar
    11     4     5   ar
    12     5     6   ar
    13     6     7    1
    14     7     8    1
    15     8    21    1
    16    21    22    1
    17    22    23    1
    18    24    22    1
    19    24    25    1
    20    25    26    1
    21    26    27    1
    22    27    28    1
    23    28    29   ar
    24    29    30   ar
    25    30    31   ar
    26    31    32   ar
    27    32    33   ar
    28     8     9    1
    29     9    10    1
    30    15    16    1
    31    16    17    1
    32    17    12    1
    33     6     1   ar
    34    33    24    1
    35    10     5    1
    36    33    28   ar
    37     9    11    1
@<TRIPOS>MOLECULE
*****
 33 37 0 0 0
SMALL
GASTEIGER

@<TRIPOS>ATOM
      1 C         -10.6452  -16.6433   22.5647 C.ar    1  UNL1        0.0436
      2 C         -11.9708  -15.9594   22.7230 C.ar    1  UNL1        0.0142
      3 C         -13.0755  -16.2295   21.7450 C.ar    1  UNL1        0.0010
      4 C         -12.8547  -17.1836   20.6088 C.ar    1  UNL1       -0.0032
      5 C         -11.5291  -17.8675   20.4505 C.ar    1  UNL1       -0.0091
      6 C         -10.4244  -17.5973   21.4285 C.ar    1  UNL1       -0.0101
      7 C          -9.0987  -18.2812   21.2703 C.3     1  UNL1        0.0444
      8 C          -8.8779  -19.2353   20.1340 C.3     1  UNL1        0.0749
      9 N          -9.9828  -19.5054   19.1560 N.3     1  UNL1       -0.2934
     10 C         -11.3083  -18.8215   19.3143 C.3     1  UNL1        0.0954
     11 H         -10.1637  -20.5088   19.1859 H       1  UNL1        0.1236
     12 N          -7.3307  -15.8329   25.4987 N.3     1  UNL1       -0.2711
     13 C          -7.3564  -15.1185   24.1801 C.3     1  UNL1        0.0938
     14 C          -8.4612  -15.3886   23.2021 C.3     1  UNL1        0.1081
     15 N          -9.5403  -16.3731   23.5428 N.pl3   1  UNL1       -0.3049
     16 C          -9.5147  -17.0876   24.8614 C.3     1  UNL1        0.1081
     17 C          -8.4099  -16.8175   25.8394 C.3     1  UNL1        0.0938
     18 C          -5.0439  -14.7370   26.0636 C.3     1  UNL1        0.0173
     19 C          -6.2260  -15.5629   26.4767 C.3     1  UNL1        0.0577
     20 C          -6.3032  -16.1187   27.8678 C.3     1  UNL1        0.0173
     21 C          -7.5523  -19.9192   19.9758 C.3     1  UNL1        0.0886
     22 N          -6.6399  -20.0689   21.1569 N.3     1  UNL1       -0.2667
     23 C          -7.2081  -20.3885   22.5078 C.3     1  UNL1        0.0899
     24 C          -5.1593  -19.8989   20.9870 C.3     1  UNL1        0.0978
     25 C          -4.4034  -20.7974   20.0535 C.3     1  UNL1        0.0224
     26 C          -2.9228  -20.6275   19.8836 C.3     1  UNL1        0.0065
     27 C          -2.1980  -19.5591   20.6473 C.3     1  UNL1        0.0277
     28 C          -2.9537  -18.6607   21.5809 C.ar    1  UNL1       -0.0073
     29 C          -2.2289  -17.5923   22.3446 C.ar    1  UNL1       -0.0015
     30 C          -2.9848  -16.6939   23.2781 C.ar    1  UNL1        0.0203
     31 C          -4.4654  -16.8638   23.4480 C.ar    1  UNL1        0.0985
     32 N          -5.1902  -17.9321   22.6843 N.ar    1  UNL1       -0.2471
     33 C          -4.4344  -18.8306   21.7507 C.ar    1  UNL1        0.0695
@<TRIPOS>BOND
     1    18    19    1
     2    19    20    1
     3    19    12    1
     4    12    13    1
     5    13    14    1
     6    14    15    1
     7    15     1    1
     8     1     2   ar
     9     2     3   ar
    10     3     4   ar
    11     4     5   ar
    12     5     6   ar
    13     6     7    1
    14     7     8    1
    15     8    21    1
    16    21    22    1
    17    22    23    1
    18    24    22    1
    19    24    25    1
    20    25    26    1
    21    26    27    1
    22    27    28    1
    23    28    29   ar
    24    29    30   ar
    25    30    31   ar
    26    31    32   ar
    27    32    33   ar
    28     8     9    1
    29     9    10    1
    30    15    16    1
    31    16    17    1
    32    17    12    1
    33     6     1   ar
    34    33    24    1
    35    10     5    1
    36    33    28   ar
    37     9    11    1
@<TRIPOS>MOLECULE
*****
 33 37 0 0 0
SMALL
GASTEIGER

@<TRIPOS>ATOM
      1 C          -9.9071  -17.5510   21.8735 C.ar    1  UNL1        0.0436
      2 C         -11.2557  -17.1011   21.3950 C.ar    1  UNL1        0.0142
      3 C         -11.8102  -17.6328   20.1067 C.ar    1  UNL1        0.0010
      4 C         -11.0161  -18.6143   19.2968 C.ar    1  UNL1       -0.0032
      5 C          -9.6675  -19.0642   19.7752 C.ar    1  UNL1       -0.0091
      6 C          -9.1130  -18.5326   21.0635 C.ar    1  UNL1       -0.0101
      7 C          -7.7644  -18.9825   21.5420 C.3     1  UNL1        0.0444
      8 C          -6.9703  -19.9640   20.7321 C.3     1  UNL1        0.0749
      9 N          -7.5248  -20.4956   19.4436 N.3     1  UNL1       -0.2934
     10 C          -8.8734  -20.0457   18.9652 C.3     1  UNL1        0.0954
     11 H          -7.5695  -21.5102   19.5387 H       1  UNL1        0.1236
     12 N          -8.2436  -15.9562   25.7386 N.3     1  UNL1       -0.2711
     13 C          -9.1702  -17.1357   25.7510 C.3     1  UNL1        0.0938
     14 C          -9.7247  -17.6673   24.4625 C.3     1  UNL1        0.1081
     15 N          -9.3526  -17.0194   23.1619 N.pl3   1  UNL1       -0.3049
     16 C          -8.4260  -15.8399   23.1495 C.3     1  UNL1        0.1081
     17 C          -7.8715  -15.3083   24.4379 C.3     1  UNL1        0.0938
     18 C          -6.2342  -15.6008   27.3466 C.3     1  UNL1        0.0173
     19 C          -7.6890  -15.4245   27.0269 C.3     1  UNL1        0.0577
     20 C          -8.5894  -14.7166   27.9956 C.3     1  UNL1        0.0173
     21 C          -5.6218  -20.4139   21.2105 C.3     1  UNL1        0.0886
     22 N          -4.4630  -20.4533   20.2587 N.3     1  UNL1       -0.2667
     23 C          -4.2478  -21.6559   19.3884 C.3     1  UNL1        0.0899
     24 C          -3.5195  -19.2900   20.1773 C.3     1  UNL1        0.0978
     25 C          -2.5674  -19.1759   19.0237 C.3     1  UNL1        0.0224
     26 C          -1.6240  -18.0127   18.9423 C.3     1  UNL1        0.0065
     27 C          -1.6325  -16.9635   20.0143 C.3     1  UNL1        0.0277
     28 C          -2.5845  -17.0776   21.1678 C.ar    1  UNL1       -0.0073
     29 C          -2.5931  -16.0285   22.2398 C.ar    1  UNL1       -0.0015
     30 C          -3.5452  -16.1426   23.3933 C.ar    1  UNL1        0.0203
     31 C          -4.4887  -17.3058   23.4748 C.ar    1  UNL1        0.0985
     32 N          -4.4801  -18.3550   22.4028 N.ar    1  UNL1       -0.2471
     33 C          -3.5281  -18.2409   21.2493 C.ar    1  UNL1        0.0695
@<TRIPOS>BOND
     1    18    19    1
     2    19    20    1
     3    19    12    1
     4    12    13    1
     5    13    14    1
     6    14    15    1
     7    15     1    1
     8     1     2   ar
     9     2     3   ar
    10     3     4   ar
    11     4     5   ar
    12     5     6   ar
    13     6     7    1
    14     7     8    1
    15     8    21    1
    16    21    22    1
    17    22    23    1
    18    24    22    1
    19    24    25    1
    20    25    26    1
    21    26    27    1
    22    27    28    1
    23    28    29   ar
    24    29    30   ar
    25    30    31   ar
    26    31    32   ar
    27    32    33   ar
    28     8     9    1
    29     9    10    1
    30    15    16    1
    31    16    17    1
    32    17    12    1
    33     6     1   ar
    34    33    24    1
    35    10     5    1
    36    33    28   ar
    37     9    11    1
