@<TRIPOS>MOLECULE
*****
 37 42 0 0 0
SMALL
GASTEIGER

@<TRIPOS>ATOM
      1 C          -4.5189  -16.8596   23.2509 C.ar    1  UNL1        0.2392
      2 N          -5.0180  -18.1671   22.7113 N.ar    1  UNL1       -0.1958
      3 C          -4.2873  -18.8434   21.5893 C.ar    1  UNL1        0.1539
      4 C          -3.0575  -18.2122   21.0071 C.ar    1  UNL1        0.1146
      5 C          -2.1353  -18.6410   19.9045 C.ar    1  UNL1        0.0236
      6 C          -1.0662  -17.5985   19.7628 C.ar    1  UNL1        0.0223
      7 C          -1.3276  -16.5254   20.7777 C.ar    1  UNL1        0.1006
      8 N          -2.5584  -16.9047   21.5467 N.ar    1  UNL1       -0.2229
      9 N          -3.2890  -16.2284   22.6686 N.ar    1  UNL1       -0.1294
     10 C          -6.7565  -16.9856   23.3172 C.3     1  UNL1        0.0293
     11 C          -6.7360  -16.1653   24.5728 C.3     1  UNL1        0.1293
     12 C          -7.0271  -15.3770   25.8154 C.3     1  UNL1        0.0289
     13 C          -5.7204  -14.9078   26.3834 C.3     1  UNL1        0.0237
     14 C          -4.6219  -15.4060   25.4919 C.3     1  UNL1        0.0941
     15 N          -5.2495  -16.1832   24.3729 N.pl3   1  UNL1       -0.2722
     16 C          -8.2268  -16.3188   24.5103 C.2     1  UNL1        0.2422
     17 O          -9.1147  -15.2668   25.1058 O.2     1  UNL1       -0.2731
     18 N          -8.8296  -17.5244   23.8522 N.am    1  UNL1       -0.2814
     19 H          -8.2468  -18.2149   23.4613 H       1  UNL1        0.1549
     20 C         -10.3204  -17.6779   23.7896 C.ar    1  UNL1        0.0699
     21 C         -11.1329  -16.7629   22.9220 C.ar    1  UNL1        0.0202
     22 C         -12.6237  -16.9165   22.8594 C.ar    1  UNL1        0.0510
     23 C         -13.3021  -17.9850   23.6645 C.ar    1  UNL1        0.2224
     24 F         -14.7929  -18.1385   23.6020 F       1  UNL1       -0.1832
     25 N         -12.4896  -18.9000   24.5322 N.ar    1  UNL1       -0.2151
     26 C         -10.9988  -18.7464   24.5947 C.ar    1  UNL1        0.1159
     27 N          -4.7866  -20.1510   21.0498 N.pl3   1  UNL1       -0.2825
     28 H          -4.2147  -20.9513   21.0915 H       1  UNL1        0.1550
     29 C          -6.1571  -20.2392   20.4466 C.ar    1  UNL1        0.1277
     30 C          -7.3478  -19.4157   20.8390 C.ar    1  UNL1        0.0502
     31 C          -8.5041  -19.8340   19.9800 C.ar    1  UNL1        0.0807
     32 N          -8.0281  -20.9161   19.0567 N.ar    1  UNL1       -0.1760
     33 N          -6.5775  -21.1665   19.3451 N.ar    1  UNL1       -0.2631
     34 H          -6.0024  -21.8240   18.8911 H       1  UNL1        0.1903
     35 C          -9.8928  -19.2694   20.0347 C.3     1  UNL1        0.0421
     36 C         -11.3218  -19.3759   20.4779 C.3     1  UNL1        0.0064
     37 C         -10.8689  -18.1850   19.6862 C.3     1  UNL1        0.0064
@<TRIPOS>BOND
     1    11    10    1
     2    11    16    1
     3    16    17    2
     4    16    18   am
     5    18    20    1
     6    20    21   ar
     7    21    22   ar
     8    22    23   ar
     9    23    24    1
    10    23    25   ar
    11    25    26   ar
    12    11    12    1
    13    12    13    1
    14    13    14    1
    15    14    15    1
    16    15     1    1
    17     1     2   ar
    18     2     3   ar
    19     3    27    1
    20    27    29    1
    21    29    30   ar
    22    30    31   ar
    23    31    35    1
    24    35    36    1
    25    36    37    1
    26    31    32   ar
    27    32    33   ar
    28     3     4   ar
    29     4     5   ar
    30     5     6   ar
    31     6     7   ar
    32     7     8   ar
    33     8     9   ar
    34    15    11    1
    35     9     1   ar
    36    26    20   ar
    37    33    29   ar
    38     8     4   ar
    39    37    35    1
    40    18    19    1
    41    27    28    1
    42    33    34    1
@<TRIPOS>MOLECULE
*****
 37 42 0 0 0
SMALL
GASTEIGER

@<TRIPOS>ATOM
      1 C          -4.7679  -19.0160   20.4915 C.ar    1  UNL1        0.2392
      2 N          -4.7298  -18.1589   21.7218 N.ar    1  UNL1       -0.1958
      3 C          -3.4992  -17.3642   22.0445 C.ar    1  UNL1        0.1539
      4 C          -2.3067  -17.4266   21.1367 C.ar    1  UNL1        0.1146
      5 C          -0.9645  -16.7597   21.1957 C.ar    1  UNL1        0.0236
      6 C          -0.1730  -17.2047   20.0017 C.ar    1  UNL1        0.0223
      7 C          -1.0261  -18.1466   19.2049 C.ar    1  UNL1        0.1006
      8 N          -2.3448  -18.2838   19.9064 N.ar    1  UNL1       -0.2229
      9 N          -3.5754  -19.0785   19.5837 N.ar    1  UNL1       -0.1294
     10 C          -6.7480  -18.3106   21.2719 C.3     1  UNL1        0.0293
     11 C          -7.3966  -19.4873   20.6054 C.3     1  UNL1        0.1293
     12 C          -8.3092  -20.5452   20.0592 C.3     1  UNL1        0.0289
     13 C          -7.4750  -21.5224   19.2850 C.3     1  UNL1        0.0237
     14 C          -6.0470  -21.0685   19.3527 C.3     1  UNL1        0.0941
     15 N          -5.9985  -19.8108   20.1688 N.pl3   1  UNL1       -0.2722
     16 C          -8.6591  -18.9179   21.1814 C.2     1  UNL1        0.2422
     17 O          -9.0390  -17.4953   20.8956 O.2     1  UNL1       -0.2731
     18 N          -9.5418  -19.7712   22.0432 N.am    1  UNL1       -0.2814
     19 H          -9.2925  -20.7050   22.2308 H       1  UNL1        0.1549
     20 C         -10.8044  -19.2018   22.6192 C.ar    1  UNL1        0.0699
     21 C         -11.8293  -18.5837   21.7149 C.ar    1  UNL1        0.0202
     22 C         -13.0918  -18.0143   22.2909 C.ar    1  UNL1        0.0510
     23 C         -13.3295  -18.0629   23.7712 C.ar    1  UNL1        0.2224
     24 F         -14.5920  -17.4935   24.3472 F       1  UNL1       -0.1832
     25 N         -12.3045  -18.6809   24.6755 N.ar    1  UNL1       -0.2151
     26 C         -11.0420  -19.2503   24.0995 C.ar    1  UNL1        0.1159
     27 N          -3.4612  -16.5070   23.2749 N.pl3   1  UNL1       -0.2825
     28 H          -2.5994  -16.2961   23.7015 H       1  UNL1        0.1550
     29 C          -4.7363  -15.9712   23.8554 C.ar    1  UNL1        0.1277
     30 C          -5.3137  -16.3265   25.1934 C.ar    1  UNL1        0.0502
     31 C          -6.5921  -15.5609   25.3647 C.ar    1  UNL1        0.0807
     32 N          -6.8050  -14.7325   24.1325 N.ar    1  UNL1       -0.1760
     33 N          -5.6580  -14.9861   23.1997 N.ar    1  UNL1       -0.2631
     34 H          -5.5322  -14.5776   22.3128 H       1  UNL1        0.1903
     35 C          -7.4988  -15.6144   26.5586 C.3     1  UNL1        0.0421
     36 C          -8.2104  -14.9195   27.6813 C.3     1  UNL1        0.0064
     37 C          -8.3573  -16.4017   27.5036 C.3     1  UNL1        0.0064
@<TRIPOS>BOND
     1    11    10    1
     2    11    16    1
     3    16    17    2
     4    16    18   am
     5    18    20    1
     6    20    21   ar
     7    21    22   ar
     8    22    23   ar
     9    23    24    1
    10    23    25   ar
    11    25    26   ar
    12    11    12    1
    13    12    13    1
    14    13    14    1
    15    14    15    1
    16    15     1    1
    17     1     2   ar
    18     2     3   ar
    19     3    27    1
    20    27    29    1
    21    29    30   ar
    22    30    31   ar
    23    31    35    1
    24    35    36    1
    25    36    37    1
    26    31    32   ar
    27    32    33   ar
    28     3     4   ar
    29     4     5   ar
    30     5     6   ar
    31     6     7   ar
    32     7     8   ar
    33     8     9   ar
    34    15    11    1
    35     9     1   ar
    36    26    20   ar
    37    33    29   ar
    38     8     4   ar
    39    37    35    1
    40    18    19    1
    41    27    28    1
    42    33    34    1
@<TRIPOS>MOLECULE
*****
 37 42 0 0 0
SMALL
GASTEIGER

@<TRIPOS>ATOM
      1 C          -9.5191  -18.9984   20.4010 C.ar    1  UNL1        0.2392
      2 N          -8.9042  -17.6724   20.7374 N.ar    1  UNL1       -0.1958
      3 C          -9.6928  -16.6530   21.5051 C.ar    1  UNL1        0.1539
      4 C         -11.0963  -16.9599   21.9362 C.ar    1  UNL1        0.1146
      5 C         -12.1099  -16.1589   22.6984 C.ar    1  UNL1        0.0236
      6 C         -13.3513  -16.9900   22.8330 C.ar    1  UNL1        0.0223
      7 C         -13.1050  -18.3046   22.1539 C.ar    1  UNL1        0.1006
      8 N         -11.7113  -18.2860   21.5997 N.ar    1  UNL1       -0.2229
      9 N         -10.9227  -19.3053   20.8321 N.ar    1  UNL1       -0.1294
     10 C          -7.2817  -18.9678   20.5430 C.3     1  UNL1        0.0293
     11 C          -7.2360  -20.1432   19.6123 C.3     1  UNL1        0.1293
     12 C          -6.8800  -21.2936   18.7179 C.3     1  UNL1        0.0289
     13 C          -8.1545  -21.8791   18.1861 C.3     1  UNL1        0.0237
     14 C          -9.2983  -21.0905   18.7519 C.3     1  UNL1        0.0941
     15 N          -8.7306  -20.0178   19.6333 N.pl3   1  UNL1       -0.2722
     16 C          -5.7509  -20.0230   19.7859 C.2     1  UNL1        0.2422
     17 O          -4.9231  -21.2490   20.0337 O.2     1  UNL1       -0.2731
     18 N          -5.0938  -18.6767   19.7117 N.am    1  UNL1       -0.2814
     19 H          -5.6371  -17.8720   19.5491 H       1  UNL1        0.1549
     20 C          -3.6087  -18.5564   19.8853 C.ar    1  UNL1        0.0699
     21 C          -2.7760  -17.9279   18.8074 C.ar    1  UNL1        0.0202
     22 C          -1.2910  -17.8076   18.9810 C.ar    1  UNL1        0.0510
     23 C          -0.6385  -18.3159   20.2324 C.ar    1  UNL1        0.2224
     24 F           0.8465  -18.1957   20.4060 F       1  UNL1       -0.1832
     25 N          -1.4712  -18.9445   21.3103 N.ar    1  UNL1       -0.2151
     26 C          -2.9563  -19.0647   21.1367 C.ar    1  UNL1        0.1159
     27 N          -9.0777  -15.3269   21.8416 N.pl3   1  UNL1       -0.2825
     28 H          -9.3334  -14.5228   21.3343 H       1  UNL1        0.1550
     29 C          -8.0731  -15.2260   22.9509 C.ar    1  UNL1        0.1277
     30 C          -8.3335  -15.4950   24.4034 C.ar    1  UNL1        0.0502
     31 C          -7.0531  -15.2735   25.1526 C.ar    1  UNL1        0.0807
     32 N          -6.0013  -14.8676   24.1632 N.ar    1  UNL1       -0.1760
     33 N          -6.6318  -14.8382   22.8024 N.ar    1  UNL1       -0.2631
     34 H          -6.1790  -14.6053   21.9598 H       1  UNL1        0.1903
     35 C          -6.8584  -15.4304   26.6317 C.3     1  UNL1        0.0421
     36 C          -6.8653  -14.8439   28.0122 C.3     1  UNL1        0.0064
     37 C          -6.5146  -16.2887   27.8129 C.3     1  UNL1        0.0064
@<TRIPOS>BOND
     1    11    10    1
     2    11    16    1
     3    16    17    2
     4    16    18   am
     5    18    20    1
     6    20    21   ar
     7    21    22   ar
     8    22    23   ar
     9    23    24    1
    10    23    25   ar
    11    25    26   ar
    12    11    12    1
    13    12    13    1
    14    13    14    1
    15    14    15    1
    16    15     1    1
    17     1     2   ar
    18     2     3   ar
    19     3    27    1
    20    27    29    1
    21    29    30   ar
    22    30    31   ar
    23    31    35    1
    24    35    36    1
    25    36    37    1
    26    31    32   ar
    27    32    33   ar
    28     3     4   ar
    29     4     5   ar
    30     5     6   ar
    31     6     7   ar
    32     7     8   ar
    33     8     9   ar
    34    15    11    1
    35     9     1   ar
    36    26    20   ar
    37    33    29   ar
    38     8     4   ar
    39    37    35    1
    40    18    19    1
    41    27    28    1
    42    33    34    1
@<TRIPOS>MOLECULE
*****
 37 42 0 0 0
SMALL
GASTEIGER

@<TRIPOS>ATOM
      1 C          -0.6872    3.8906   20.4020 C.ar    1  UNL1        0.2392
      2 N          -0.6138    3.9765   21.8977 N.ar    1  UNL1       -0.1958
      3 C          -1.8745    4.0124   22.7097 C.ar    1  UNL1        0.1539
      4 C          -3.2086    3.9623   22.0259 C.ar    1  UNL1        0.1146
      5 C          -4.6108    3.9811   22.5585 C.ar    1  UNL1        0.0236
      6 C          -5.5507    3.9068   21.3919 C.ar    1  UNL1        0.0223
      7 C          -4.7295    3.8421   20.1383 C.ar    1  UNL1        0.1006
      8 N          -3.2820    3.8764   20.5301 N.ar    1  UNL1       -0.2229
      9 N          -2.0213    3.8406   19.7182 N.ar    1  UNL1       -0.1294
     10 C           0.1987    1.9021   19.8650 C.3     1  UNL1        0.0293
     11 C           1.2997    2.6207   19.1431 C.3     1  UNL1        0.1293
     12 C           2.5044    3.0501   18.3592 C.3     1  UNL1        0.0289
     13 C           2.5228    4.5495   18.3218 C.3     1  UNL1        0.0237
     14 C           1.3295    5.0468   19.0824 C.3     1  UNL1        0.0941
     15 N           0.5736    3.8548   19.5900 N.pl3   1  UNL1       -0.2722
     16 C           1.7956    1.2364   18.8470 C.2     1  UNL1        0.2422
     17 O           1.0044    0.3324   17.9489 O.2     1  UNL1       -0.2731
     18 N           3.0828    0.7561   19.4492 N.am    1  UNL1       -0.2814
     19 H           3.6021    1.3495   20.0386 H       1  UNL1        0.1549
     20 C           3.5787   -0.6282   19.1531 C.ar    1  UNL1        0.0699
     21 C           3.0621   -1.7947   19.9422 C.ar    1  UNL1        0.0202
     22 C           3.5581   -3.1791   19.6461 C.ar    1  UNL1        0.0510
     23 C           4.5706   -3.3970   18.5611 C.ar    1  UNL1        0.2224
     24 F           5.0665   -4.7813   18.2650 F       1  UNL1       -0.1832
     25 N           5.0871   -2.2305   17.7720 N.ar    1  UNL1       -0.2151
     26 C           4.5912   -0.8461   18.0680 C.ar    1  UNL1        0.1159
     27 N          -1.8011    4.0982   24.2055 N.pl3   1  UNL1       -0.2825
     28 H          -2.2090    4.8612   24.6753 H       1  UNL1        0.1550
     29 C          -1.1062    3.0217   24.9853 C.ar    1  UNL1        0.1277
     30 C          -1.5472    2.4657   26.3068 C.ar    1  UNL1        0.0502
     31 C          -0.5618    1.4125   26.7187 C.ar    1  UNL1        0.0807
     32 N           0.4882    1.3175   25.6518 N.ar    1  UNL1       -0.1760
     33 N           0.1518    2.3121   24.5804 N.ar    1  UNL1       -0.2631
     34 H           0.6663    2.4711   23.7563 H       1  UNL1        0.1903
     35 C          -0.6168    0.5973   27.9767 C.3     1  UNL1        0.0421
     36 C          -1.3850   -0.2674   28.9316 C.3     1  UNL1        0.0064
     37 C           0.0561    0.0502   29.2006 C.3     1  UNL1        0.0064
@<TRIPOS>BOND
     1    11    10    1
     2    11    16    1
     3    16    17    2
     4    16    18   am
     5    18    20    1
     6    20    21   ar
     7    21    22   ar
     8    22    23   ar
     9    23    24    1
    10    23    25   ar
    11    25    26   ar
    12    11    12    1
    13    12    13    1
    14    13    14    1
    15    14    15    1
    16    15     1    1
    17     1     2   ar
    18     2     3   ar
    19     3    27    1
    20    27    29    1
    21    29    30   ar
    22    30    31   ar
    23    31    35    1
    24    35    36    1
    25    36    37    1
    26    31    32   ar
    27    32    33   ar
    28     3     4   ar
    29     4     5   ar
    30     5     6   ar
    31     6     7   ar
    32     7     8   ar
    33     8     9   ar
    34    15    11    1
    35     9     1   ar
    36    26    20   ar
    37    33    29   ar
    38     8     4   ar
    39    37    35    1
    40    18    19    1
    41    27    28    1
    42    33    34    1
@<TRIPOS>MOLECULE
*****
 37 42 0 0 0
SMALL
GASTEIGER

@<TRIPOS>ATOM
      1 C           7.2388   -1.4379   32.6287 C.ar    1  UNL1        0.2392
      2 N           6.3484   -0.9182   31.5394 N.ar    1  UNL1       -0.1958
      3 C           6.0870   -1.7541   30.3215 C.ar    1  UNL1        0.1539
      4 C           6.7161   -3.1097   30.1932 C.ar    1  UNL1        0.1146
      5 C           6.6428   -4.1524   29.1174 C.ar    1  UNL1        0.0236
      6 C           7.4881   -5.3166   29.5420 C.ar    1  UNL1        0.0223
      7 C           8.0838   -4.9933   30.8802 C.ar    1  UNL1        0.1006
      8 N           7.6066   -3.6294   31.2827 N.ar    1  UNL1       -0.2229
      9 N           7.8680   -2.7935   32.5004 N.ar    1  UNL1       -0.1294
     10 C           5.5216   -0.9153   33.9724 C.3     1  UNL1        0.0293
     11 C           6.4759   -0.1606   34.8495 C.3     1  UNL1        0.1293
     12 C           7.1746    0.6534   35.8980 C.3     1  UNL1        0.0289
     13 C           8.6307    0.7151   35.5430 C.3     1  UNL1        0.0237
     14 C           8.8320   -0.0607   34.2752 C.3     1  UNL1        0.0941
     15 N           7.5003   -0.6020   33.8466 N.pl3   1  UNL1       -0.2722
     16 C           5.2521    0.1230   35.6691 C.2     1  UNL1        0.2422
     17 O           4.2458   -0.9619   35.9144 O.2     1  UNL1       -0.2731
     18 N           5.0346    1.4915   36.2434 N.am    1  UNL1       -0.2814
     19 H           5.6951    2.2036   36.0824 H       1  UNL1        0.1549
     20 C           3.8108    1.7751   37.0630 C.ar    1  UNL1        0.0699
     21 C           3.5804    1.0356   38.3476 C.ar    1  UNL1        0.0202
     22 C           2.3566    1.3192   39.1672 C.ar    1  UNL1        0.0510
     23 C           1.3630    2.3423   38.7022 C.ar    1  UNL1        0.2224
     24 F           0.1392    2.6259   39.5218 F       1  UNL1       -0.1832
     25 N           1.5934    3.0818   37.4176 N.ar    1  UNL1       -0.2151
     26 C           2.8172    2.7982   36.5980 C.ar    1  UNL1        0.1159
     27 N           5.1964   -1.2343   29.2321 N.pl3   1  UNL1       -0.2825
     28 H           5.5199   -1.2076   28.3026 H       1  UNL1        0.1550
     29 C           3.8131   -0.7552   29.5588 C.ar    1  UNL1        0.1277
     30 C           2.6400   -0.7443   28.6241 C.ar    1  UNL1        0.0502
     31 C           1.4619   -0.1852   29.3653 C.ar    1  UNL1        0.0807
     32 N           1.9068    0.1495   30.7581 N.ar    1  UNL1       -0.1760
     33 N           3.3600   -0.2028   30.8777 N.ar    1  UNL1       -0.2631
     34 H           3.9183   -0.0910   31.6809 H       1  UNL1        0.1903
     35 C           0.0811    0.0057   28.8110 C.3     1  UNL1        0.0421
     36 C          -0.8658    0.7371   27.9065 C.3     1  UNL1        0.0064
     37 C          -1.3633   -0.3950   28.7556 C.3     1  UNL1        0.0064
@<TRIPOS>BOND
     1    11    10    1
     2    11    16    1
     3    16    17    2
     4    16    18   am
     5    18    20    1
     6    20    21   ar
     7    21    22   ar
     8    22    23   ar
     9    23    24    1
    10    23    25   ar
    11    25    26   ar
    12    11    12    1
    13    12    13    1
    14    13    14    1
    15    14    15    1
    16    15     1    1
    17     1     2   ar
    18     2     3   ar
    19     3    27    1
    20    27    29    1
    21    29    30   ar
    22    30    31   ar
    23    31    35    1
    24    35    36    1
    25    36    37    1
    26    31    32   ar
    27    32    33   ar
    28     3     4   ar
    29     4     5   ar
    30     5     6   ar
    31     6     7   ar
    32     7     8   ar
    33     8     9   ar
    34    15    11    1
    35     9     1   ar
    36    26    20   ar
    37    33    29   ar
    38     8     4   ar
    39    37    35    1
    40    18    19    1
    41    27    28    1
    42    33    34    1
@<TRIPOS>MOLECULE
*****
 37 42 0 0 0
SMALL
GASTEIGER

@<TRIPOS>ATOM
      1 C           2.6812    1.7239   18.5848 C.ar    1  UNL1        0.2392
      2 N           2.7594    0.2495   18.3205 N.ar    1  UNL1       -0.1958
      3 C           4.0076   -0.3425   17.7358 C.ar    1  UNL1        0.1539
      4 C           5.1774    0.5400   17.4155 C.ar    1  UNL1        0.1146
      5 C           6.5293    0.2439   16.8369 C.ar    1  UNL1        0.0236
      6 C           7.2865    1.5354   16.7436 C.ar    1  UNL1        0.0223
      7 C           6.4027    2.6296   17.2646 C.ar    1  UNL1        0.1006
      8 N           5.0991    2.0145   17.6798 N.ar    1  UNL1       -0.2229
      9 N           3.8511    2.6064   18.2645 N.ar    1  UNL1       -0.1294
     10 C           2.4816    1.8441   20.8148 C.3     1  UNL1        0.0293
     11 C           1.1329    2.4741   20.6306 C.3     1  UNL1        0.1293
     12 C          -0.2197    3.1096   20.7597 C.3     1  UNL1        0.0289
     13 C          -0.7554    3.3442   19.3784 C.3     1  UNL1        0.0237
     14 C           0.2660    2.8537   18.3956 C.3     1  UNL1        0.0941
     15 N           1.4331    2.3159   19.1695 N.pl3   1  UNL1       -0.2722
     16 C           1.1147    2.5005   22.1302 C.2     1  UNL1        0.2422
     17 O           1.3569    3.7880   22.8606 O.2     1  UNL1       -0.2731
     18 N           0.8542    1.2394   22.8995 N.am    1  UNL1       -0.2814
     19 H           0.6951    0.3944   22.4201 H       1  UNL1        0.1549
     20 C           0.8359    1.2659   24.3991 C.ar    1  UNL1        0.0699
     21 C          -0.3919    1.7283   25.1262 C.ar    1  UNL1        0.0202
     22 C          -0.4102    1.7548   26.6259 C.ar    1  UNL1        0.0510
     23 C           0.7994    1.3188   27.3985 C.ar    1  UNL1        0.2224
     24 F           0.7812    1.3453   28.8981 F       1  UNL1       -0.1832
     25 N           2.0273    0.8564   26.6713 N.ar    1  UNL1       -0.2151
     26 C           2.0455    0.8299   25.1717 C.ar    1  UNL1        0.1159
     27 N           4.0857   -1.8170   17.4715 N.pl3   1  UNL1       -0.2825
     28 H           3.9385   -2.1624   16.5614 H       1  UNL1        0.1550
     29 C           4.3882   -2.7651   18.5937 C.ar    1  UNL1        0.1277
     30 C           4.9612   -2.3957   19.9299 C.ar    1  UNL1        0.0502
     31 C           5.0979   -3.6514   20.7387 C.ar    1  UNL1        0.0807
     32 N           4.6095   -4.7970   19.9026 N.ar    1  UNL1       -0.1760
     33 N           4.1709   -4.2492   18.5769 N.ar    1  UNL1       -0.2631
     34 H           3.8047   -4.7719   17.8273 H       1  UNL1        0.1903
     35 C           5.6297   -3.7453   22.1382 C.3     1  UNL1        0.0421
     36 C           6.7141   -4.1525   23.0911 C.3     1  UNL1        0.0064
     37 C           5.4664   -3.5006   23.6091 C.3     1  UNL1        0.0064
@<TRIPOS>BOND
     1    11    10    1
     2    11    16    1
     3    16    17    2
     4    16    18   am
     5    18    20    1
     6    20    21   ar
     7    21    22   ar
     8    22    23   ar
     9    23    24    1
    10    23    25   ar
    11    25    26   ar
    12    11    12    1
    13    12    13    1
    14    13    14    1
    15    14    15    1
    16    15     1    1
    17     1     2   ar
    18     2     3   ar
    19     3    27    1
    20    27    29    1
    21    29    30   ar
    22    30    31   ar
    23    31    35    1
    24    35    36    1
    25    36    37    1
    26    31    32   ar
    27    32    33   ar
    28     3     4   ar
    29     4     5   ar
    30     5     6   ar
    31     6     7   ar
    32     7     8   ar
    33     8     9   ar
    34    15    11    1
    35     9     1   ar
    36    26    20   ar
    37    33    29   ar
    38     8     4   ar
    39    37    35    1
    40    18    19    1
    41    27    28    1
    42    33    34    1
@<TRIPOS>MOLECULE
*****
 37 42 0 0 0
SMALL
GASTEIGER

@<TRIPOS>ATOM
      1 C          -0.4226    3.7629   17.8063 C.ar    1  UNL1        0.2392
      2 N           0.0969    2.6404   18.6547 N.ar    1  UNL1       -0.1958
      3 C           1.5637    2.5430   18.9537 C.ar    1  UNL1        0.1539
      4 C           2.5108    3.5681   18.4040 C.ar    1  UNL1        0.1146
      5 C           3.9967    3.7306   18.5286 C.ar    1  UNL1        0.0236
      6 C           4.3955    4.9535   17.7570 C.ar    1  UNL1        0.0223
      7 C           3.1560    5.5469   17.1556 C.ar    1  UNL1        0.1006
      8 N           1.9912    4.6906   17.5555 N.ar    1  UNL1       -0.2229
      9 N           0.5245    4.7880   17.2566 N.ar    1  UNL1       -0.1294
     10 C          -1.8256    4.3576   19.4510 C.3     1  UNL1        0.0293
     11 C          -2.9643    4.2417   18.4815 C.3     1  UNL1        0.1293
     12 C          -4.2779    4.2106   17.7579 C.3     1  UNL1        0.0289
     13 C          -4.0147    3.8100   16.3365 C.3     1  UNL1        0.0237
     14 C          -2.5386    3.5935   16.1816 C.3     1  UNL1        0.0941
     15 N          -1.8893    3.8603   17.5073 N.pl3   1  UNL1       -0.2722
     16 C          -3.8012    4.6473   19.6584 C.2     1  UNL1        0.2422
     17 O          -3.5853    5.9820   20.3078 O.2     1  UNL1       -0.2731
     18 N          -4.8540    3.7181   20.1857 N.am    1  UNL1       -0.2814
     19 H          -4.9958    2.8421   19.7595 H       1  UNL1        0.1549
     20 C          -5.6910    4.1237   21.3626 C.ar    1  UNL1        0.0699
     21 C          -5.2891    3.7093   22.7472 C.ar    1  UNL1        0.0202
     22 C          -6.1260    4.1149   23.9240 C.ar    1  UNL1        0.0510
     23 C          -7.3648    4.9349   23.7164 C.ar    1  UNL1        0.2224
     24 F          -8.2017    5.3404   24.8933 F       1  UNL1       -0.1832
     25 N          -7.7667    5.3492   22.3319 N.ar    1  UNL1       -0.2151
     26 C          -6.9297    4.9437   21.1550 C.ar    1  UNL1        0.1159
     27 N           2.0832    1.4204   19.8022 N.pl3   1  UNL1       -0.2825
     28 H           2.0160    1.4729   20.7830 H       1  UNL1        0.1550
     29 C           2.7050    0.2178   19.1564 C.ar    1  UNL1        0.1277
     30 C           2.7980   -1.1548   19.7541 C.ar    1  UNL1        0.0502
     31 C           3.4934   -2.0442   18.7665 C.ar    1  UNL1        0.0807
     32 N           3.8302   -1.2213   17.5585 N.ar    1  UNL1       -0.1760
     33 N           3.3429    0.1767   17.7995 N.ar    1  UNL1       -0.2631
     34 H           3.4271    0.9343   17.1764 H       1  UNL1        0.1903
     35 C           3.7985   -3.5009   18.9540 C.3     1  UNL1        0.0421
     36 C           3.3904   -4.8623   19.4334 C.3     1  UNL1        0.0064
     37 C           4.7351   -4.6624   18.7994 C.3     1  UNL1        0.0064
@<TRIPOS>BOND
     1    11    10    1
     2    11    16    1
     3    16    17    2
     4    16    18   am
     5    18    20    1
     6    20    21   ar
     7    21    22   ar
     8    22    23   ar
     9    23    24    1
    10    23    25   ar
    11    25    26   ar
    12    11    12    1
    13    12    13    1
    14    13    14    1
    15    14    15    1
    16    15     1    1
    17     1     2   ar
    18     2     3   ar
    19     3    27    1
    20    27    29    1
    21    29    30   ar
    22    30    31   ar
    23    31    35    1
    24    35    36    1
    25    36    37    1
    26    31    32   ar
    27    32    33   ar
    28     3     4   ar
    29     4     5   ar
    30     5     6   ar
    31     6     7   ar
    32     7     8   ar
    33     8     9   ar
    34    15    11    1
    35     9     1   ar
    36    26    20   ar
    37    33    29   ar
    38     8     4   ar
    39    37    35    1
    40    18    19    1
    41    27    28    1
    42    33    34    1
@<TRIPOS>MOLECULE
*****
 37 42 0 0 0
SMALL
GASTEIGER

@<TRIPOS>ATOM
      1 C          -9.9464  -18.8332   20.5980 C.ar    1  UNL1        0.2392
      2 N          -9.3166  -17.5534   21.0619 N.ar    1  UNL1       -0.1958
      3 C         -10.0498  -16.6603   22.0184 C.ar    1  UNL1        0.1539
      4 C         -11.4128  -17.0471   22.5110 C.ar    1  UNL1        0.1146
      5 C         -12.3692  -16.3736   23.4499 C.ar    1  UNL1        0.0236
      6 C         -13.5901  -17.2373   23.5663 C.ar    1  UNL1        0.0223
      7 C         -13.3882  -18.4446   22.6993 C.ar    1  UNL1        0.1006
      8 N         -12.0426  -18.3270   22.0470 N.ar    1  UNL1       -0.2229
      9 N         -11.3094  -19.2201   21.0905 N.ar    1  UNL1       -0.1294
     10 C          -7.7091  -18.9329   20.7080 C.3     1  UNL1        0.0293
     11 C          -7.7266  -19.9145   19.5740 C.3     1  UNL1        0.1293
     12 C          -7.4326  -20.8926   18.4753 C.3     1  UNL1        0.0289
     13 C          -8.7375  -21.3089   17.8639 C.3     1  UNL1        0.0237
     14 C          -9.8380  -20.5882   18.5847 C.3     1  UNL1        0.0941
     15 N          -9.2132  -19.7264   19.6415 N.pl3   1  UNL1       -0.2722
     16 C          -6.2363  -19.8974   19.7435 C.2     1  UNL1        0.2422
     17 O          -5.5100  -21.1543   20.1209 O.2     1  UNL1       -0.2731
     18 N          -5.4724  -18.6233   19.5357 N.am    1  UNL1       -0.2814
     19 H          -5.9492  -17.7983   19.2881 H       1  UNL1        0.1549
     20 C          -3.9821  -18.6062   19.7053 C.ar    1  UNL1        0.0699
     21 C          -3.3379  -19.4523   20.7632 C.ar    1  UNL1        0.0202
     22 C          -1.8476  -19.4352   20.9327 C.ar    1  UNL1        0.0510
     23 C          -1.0015  -18.5721   20.0444 C.ar    1  UNL1        0.2224
     24 F           0.4888  -18.5550   20.2139 F       1  UNL1       -0.1832
     25 N          -1.6458  -17.7260   18.9864 N.ar    1  UNL1       -0.2151
     26 C          -3.1361  -17.7431   18.8169 C.ar    1  UNL1        0.1159
     27 N          -9.4200  -15.3804   22.4823 N.pl3   1  UNL1       -0.2825
     28 H          -9.9025  -14.5285   22.3789 H       1  UNL1        0.1550
     29 C          -8.0550  -15.3984   23.1039 C.ar    1  UNL1        0.1277
     30 C          -6.9558  -16.3695   22.7895 C.ar    1  UNL1        0.0502
     31 C          -5.7710  -16.0197   23.6403 C.ar    1  UNL1        0.0807
     32 N          -6.1378  -14.8325   24.4804 N.ar    1  UNL1       -0.1760
     33 N          -7.5494  -14.4485   24.1488 N.ar    1  UNL1       -0.2631
     34 H          -8.0553  -13.7037   24.5472 H       1  UNL1        0.1903
     35 C          -4.4509  -16.7321   23.6494 C.3     1  UNL1        0.0421
     36 C          -3.0289  -16.8382   23.1842 C.3     1  UNL1        0.0064
     37 C          -3.5867  -17.8599   24.1302 C.3     1  UNL1        0.0064
@<TRIPOS>BOND
     1    11    10    1
     2    11    16    1
     3    16    17    2
     4    16    18   am
     5    18    20    1
     6    20    21   ar
     7    21    22   ar
     8    22    23   ar
     9    23    24    1
    10    23    25   ar
    11    25    26   ar
    12    11    12    1
    13    12    13    1
    14    13    14    1
    15    14    15    1
    16    15     1    1
    17     1     2   ar
    18     2     3   ar
    19     3    27    1
    20    27    29    1
    21    29    30   ar
    22    30    31   ar
    23    31    35    1
    24    35    36    1
    25    36    37    1
    26    31    32   ar
    27    32    33   ar
    28     3     4   ar
    29     4     5   ar
    30     5     6   ar
    31     6     7   ar
    32     7     8   ar
    33     8     9   ar
    34    15    11    1
    35     9     1   ar
    36    26    20   ar
    37    33    29   ar
    38     8     4   ar
    39    37    35    1
    40    18    19    1
    41    27    28    1
    42    33    34    1
@<TRIPOS>MOLECULE
*****
 37 42 0 0 0
SMALL
GASTEIGER

@<TRIPOS>ATOM
      1 C           6.6574   -2.3041   28.5705 C.ar    1  UNL1        0.2392
      2 N           5.6412   -2.6219   27.5140 N.ar    1  UNL1       -0.1958
      3 C           5.6702   -1.8945   26.2025 C.ar    1  UNL1        0.1539
      4 C           6.7154   -0.8492   25.9476 C.ar    1  UNL1        0.1146
      5 C           6.9912    0.0259   24.7610 C.ar    1  UNL1        0.0236
      6 C           8.1779    0.8846   25.0842 C.ar    1  UNL1        0.0223
      7 C           8.6355    0.5401   26.4705 C.ar    1  UNL1        0.1006
      8 N           7.7316   -0.5314   27.0042 N.ar    1  UNL1       -0.2229
      9 N           7.7026   -1.2589   28.3156 N.ar    1  UNL1       -0.1294
     10 C           5.6149   -1.3534   30.3132 C.3     1  UNL1        0.0293
     11 C           5.9800   -2.5470   31.1449 C.3     1  UNL1        0.1293
     12 C           6.1937   -3.5872   32.2043 C.3     1  UNL1        0.0289
     13 C           6.9741   -4.7146   31.5962 C.3     1  UNL1        0.0237
     14 C           7.2428   -4.3712   30.1610 C.3     1  UNL1        0.0941
     15 N           6.6284   -3.0315   29.8821 N.pl3   1  UNL1       -0.2722
     16 C           5.2552   -1.8129   32.2339 C.2     1  UNL1        0.2422
     17 O           3.8122   -2.1147   32.5099 O.2     1  UNL1       -0.2731
     18 N           5.9736   -0.7770   33.0468 N.am    1  UNL1       -0.2814
     19 H           6.9208   -0.5789   32.8656 H       1  UNL1        0.1549
     20 C           5.2489   -0.0429   34.1357 C.ar    1  UNL1        0.0699
     21 C           5.2894   -0.5589   35.5437 C.ar    1  UNL1        0.0202
     22 C           4.5646    0.1751   36.6326 C.ar    1  UNL1        0.0510
     23 C           3.7994    1.4252   36.3137 C.ar    1  UNL1        0.2224
     24 F           3.0746    2.1593   37.4027 F       1  UNL1       -0.1832
     25 N           3.7589    1.9412   34.9058 N.ar    1  UNL1       -0.2151
     26 C           4.4836    1.2071   33.8168 C.ar    1  UNL1        0.1159
     27 N           4.6539   -2.2123   25.1459 N.pl3   1  UNL1       -0.2825
     28 H           3.7122   -1.9566   25.2760 H       1  UNL1        0.1550
     29 C           5.0726   -2.9198   23.8913 C.ar    1  UNL1        0.1277
     30 C           4.3493   -2.8875   22.5776 C.ar    1  UNL1        0.0502
     31 C           5.1178   -3.7316   21.6046 C.ar    1  UNL1        0.0807
     32 N           6.3160   -4.2857   22.3168 N.ar    1  UNL1       -0.1760
     33 N           6.2880   -3.7839   23.7301 N.ar    1  UNL1       -0.2631
     34 H           6.9510   -3.9863   24.4292 H       1  UNL1        0.1903
     35 C           4.7522   -3.9785   20.1708 C.3     1  UNL1        0.0421
     36 C           4.9002   -3.6431   18.7163 C.3     1  UNL1        0.0064
     37 C           3.9713   -4.7412   19.1421 C.3     1  UNL1        0.0064
@<TRIPOS>BOND
     1    11    10    1
     2    11    16    1
     3    16    17    2
     4    16    18   am
     5    18    20    1
     6    20    21   ar
     7    21    22   ar
     8    22    23   ar
     9    23    24    1
    10    23    25   ar
    11    25    26   ar
    12    11    12    1
    13    12    13    1
    14    13    14    1
    15    14    15    1
    16    15     1    1
    17     1     2   ar
    18     2     3   ar
    19     3    27    1
    20    27    29    1
    21    29    30   ar
    22    30    31   ar
    23    31    35    1
    24    35    36    1
    25    36    37    1
    26    31    32   ar
    27    32    33   ar
    28     3     4   ar
    29     4     5   ar
    30     5     6   ar
    31     6     7   ar
    32     7     8   ar
    33     8     9   ar
    34    15    11    1
    35     9     1   ar
    36    26    20   ar
    37    33    29   ar
    38     8     4   ar
    39    37    35    1
    40    18    19    1
    41    27    28    1
    42    33    34    1
