@<TRIPOS>MOLECULE
*****
 32 35 0 0 0
SMALL
GASTEIGER

@<TRIPOS>ATOM
      1 C           6.1564   -2.8477   30.6403 C.ar    1  UNL1        0.1219
      2 C           6.6795   -4.2521   30.5774 C.ar    1  UNL1        0.0240
      3 C           6.9479   -4.8936   29.2483 C.ar    1  UNL1        0.0235
      4 C           6.6933   -4.1306   27.9822 C.ar    1  UNL1        0.1166
      5 N           6.1702   -2.7262   28.0451 N.ar    1  UNL1       -0.2887
      6 C           5.9018   -2.0848   29.3742 C.ar    1  UNL1        0.2772
      7 O           5.3787   -0.6803   29.4372 O.2     1  UNL1       -0.2654
      8 C           5.9156   -1.9633   26.7790 C.3     1  UNL1        0.1307
      9 C           6.1840   -2.6047   25.4499 C.3     1  UNL1        0.1184
     10 N           6.7071   -4.0092   25.3870 N.am    1  UNL1       -0.2691
     11 C           6.9617   -4.7722   26.6531 C.2     1  UNL1        0.2652
     12 O           7.4848   -6.1766   26.5901 O.2     1  UNL1       -0.2683
     13 C           6.6848    0.0859   34.9987 C.3     1  UNL1        0.0538
     14 C           6.1309   -0.8577   33.9727 C.ar    1  UNL1        0.0786
     15 C           6.7915   -1.2446   32.6829 C.ar    1  UNL1        0.0963
     16 N           5.8880   -2.2062   31.9694 N.ar    1  UNL1       -0.2825
     17 C           4.6689   -2.4136   32.8184 C.ar    1  UNL1        0.1826
     18 N           4.8190   -1.5802   34.0565 N.ar    1  UNL1       -0.2280
     19 C           6.9755   -4.6507   24.0579 C.3     1  UNL1        0.1410
     20 C           6.7071   -3.8929   22.7915 C.3     1  UNL1        0.2268
     21 O           5.5903   -4.3186   21.8851 O.3     1  UNL1       -0.4737
     22 C           4.5836   -3.3124   21.4116 C.ar    1  UNL1        0.1425
     23 C           4.1606   -2.1924   22.3153 C.ar    1  UNL1        0.0377
     24 C           3.1539   -1.1862   21.8419 C.ar    1  UNL1        0.0145
     25 C           2.5702   -1.3000   20.4648 C.ar    1  UNL1        0.0578
     26 CL          1.5635   -0.2938   19.9914 Cl      1  UNL1       -0.0822
     27 C           2.9932   -2.4201   19.5611 C.ar    1  UNL1        0.0183
     28 C           3.9999   -3.4263   20.0345 C.ar    1  UNL1        0.1061
     29 C           4.4229   -4.5463   19.1309 C.3     1  UNL1        0.4214
     30 F           4.8459   -5.6664   18.2272 F       1  UNL1       -0.1657
     31 F           3.3911   -5.4389   19.7542 F       1  UNL1       -0.1657
     32 F           5.4547   -3.6537   18.5075 F       1  UNL1       -0.1657
@<TRIPOS>BOND
     1    13    14    1
     2    14    15   ar
     3    15    16   ar
     4    16     1    1
     5     1     2   ar
     6     2     3   ar
     7     3     4   ar
     8     4     5   ar
     9     5     6   ar
    10     6     7    2
    11     5     8    1
    12     8     9    1
    13     9    10    1
    14    10    19    1
    15    19    20    1
    16    20    21    1
    17    21    22    1
    18    22    23   ar
    19    23    24   ar
    20    24    25   ar
    21    25    26    1
    22    25    27   ar
    23    27    28   ar
    24    28    29    1
    25    29    30    1
    26    29    31    1
    27    29    32    1
    28    10    11   am
    29    11    12    2
    30    16    17   ar
    31    17    18   ar
    32    18    14   ar
    33     6     1   ar
    34    28    22   ar
    35    11     4    1
@<TRIPOS>MOLECULE
*****
 32 35 0 0 0
SMALL
GASTEIGER

@<TRIPOS>ATOM
      1 C           7.3729   -4.0768   25.3148 C.ar    1  UNL1        0.1219
      2 C           7.1393   -2.6099   25.5233 C.ar    1  UNL1        0.0240
      3 C           7.0006   -1.6971   24.3411 C.ar    1  UNL1        0.0235
      4 C           7.0957   -2.2512   22.9505 C.ar    1  UNL1        0.1166
      5 N           7.3294   -3.7182   22.7420 N.ar    1  UNL1       -0.2887
      6 C           7.4680   -4.6309   23.9242 C.ar    1  UNL1        0.2772
      7 O           7.7017   -6.0979   23.7157 O.2     1  UNL1       -0.2654
      8 C           7.4244   -4.2723   21.3513 C.3     1  UNL1        0.1307
      9 C           7.2858   -3.3595   20.1692 C.3     1  UNL1        0.1184
     10 N           7.0521   -1.8925   20.3776 N.am    1  UNL1       -0.2691
     11 C           6.9571   -1.3384   21.7683 C.2     1  UNL1        0.2652
     12 O           6.7234    0.1285   21.9767 O.2     1  UNL1       -0.2683
     13 C           9.2801   -7.6446   28.7082 C.3     1  UNL1        0.0538
     14 C           8.3882   -6.6296   28.0568 C.ar    1  UNL1        0.0786
     15 C           8.6662   -5.9068   26.7722 C.ar    1  UNL1        0.0963
     16 N           7.5116   -4.9897   26.4970 N.ar    1  UNL1       -0.2825
     17 C           6.5199   -5.1457   27.6116 C.ar    1  UNL1        0.1826
     18 N           7.0617   -6.1592   28.5756 N.ar    1  UNL1       -0.2280
     19 C           6.9135   -0.9798   19.1954 C.3     1  UNL1        0.1410
     20 C           6.4934   -1.5329   17.8660 C.3     1  UNL1        0.2268
     21 O           5.1162   -2.1013   17.6914 O.3     1  UNL1       -0.4737
     22 C           3.9323   -1.3930   18.2803 C.ar    1  UNL1        0.1425
     23 C           3.4864   -0.0781   17.7128 C.ar    1  UNL1        0.0377
     24 C           2.3026    0.6302   18.3017 C.ar    1  UNL1        0.0145
     25 C           1.5646    0.0236   19.4582 C.ar    1  UNL1        0.0578
     26 CL          0.3808    0.7318   20.0471 Cl      1  UNL1       -0.0822
     27 C           2.0105   -1.2914   20.0257 C.ar    1  UNL1        0.0183
     28 C           3.1944   -1.9997   19.4368 C.ar    1  UNL1        0.1061
     29 C           3.6403   -3.3146   20.0044 C.3     1  UNL1        0.4214
     30 F           4.0862   -4.6296   20.5719 F       1  UNL1       -0.1657
     31 F           3.2048   -4.0054   18.7461 F       1  UNL1       -0.1657
     32 F           4.0757   -2.6239   21.2626 F       1  UNL1       -0.1657
@<TRIPOS>BOND
     1    13    14    1
     2    14    15   ar
     3    15    16   ar
     4    16     1    1
     5     1     2   ar
     6     2     3   ar
     7     3     4   ar
     8     4     5   ar
     9     5     6   ar
    10     6     7    2
    11     5     8    1
    12     8     9    1
    13     9    10    1
    14    10    19    1
    15    19    20    1
    16    20    21    1
    17    21    22    1
    18    22    23   ar
    19    23    24   ar
    20    24    25   ar
    21    25    26    1
    22    25    27   ar
    23    27    28   ar
    24    28    29    1
    25    29    30    1
    26    29    31    1
    27    29    32    1
    28    10    11   am
    29    11    12    2
    30    16    17   ar
    31    17    18   ar
    32    18    14   ar
    33     6     1   ar
    34    28    22   ar
    35    11     4    1
@<TRIPOS>MOLECULE
*****
 32 35 0 0 0
SMALL
GASTEIGER

@<TRIPOS>ATOM
      1 C          -0.1874    2.9747   22.7992 C.ar    1  UNL1        0.1219
      2 C           1.1638    2.9480   23.4499 C.ar    1  UNL1        0.0240
      3 C           2.3392    2.3758   22.7144 C.ar    1  UNL1        0.0235
      4 C           2.1633    1.8303   21.3282 C.ar    1  UNL1        0.1166
      5 N           0.8121    1.8570   20.6775 N.ar    1  UNL1       -0.2887
      6 C          -0.3633    2.4292   21.4130 C.ar    1  UNL1        0.2772
      7 O          -1.7146    2.4560   20.7624 O.2     1  UNL1       -0.2654
      8 C           0.6362    1.3115   19.2913 C.3     1  UNL1        0.1307
      9 C           1.8116    0.7393   18.5558 C.3     1  UNL1        0.1184
     10 N           3.1629    0.7126   19.2065 N.am    1  UNL1       -0.2691
     11 C           3.3388    1.2581   20.5927 C.2     1  UNL1        0.2652
     12 O           4.6900    1.2314   21.2433 O.2     1  UNL1       -0.2683
     13 C          -3.8778    3.8301   26.4776 C.3     1  UNL1        0.0538
     14 C          -3.0592    3.9401   25.2256 C.ar    1  UNL1        0.0786
     15 C          -1.8717    3.0948   24.8714 C.ar    1  UNL1        0.0963
     16 N          -1.3629    3.5469   23.5348 N.ar    1  UNL1       -0.2825
     17 C          -2.2358    4.6717   23.0628 C.ar    1  UNL1        0.1826
     18 N          -3.2842    4.9147   24.1077 N.ar    1  UNL1       -0.2280
     19 C           4.3383    0.1404   18.4709 C.3     1  UNL1        0.1410
     20 C           4.1199   -0.7215   17.2629 C.3     1  UNL1        0.2268
     21 O           4.8859   -2.0017   17.1065 O.3     1  UNL1       -0.4737
     22 C           5.8045   -2.4642   18.1984 C.ar    1  UNL1        0.1425
     23 C           7.1855   -1.8897   18.3103 C.ar    1  UNL1        0.0377
     24 C           8.1041   -2.3522   19.4022 C.ar    1  UNL1        0.0145
     25 C           7.6416   -3.3893   20.3823 C.ar    1  UNL1        0.0578
     26 CL          8.5601   -3.8518   21.4742 Cl      1  UNL1       -0.0822
     27 C           6.2605   -3.9639   20.2704 C.ar    1  UNL1        0.0183
     28 C           5.3419   -3.5014   19.1785 C.ar    1  UNL1        0.1061
     29 C           3.9609   -4.0759   19.0666 C.3     1  UNL1        0.4214
     30 F           2.5798   -4.6505   18.9546 F       1  UNL1       -0.1657
     31 F           4.5126   -5.2579   18.3261 F       1  UNL1       -0.1657
     32 F           3.4091   -2.8939   19.8071 F       1  UNL1       -0.1657
@<TRIPOS>BOND
     1    13    14    1
     2    14    15   ar
     3    15    16   ar
     4    16     1    1
     5     1     2   ar
     6     2     3   ar
     7     3     4   ar
     8     4     5   ar
     9     5     6   ar
    10     6     7    2
    11     5     8    1
    12     8     9    1
    13     9    10    1
    14    10    19    1
    15    19    20    1
    16    20    21    1
    17    21    22    1
    18    22    23   ar
    19    23    24   ar
    20    24    25   ar
    21    25    26    1
    22    25    27   ar
    23    27    28   ar
    24    28    29    1
    25    29    30    1
    26    29    31    1
    27    29    32    1
    28    10    11   am
    29    11    12    2
    30    16    17   ar
    31    17    18   ar
    32    18    14   ar
    33     6     1   ar
    34    28    22   ar
    35    11     4    1
@<TRIPOS>MOLECULE
*****
 32 35 0 0 0
SMALL
GASTEIGER

@<TRIPOS>ATOM
      1 C           7.6507   -4.6845   26.1955 C.ar    1  UNL1        0.1219
      2 C           7.9413   -5.8835   25.3423 C.ar    1  UNL1        0.0240
      3 C           7.9729   -5.7512   23.8486 C.ar    1  UNL1        0.0235
      4 C           7.7139   -4.4199   23.2079 C.ar    1  UNL1        0.1166
      5 N           7.4233   -3.2208   24.0610 N.ar    1  UNL1       -0.2887
      6 C           7.3917   -3.3532   25.5548 C.ar    1  UNL1        0.2772
      7 O           7.1011   -2.1541   26.4080 O.2     1  UNL1       -0.2654
      8 C           7.1643   -1.8895   23.4203 C.3     1  UNL1        0.1307
      9 C           7.1960   -1.7572   21.9266 C.3     1  UNL1        0.1184
     10 N           7.4866   -2.9562   21.0734 N.am    1  UNL1       -0.2691
     11 C           7.7456   -4.2876   21.7140 C.2     1  UNL1        0.2652
     12 O           8.0362   -5.4866   20.8609 O.2     1  UNL1       -0.2683
     13 C           9.0165   -4.4287   31.2896 C.3     1  UNL1        0.0538
     14 C           8.2469   -4.6992   30.0308 C.ar    1  UNL1        0.0786
     15 C           8.6949   -4.3750   28.6366 C.ar    1  UNL1        0.0963
     16 N           7.6190   -4.8168   27.6893 N.ar    1  UNL1       -0.2825
     17 C           6.5060   -5.4141   28.4982 C.ar    1  UNL1        0.1826
     18 N           6.8940   -5.3415   29.9453 N.ar    1  UNL1       -0.2280
     19 C           7.5182   -2.8239   19.5796 C.3     1  UNL1        0.1410
     20 C           6.7689   -1.7107   18.9092 C.3     1  UNL1        0.2268
     21 O           5.5004   -2.0029   18.1637 O.3     1  UNL1       -0.4737
     22 C           4.2233   -1.3243   18.5618 C.ar    1  UNL1        0.1425
     23 C           3.8559   -0.0023   17.9556 C.ar    1  UNL1        0.0377
     24 C           2.5788    0.6763   18.3536 C.ar    1  UNL1        0.0145
     25 C           1.6690    0.0330   19.3578 C.ar    1  UNL1        0.0578
     26 CL          0.3919    0.7116   19.7559 Cl      1  UNL1       -0.0822
     27 C           2.0364   -1.2890   19.9640 C.ar    1  UNL1        0.0183
     28 C           3.3135   -1.9677   19.5660 C.ar    1  UNL1        0.1061
     29 C           3.6809   -3.2896   20.1721 C.3     1  UNL1        0.4214
     30 F           4.0482   -4.6117   20.7783 F       1  UNL1       -0.1657
     31 F           3.1645   -3.9926   18.9519 F       1  UNL1       -0.1657
     32 F           4.1973   -2.5866   21.3924 F       1  UNL1       -0.1657
@<TRIPOS>BOND
     1    13    14    1
     2    14    15   ar
     3    15    16   ar
     4    16     1    1
     5     1     2   ar
     6     2     3   ar
     7     3     4   ar
     8     4     5   ar
     9     5     6   ar
    10     6     7    2
    11     5     8    1
    12     8     9    1
    13     9    10    1
    14    10    19    1
    15    19    20    1
    16    20    21    1
    17    21    22    1
    18    22    23   ar
    19    23    24   ar
    20    24    25   ar
    21    25    26    1
    22    25    27   ar
    23    27    28   ar
    24    28    29    1
    25    29    30    1
    26    29    31    1
    27    29    32    1
    28    10    11   am
    29    11    12    2
    30    16    17   ar
    31    17    18   ar
    32    18    14   ar
    33     6     1   ar
    34    28    22   ar
    35    11     4    1
@<TRIPOS>MOLECULE
*****
 32 35 0 0 0
SMALL
GASTEIGER

@<TRIPOS>ATOM
      1 C           0.9751    1.6541   24.0088 C.ar    1  UNL1        0.1219
      2 C           0.1696    2.1718   22.8542 C.ar    1  UNL1        0.0240
      3 C           0.6780    2.0094   21.4524 C.ar    1  UNL1        0.0235
      4 C           1.9918    1.3292   21.2052 C.ar    1  UNL1        0.1166
      5 N           2.7973    0.8114   22.3598 N.ar    1  UNL1       -0.2887
      6 C           2.2889    0.9739   23.7616 C.ar    1  UNL1        0.2772
      7 O           3.0944    0.4561   24.9163 O.2     1  UNL1       -0.2654
      8 C           4.1112    0.1312   22.1126 C.3     1  UNL1        0.1307
      9 C           4.6195   -0.0312   20.7108 C.3     1  UNL1        0.1184
     10 N           3.8141    0.4865   19.5561 N.am    1  UNL1       -0.2691
     11 C           2.5002    1.1667   19.8033 C.2     1  UNL1        0.2652
     12 O           1.6947    1.6844   18.6487 O.2     1  UNL1       -0.2683
     13 C          -1.2807    0.6632   28.6790 C.3     1  UNL1        0.0538
     14 C          -0.5702    1.3610   27.5574 C.ar    1  UNL1        0.0786
     15 C          -0.2440    0.7706   26.2176 C.ar    1  UNL1        0.0963
     16 N           0.4667    1.8165   25.4107 N.ar    1  UNL1       -0.2825
     17 C           0.5798    3.0533   26.2518 C.ar    1  UNL1        0.1826
     18 N          -0.0610    2.7719   27.5785 N.ar    1  UNL1       -0.2280
     19 C           4.3224    0.3240   18.1543 C.3     1  UNL1        0.1410
     20 C           3.8873   -0.8513   17.3302 C.3     1  UNL1        0.2268
     21 O           4.8258   -2.0003   17.1083 O.3     1  UNL1       -0.4737
     22 C           5.7536   -2.4333   18.2046 C.ar    1  UNL1        0.1425
     23 C           7.1141   -1.8133   18.3243 C.ar    1  UNL1        0.0377
     24 C           8.0419   -2.2463   19.4205 C.ar    1  UNL1        0.0145
     25 C           7.6091   -3.2993   20.3971 C.ar    1  UNL1        0.0578
     26 CL          8.5369   -3.7323   21.4933 Cl      1  UNL1       -0.0822
     27 C           6.2485   -3.9195   20.2774 C.ar    1  UNL1        0.0183
     28 C           5.3207   -3.4865   19.1811 C.ar    1  UNL1        0.1061
     29 C           3.9602   -4.1065   19.0614 C.3     1  UNL1        0.4214
     30 F           2.5995   -4.7266   18.9417 F       1  UNL1       -0.1657
     31 F           3.3733   -2.9699   19.8447 F       1  UNL1       -0.1657
     32 F           4.5471   -5.2431   18.2781 F       1  UNL1       -0.1657
@<TRIPOS>BOND
     1    13    14    1
     2    14    15   ar
     3    15    16   ar
     4    16     1    1
     5     1     2   ar
     6     2     3   ar
     7     3     4   ar
     8     4     5   ar
     9     5     6   ar
    10     6     7    2
    11     5     8    1
    12     8     9    1
    13     9    10    1
    14    10    19    1
    15    19    20    1
    16    20    21    1
    17    21    22    1
    18    22    23   ar
    19    23    24   ar
    20    24    25   ar
    21    25    26    1
    22    25    27   ar
    23    27    28   ar
    24    28    29    1
    25    29    30    1
    26    29    31    1
    27    29    32    1
    28    10    11   am
    29    11    12    2
    30    16    17   ar
    31    17    18   ar
    32    18    14   ar
    33     6     1   ar
    34    28    22   ar
    35    11     4    1
@<TRIPOS>MOLECULE
*****
 32 35 0 0 0
SMALL
GASTEIGER

@<TRIPOS>ATOM
      1 C           3.3174   -1.2096   19.7444 C.ar    1  UNL1        0.1219
      2 C           3.0815   -0.5967   18.3958 C.ar    1  UNL1        0.0240
      3 C           2.1506    0.5710   18.2551 C.ar    1  UNL1        0.0235
      4 C           1.4556    1.1259   19.4630 C.ar    1  UNL1        0.1166
      5 N           1.6915    0.5131   20.8116 N.ar    1  UNL1       -0.2887
      6 C           2.6224   -0.6547   20.9523 C.ar    1  UNL1        0.2772
      7 O           2.8583   -1.2675   22.3010 O.2     1  UNL1       -0.2654
      8 C           0.9965    1.0680   22.0196 C.3     1  UNL1        0.1307
      9 C           0.0657    2.2357   21.8789 C.3     1  UNL1        0.1184
     10 N          -0.1703    2.8486   20.5302 N.am    1  UNL1       -0.2691
     11 C           0.5247    2.2937   19.3223 C.2     1  UNL1        0.2652
     12 O           0.2888    2.9065   17.9737 O.2     1  UNL1       -0.2683
     13 C           7.5912   -4.1264   20.7967 C.3     1  UNL1        0.0538
     14 C           6.2128   -3.7181   20.3689 C.ar    1  UNL1        0.0786
     15 C           5.6562   -2.3255   20.4001 C.ar    1  UNL1        0.0963
     16 N           4.2483   -2.3774   19.8851 N.ar    1  UNL1       -0.2825
     17 C           3.9347   -3.8020   19.5356 C.ar    1  UNL1        0.1826
     18 N           5.1488   -4.6306   19.8346 N.ar    1  UNL1       -0.2280
     19 C          -1.1011    4.0164   20.3896 C.3     1  UNL1        0.1410
     20 C          -2.4842    3.8118   19.8461 C.3     1  UNL1        0.2268
     21 O          -3.4188    2.8493   20.5171 O.3     1  UNL1       -0.4737
     22 C          -4.5690    3.3644   21.3306 C.ar    1  UNL1        0.1425
     23 C          -4.5353    3.2607   22.8266 C.ar    1  UNL1        0.0377
     24 C          -5.6854    3.7758   23.6402 C.ar    1  UNL1        0.0145
     25 C          -6.8692    4.3946   22.9578 C.ar    1  UNL1        0.0578
     26 CL         -8.0193    4.9098   23.7714 Cl      1  UNL1       -0.0822
     27 C          -6.9029    4.4984   21.4617 C.ar    1  UNL1        0.0183
     28 C          -5.7527    3.9832   20.6481 C.ar    1  UNL1        0.1061
     29 C          -5.7864    4.0869   19.1521 C.3     1  UNL1        0.4214
     30 F          -5.8201    4.1906   17.6560 F       1  UNL1       -0.1657
     31 F          -6.2325    2.6576   19.0631 F       1  UNL1       -0.1657
     32 F          -5.3403    5.5163   19.2412 F       1  UNL1       -0.1657
@<TRIPOS>BOND
     1    13    14    1
     2    14    15   ar
     3    15    16   ar
     4    16     1    1
     5     1     2   ar
     6     2     3   ar
     7     3     4   ar
     8     4     5   ar
     9     5     6   ar
    10     6     7    2
    11     5     8    1
    12     8     9    1
    13     9    10    1
    14    10    19    1
    15    19    20    1
    16    20    21    1
    17    21    22    1
    18    22    23   ar
    19    23    24   ar
    20    24    25   ar
    21    25    26    1
    22    25    27   ar
    23    27    28   ar
    24    28    29    1
    25    29    30    1
    26    29    31    1
    27    29    32    1
    28    10    11   am
    29    11    12    2
    30    16    17   ar
    31    17    18   ar
    32    18    14   ar
    33     6     1   ar
    34    28    22   ar
    35    11     4    1
@<TRIPOS>MOLECULE
*****
 32 35 0 0 0
SMALL
GASTEIGER

@<TRIPOS>ATOM
      1 C           1.2028    1.4363   22.3166 C.ar    1  UNL1        0.1219
      2 C           0.5790    0.7037   21.1659 C.ar    1  UNL1        0.0240
      3 C           1.4286    0.2526   20.0149 C.ar    1  UNL1        0.0235
      4 C           2.9019    0.5343   20.0146 C.ar    1  UNL1        0.1166
      5 N           3.5257    1.2669   21.1652 N.ar    1  UNL1       -0.2887
      6 C           2.6761    1.7180   22.3162 C.ar    1  UNL1        0.2772
      7 O           3.2999    2.4507   23.4670 O.2     1  UNL1       -0.2654
      8 C           4.9990    1.5486   21.1649 C.3     1  UNL1        0.1307
      9 C           5.8485    1.0976   20.0139 C.3     1  UNL1        0.1184
     10 N           5.2247    0.3649   18.8631 N.am    1  UNL1       -0.2691
     11 C           3.7514    0.0832   18.8635 C.2     1  UNL1        0.2652
     12 O           3.1276   -0.6494   17.7128 O.2     1  UNL1       -0.2683
     13 C          -0.9984    1.7730   27.1043 C.3     1  UNL1        0.0538
     14 C          -0.6585    2.0421   25.6684 C.ar    1  UNL1        0.0786
     15 C           0.3321    1.2799   24.8390 C.ar    1  UNL1        0.0963
     16 N           0.3533    1.8874   23.4677 N.ar    1  UNL1       -0.2825
     17 C          -0.6241    3.0251   23.4495 C.ar    1  UNL1        0.1826
     18 N          -1.2494    3.1207   24.8096 N.ar    1  UNL1       -0.2280
     19 C           6.0743   -0.0861   17.7121 C.3     1  UNL1        0.1410
     20 C           6.7018   -1.4484   17.7317 C.3     1  UNL1        0.2268
     21 O           5.9364   -2.6191   18.2737 O.3     1  UNL1       -0.4737
     22 C           5.9368   -2.8981   19.7475 C.ar    1  UNL1        0.1425
     23 C           7.0698   -2.4128   20.6023 C.ar    1  UNL1        0.0377
     24 C           7.0702   -2.6918   22.0761 C.ar    1  UNL1        0.0145
     25 C           5.9377   -3.4562   22.6951 C.ar    1  UNL1        0.0578
     26 CL          5.9381   -3.7352   24.1689 Cl      1  UNL1       -0.0822
     27 C           4.8046   -3.9415   21.8403 C.ar    1  UNL1        0.0183
     28 C           4.8042   -3.6625   20.3664 C.ar    1  UNL1        0.1061
     29 C           3.6712   -4.1478   19.5116 C.3     1  UNL1        0.4214
     30 F           2.5382   -4.6331   18.6567 F       1  UNL1       -0.1657
     31 F           4.4469   -5.3904   19.1890 F       1  UNL1       -0.1657
     32 F           2.8956   -2.9051   19.8342 F       1  UNL1       -0.1657
@<TRIPOS>BOND
     1    13    14    1
     2    14    15   ar
     3    15    16   ar
     4    16     1    1
     5     1     2   ar
     6     2     3   ar
     7     3     4   ar
     8     4     5   ar
     9     5     6   ar
    10     6     7    2
    11     5     8    1
    12     8     9    1
    13     9    10    1
    14    10    19    1
    15    19    20    1
    16    20    21    1
    17    21    22    1
    18    22    23   ar
    19    23    24   ar
    20    24    25   ar
    21    25    26    1
    22    25    27   ar
    23    27    28   ar
    24    28    29    1
    25    29    30    1
    26    29    31    1
    27    29    32    1
    28    10    11   am
    29    11    12    2
    30    16    17   ar
    31    17    18   ar
    32    18    14   ar
    33     6     1   ar
    34    28    22   ar
    35    11     4    1
@<TRIPOS>MOLECULE
*****
 32 35 0 0 0
SMALL
GASTEIGER

@<TRIPOS>ATOM
      1 C           6.9769   -2.5800   28.9770 C.ar    1  UNL1        0.1219
      2 C           7.3723   -1.3412   28.2293 C.ar    1  UNL1        0.0240
      3 C           7.7051   -1.4208   26.7689 C.ar    1  UNL1        0.0235
      4 C           7.6425   -2.7392   26.0561 C.ar    1  UNL1        0.1166
      5 N           7.2471   -3.9779   26.8038 N.ar    1  UNL1       -0.2887
      6 C           6.9143   -3.8983   28.2642 C.ar    1  UNL1        0.2772
      7 O           6.5189   -5.1372   29.0120 O.2     1  UNL1       -0.2654
      8 C           7.1845   -5.2963   26.0911 C.3     1  UNL1        0.1307
      9 C           7.5173   -5.3759   24.6306 C.3     1  UNL1        0.1184
     10 N           7.9127   -4.1371   23.8829 N.am    1  UNL1       -0.2691
     11 C           7.9754   -2.8187   24.5956 C.2     1  UNL1        0.2652
     12 O           8.3708   -1.5799   23.8480 O.2     1  UNL1       -0.2683
     13 C           4.3880   -1.7201   33.4980 C.3     1  UNL1        0.0538
     14 C           5.4540   -2.1052   32.5155 C.ar    1  UNL1        0.0786
     15 C           5.3517   -2.0123   31.0219 C.ar    1  UNL1        0.0963
     16 N           6.6441   -2.5004   30.4375 N.ar    1  UNL1       -0.2825
     17 C           7.5451   -2.8951   31.5699 C.ar    1  UNL1        0.1826
     18 N           6.8097   -2.6508   32.8542 N.ar    1  UNL1       -0.2280
     19 C           8.2456   -4.2166   22.4225 C.3     1  UNL1        0.1410
     20 C           7.1664   -4.0363   21.3964 C.3     1  UNL1        0.2268
     21 O           5.7321   -4.2726   21.7670 O.3     1  UNL1       -0.4737
     22 C           4.6808   -3.2806   21.3661 C.ar    1  UNL1        0.1425
     23 C           4.2956   -2.1756   22.3045 C.ar    1  UNL1        0.0377
     24 C           3.2443   -1.1836   21.9037 C.ar    1  UNL1        0.0145
     25 C           2.5781   -1.2966   20.5645 C.ar    1  UNL1        0.0578
     26 CL          1.5268   -0.3045   20.1637 Cl      1  UNL1       -0.0822
     27 C           2.9633   -2.4016   19.6261 C.ar    1  UNL1        0.0183
     28 C           4.0147   -3.3936   20.0269 C.ar    1  UNL1        0.1061
     29 C           4.3999   -4.4985   19.0885 C.3     1  UNL1        0.4214
     30 F           4.7850   -5.6036   18.1501 F       1  UNL1       -0.1657
     31 F           3.3201   -5.3651   19.6657 F       1  UNL1       -0.1657
     32 F           5.4796   -3.6320   18.5113 F       1  UNL1       -0.1657
@<TRIPOS>BOND
     1    13    14    1
     2    14    15   ar
     3    15    16   ar
     4    16     1    1
     5     1     2   ar
     6     2     3   ar
     7     3     4   ar
     8     4     5   ar
     9     5     6   ar
    10     6     7    2
    11     5     8    1
    12     8     9    1
    13     9    10    1
    14    10    19    1
    15    19    20    1
    16    20    21    1
    17    21    22    1
    18    22    23   ar
    19    23    24   ar
    20    24    25   ar
    21    25    26    1
    22    25    27   ar
    23    27    28   ar
    24    28    29    1
    25    29    30    1
    26    29    31    1
    27    29    32    1
    28    10    11   am
    29    11    12    2
    30    16    17   ar
    31    17    18   ar
    32    18    14   ar
    33     6     1   ar
    34    28    22   ar
    35    11     4    1
@<TRIPOS>MOLECULE
*****
 32 35 0 0 0
SMALL
GASTEIGER

@<TRIPOS>ATOM
      1 C           6.6254   -2.2008   25.8214 C.ar    1  UNL1        0.1219
      2 C           6.7830   -3.6307   25.3967 C.ar    1  UNL1        0.0240
      3 C           6.9598   -3.9669   23.9456 C.ar    1  UNL1        0.0235
      4 C           6.9790   -2.8732   22.9193 C.ar    1  UNL1        0.1166
      5 N           6.8214   -1.4433   23.3440 N.ar    1  UNL1       -0.2887
      6 C           6.6446   -1.1071   24.7951 C.ar    1  UNL1        0.2772
      7 O           6.4870    0.3229   25.2199 O.2     1  UNL1       -0.2654
      8 C           6.8406   -0.3495   22.3177 C.3     1  UNL1        0.1307
      9 C           7.0174   -0.6857   20.8666 C.3     1  UNL1        0.1184
     10 N           7.1750   -2.1157   20.4418 N.am    1  UNL1       -0.2691
     11 C           7.1558   -3.2094   21.4681 C.2     1  UNL1        0.2652
     12 O           7.3134   -4.6394   21.0434 O.2     1  UNL1       -0.2683
     13 C           4.4219   -0.9534   30.4550 C.3     1  UNL1        0.0538
     14 C           5.4357   -1.2912   29.4024 C.ar    1  UNL1        0.0786
     15 C           5.1461   -1.5764   27.9585 C.ar    1  UNL1        0.0963
     16 N           6.4486   -1.8645   27.2726 N.ar    1  UNL1       -0.2825
     17 C           7.5432   -1.7574   28.2925 C.ar    1  UNL1        0.1826
     18 N           6.9173   -1.4031   29.6088 N.ar    1  UNL1       -0.2280
     19 C           7.3518   -2.4519   18.9907 C.3     1  UNL1        0.1410
     20 C           6.5173   -1.7605   17.9536 C.3     1  UNL1        0.2268
     21 O           5.1207   -2.2332   17.6775 O.3     1  UNL1       -0.4737
     22 C           3.9499   -1.4808   18.2370 C.ar    1  UNL1        0.1425
     23 C           3.4971   -0.2069   17.5873 C.ar    1  UNL1        0.0377
     24 C           2.3263    0.5455   18.1469 C.ar    1  UNL1        0.0145
     25 C           1.6083    0.0240   19.3562 C.ar    1  UNL1        0.0578
     26 CL          0.4375    0.7764   19.9158 Cl      1  UNL1       -0.0822
     27 C           2.0612   -1.2499   20.0060 C.ar    1  UNL1        0.0183
     28 C           3.2320   -2.0023   19.4465 C.ar    1  UNL1        0.1061
     29 C           3.6848   -3.2761   20.0962 C.3     1  UNL1        0.4214
     30 F           4.1376   -4.5500   20.7461 F       1  UNL1       -0.1657
     31 F           4.1026   -2.5064   21.3140 F       1  UNL1       -0.1657
     32 F           3.2670   -4.0458   18.8785 F       1  UNL1       -0.1657
@<TRIPOS>BOND
     1    13    14    1
     2    14    15   ar
     3    15    16   ar
     4    16     1    1
     5     1     2   ar
     6     2     3   ar
     7     3     4   ar
     8     4     5   ar
     9     5     6   ar
    10     6     7    2
    11     5     8    1
    12     8     9    1
    13     9    10    1
    14    10    19    1
    15    19    20    1
    16    20    21    1
    17    21    22    1
    18    22    23   ar
    19    23    24   ar
    20    24    25   ar
    21    25    26    1
    22    25    27   ar
    23    27    28   ar
    24    28    29    1
    25    29    30    1
    26    29    31    1
    27    29    32    1
    28    10    11   am
    29    11    12    2
    30    16    17   ar
    31    17    18   ar
    32    18    14   ar
    33     6     1   ar
    34    28    22   ar
    35    11     4    1
