@<TRIPOS>MOLECULE
*****
 25 27 0 0 0
SMALL
GASTEIGER

@<TRIPOS>ATOM
      1 N          -7.6718  -18.9290   20.2617 N.am    1  UNL1       -0.2654
      2 C          -8.4625  -19.1118   21.5231 C.2     1  UNL1        0.2453
      3 O          -7.8311  -19.7667   22.7158 O.2     1  UNL1       -0.2730
      4 H          -8.0863  -18.4992   19.4789 H       1  UNL1        0.1564
      5 C          -3.8239  -19.4166   20.1182 C.ar    1  UNL1        0.1549
      6 C          -5.0297  -18.5284   20.2031 C.ar    1  UNL1        0.0733
      7 C          -6.2497  -19.4010   20.1928 C.ar    1  UNL1        0.1760
      8 N          -5.7979  -20.8285   20.1016 N.ar    1  UNL1       -0.0621
      9 O          -4.2987  -20.8381   20.0555 O.2     1  UNL1       -0.3565
     10 C          -2.1488  -19.6827   21.3923 C.3     1  UNL1        0.0076
     11 C          -2.3942  -18.9629   20.0994 C.3     1  UNL1        0.0539
     12 C          -2.6397  -18.2432   18.8065 C.3     1  UNL1        0.0076
     13 C          -0.9646  -18.5093   20.0806 C.3     1  UNL1        0.0076
     14 C          -9.8847  -18.6398   21.5920 C.3     1  UNL1        0.1502
     15 C         -10.9607  -18.9338   20.5891 C.3     1  UNL1        0.0309
     16 C         -12.2215  -18.2666   21.0532 C.3     1  UNL1        0.0236
     17 C         -11.9247  -17.5603   22.3427 C.3     1  UNL1        0.0912
     18 N         -10.4804  -17.7910   22.6758 N.pl3   1  UNL1       -0.3015
     19 C          -9.7586  -17.2651   23.8810 C.ar    1  UNL1        0.0482
     20 C          -9.0164  -15.9640   23.8022 C.ar    1  UNL1        0.0154
     21 C          -8.2946  -15.4382   25.0074 C.ar    1  UNL1        0.0127
     22 C          -8.3151  -16.2135   26.2914 C.ar    1  UNL1        0.0578
     23 CL         -7.5932  -15.6876   27.4966 Cl      1  UNL1       -0.0822
     24 C          -9.0572  -17.5146   26.3701 C.ar    1  UNL1        0.0127
     25 C          -9.7790  -18.0404   25.1649 C.ar    1  UNL1        0.0154
@<TRIPOS>BOND
     1    10    11    1
     2    11    12    1
     3    11    13    1
     4    11     5    1
     5     5     6   ar
     6     6     7   ar
     7     7     1    1
     8     1     2   am
     9     2     3    2
    10    14     2    1
    11    14    15    1
    12    15    16    1
    13    16    17    1
    14    17    18    1
    15    18    19    1
    16    19    20   ar
    17    20    21   ar
    18    21    22   ar
    19    22    23    1
    20    22    24   ar
    21    24    25   ar
    22     7     8   ar
    23     8     9   ar
    24     9     5   ar
    25    18    14    1
    26    25    19   ar
    27     1     4    1
@<TRIPOS>MOLECULE
*****
 25 27 0 0 0
SMALL
GASTEIGER

@<TRIPOS>ATOM
      1 N          -7.8289  -19.7979   21.6614 N.am    1  UNL1       -0.2654
      2 C          -8.5087  -18.4608   21.6669 C.2     1  UNL1        0.2453
      3 O          -7.7714  -17.2428   21.1948 O.2     1  UNL1       -0.2730
      4 H          -8.3128  -20.5973   21.9712 H       1  UNL1        0.1564
      5 C          -4.0592  -19.4604   20.8006 C.ar    1  UNL1        0.1549
      6 C          -5.3005  -18.9517   21.4719 C.ar    1  UNL1        0.0733
      7 C          -6.4119  -19.9170   21.1839 C.ar    1  UNL1        0.1760
      8 N          -5.8577  -21.0222   20.3346 N.ar    1  UNL1       -0.0621
      9 O          -4.4036  -20.7400   20.0977 O.2     1  UNL1       -0.3565
     10 C          -2.7538  -18.7768   22.3265 C.3     1  UNL1        0.0076
     11 C          -2.7104  -18.8046   20.8275 C.3     1  UNL1        0.0539
     12 C          -2.6670  -18.8325   19.3283 C.3     1  UNL1        0.0076
     13 C          -1.3616  -18.1488   20.8543 C.3     1  UNL1        0.0076
     14 C          -9.9257  -18.3417   22.1443 C.3     1  UNL1        0.1502
     15 C         -11.1436  -18.8389   21.4236 C.3     1  UNL1        0.0309
     16 C         -12.3442  -18.5090   22.2603 C.3     1  UNL1        0.0236
     17 C         -11.8682  -17.8080   23.4980 C.3     1  UNL1        0.0912
     18 N         -10.3735  -17.7046   23.4264 N.pl3   1  UNL1       -0.3015
     19 C          -9.4829  -17.0747   24.4560 C.ar    1  UNL1        0.0482
     20 C          -8.6988  -15.8419   24.1163 C.ar    1  UNL1        0.0154
     21 C          -7.8083  -15.2120   25.1459 C.ar    1  UNL1        0.0127
     22 C          -7.7018  -15.8150   26.5153 C.ar    1  UNL1        0.0578
     23 CL         -6.8111  -15.1851   27.5449 Cl      1  UNL1       -0.0822
     24 C          -8.4858  -17.0478   26.8550 C.ar    1  UNL1        0.0127
     25 C          -9.3763  -17.6777   25.8254 C.ar    1  UNL1        0.0154
@<TRIPOS>BOND
     1    10    11    1
     2    11    12    1
     3    11    13    1
     4    11     5    1
     5     5     6   ar
     6     6     7   ar
     7     7     1    1
     8     1     2   am
     9     2     3    2
    10    14     2    1
    11    14    15    1
    12    15    16    1
    13    16    17    1
    14    17    18    1
    15    18    19    1
    16    19    20   ar
    17    20    21   ar
    18    21    22   ar
    19    22    23    1
    20    22    24   ar
    21    24    25   ar
    22     7     8   ar
    23     8     9   ar
    24     9     5   ar
    25    18    14    1
    26    25    19   ar
    27     1     4    1
@<TRIPOS>MOLECULE
*****
 25 27 0 0 0
SMALL
GASTEIGER

@<TRIPOS>ATOM
      1 N          -7.0174  -18.0647   21.2077 N.am    1  UNL1       -0.2654
      2 C          -6.0932  -19.1304   21.7176 C.2     1  UNL1        0.2453
      3 O          -6.6515  -20.4255   22.2288 O.2     1  UNL1       -0.2730
      4 H          -6.6510  -17.2148   20.8722 H       1  UNL1        0.1564
      5 C         -10.8287  -18.3341   21.8907 C.ar    1  UNL1        0.1549
      6 C          -9.4484  -17.9228   22.3099 C.ar    1  UNL1        0.0733
      7 C          -8.4998  -18.2940   21.2088 C.ar    1  UNL1        0.1760
      8 N          -9.2938  -18.9346   20.1092 N.ar    1  UNL1       -0.0621
      9 O         -10.7331  -18.9594   20.5306 O.2     1  UNL1       -0.3565
     10 C         -11.4233  -18.7951   23.8741 C.3     1  UNL1        0.0076
     11 C         -12.0842  -18.1521   22.6911 C.3     1  UNL1        0.0539
     12 C         -12.7452  -17.5090   21.5080 C.3     1  UNL1        0.0076
     13 C         -13.3397  -17.9700   23.4915 C.3     1  UNL1        0.0076
     14 C          -4.6109  -18.9012   21.7164 C.3     1  UNL1        0.1502
     15 C          -3.6245  -19.5152   20.7677 C.3     1  UNL1        0.0309
     16 C          -2.2586  -19.0112   21.1287 C.3     1  UNL1        0.0236
     17 C          -2.4008  -18.0856   22.3005 C.3     1  UNL1        0.0912
     18 N          -3.8546  -18.0177   22.6638 N.pl3   1  UNL1       -0.3015
     19 C          -4.4479  -17.2082   23.7786 C.ar    1  UNL1        0.0482
     20 C          -5.4607  -16.1440   23.4760 C.ar    1  UNL1        0.0154
     21 C          -6.0540  -15.3346   24.5909 C.ar    1  UNL1        0.0127
     22 C          -5.6345  -15.5895   26.0083 C.ar    1  UNL1        0.0578
     23 CL         -6.2279  -14.7801   27.1231 Cl      1  UNL1       -0.0822
     24 C          -4.6217  -16.6538   26.3109 C.ar    1  UNL1        0.0127
     25 C          -4.0284  -17.4631   25.1960 C.ar    1  UNL1        0.0154
@<TRIPOS>BOND
     1    10    11    1
     2    11    12    1
     3    11    13    1
     4    11     5    1
     5     5     6   ar
     6     6     7   ar
     7     7     1    1
     8     1     2   am
     9     2     3    2
    10    14     2    1
    11    14    15    1
    12    15    16    1
    13    16    17    1
    14    17    18    1
    15    18    19    1
    16    19    20   ar
    17    20    21   ar
    18    21    22   ar
    19    22    23    1
    20    22    24   ar
    21    24    25   ar
    22     7     8   ar
    23     8     9   ar
    24     9     5   ar
    25    18    14    1
    26    25    19   ar
    27     1     4    1
@<TRIPOS>MOLECULE
*****
 25 27 0 0 0
SMALL
GASTEIGER

@<TRIPOS>ATOM
      1 N          -5.2396  -17.3955   24.0123 N.am    1  UNL1       -0.2654
      2 C          -5.7628  -16.0099   24.2497 C.2     1  UNL1        0.2453
      3 O          -5.4905  -14.9242   23.2511 O.2     1  UNL1       -0.2730
      4 H          -5.4183  -18.1081   24.6676 H       1  UNL1        0.1564
      5 C          -2.6210  -17.8248   21.1796 C.ar    1  UNL1        0.1549
      6 C          -3.0071  -17.3343   22.5436 C.ar    1  UNL1        0.0733
      7 C          -4.4442  -17.6954   22.7764 C.ar    1  UNL1        0.1760
      8 N          -4.9464  -18.4091   21.5563 N.ar    1  UNL1       -0.0621
      9 O          -3.8196  -18.4891   20.5695 O.2     1  UNL1       -0.3565
     10 C          -1.1557  -16.2928   21.1041 C.3     1  UNL1        0.0076
     11 C          -1.2731  -17.6770   20.5384 C.3     1  UNL1        0.0539
     12 C          -1.3904  -19.0613   19.9726 C.3     1  UNL1        0.0076
     13 C           0.0749  -17.5292   19.8971 C.3     1  UNL1        0.0076
     14 C          -6.5581  -15.7099   25.4855 C.3     1  UNL1        0.1502
     15 C          -6.0423  -15.0413   26.7252 C.3     1  UNL1        0.0309
     16 C          -7.1744  -14.9441   27.7046 C.3     1  UNL1        0.0236
     17 C          -8.3898  -15.5527   27.0701 C.3     1  UNL1        0.0912
     18 N          -8.0089  -16.0260   25.6987 N.pl3   1  UNL1       -0.3015
     19 C          -8.9190  -16.6974   24.7133 C.ar    1  UNL1        0.0482
     20 C          -9.6432  -17.9538   25.0966 C.ar    1  UNL1        0.0154
     21 C         -10.5533  -18.6252   24.1112 C.ar    1  UNL1        0.0127
     22 C         -10.7392  -18.0402   22.7426 C.ar    1  UNL1        0.0578
     23 CL        -11.6493  -18.7116   21.7572 Cl      1  UNL1       -0.0822
     24 C         -10.0150  -16.7838   22.3593 C.ar    1  UNL1        0.0127
     25 C          -9.1049  -16.1124   23.3446 C.ar    1  UNL1        0.0154
@<TRIPOS>BOND
     1    10    11    1
     2    11    12    1
     3    11    13    1
     4    11     5    1
     5     5     6   ar
     6     6     7   ar
     7     7     1    1
     8     1     2   am
     9     2     3    2
    10    14     2    1
    11    14    15    1
    12    15    16    1
    13    16    17    1
    14    17    18    1
    15    18    19    1
    16    19    20   ar
    17    20    21   ar
    18    21    22   ar
    19    22    23    1
    20    22    24   ar
    21    24    25   ar
    22     7     8   ar
    23     8     9   ar
    24     9     5   ar
    25    18    14    1
    26    25    19   ar
    27     1     4    1
@<TRIPOS>MOLECULE
*****
 25 27 0 0 0
SMALL
GASTEIGER

@<TRIPOS>ATOM
      1 N         -13.5634   -8.4123   19.0023 N.am    1  UNL1       -0.2654
      2 C         -13.1649   -7.1990   18.2157 C.2     1  UNL1        0.2453
      3 O         -14.1149   -6.6074   17.2169 O.2     1  UNL1       -0.2730
      4 H         -12.9399   -8.8007   19.6578 H       1  UNL1        0.1564
      5 C         -17.3073   -9.4222   18.8333 C.ar    1  UNL1        0.1549
      6 C         -16.2228   -8.4793   19.2633 C.ar    1  UNL1        0.0733
      7 C         -14.9119   -9.0341   18.7903 C.ar    1  UNL1        0.1760
      8 N         -15.1863  -10.3198   18.0679 N.ar    1  UNL1       -0.0621
      9 O         -16.6667  -10.5596   18.0945 O.2     1  UNL1       -0.3565
     10 C         -18.4684   -8.2797   20.1922 C.3     1  UNL1        0.0076
     11 C         -18.7749   -9.2566   19.0960 C.3     1  UNL1        0.0539
     12 C         -19.0813  -10.2336   17.9998 C.3     1  UNL1        0.0076
     13 C         -20.2424   -9.0911   19.3587 C.3     1  UNL1        0.0076
     14 C         -11.8164   -6.5772   18.4277 C.3     1  UNL1        0.1502
     15 C         -10.4926   -7.2564   18.2375 C.3     1  UNL1        0.0309
     16 C          -9.4130   -6.2660   18.5594 C.3     1  UNL1        0.0236
     17 C         -10.0696   -4.9748   18.9487 C.3     1  UNL1        0.0912
     18 N         -11.5549   -5.1671   18.8673 N.pl3   1  UNL1       -0.3015
     19 C         -12.5962   -4.1311   19.1720 C.ar    1  UNL1        0.0482
     20 C         -13.4844   -4.2903   20.3702 C.ar    1  UNL1        0.0154
     21 C         -14.5255   -3.2544   20.6748 C.ar    1  UNL1        0.0127
     22 C         -14.6784   -2.0593   19.7812 C.ar    1  UNL1        0.0578
     23 CL        -15.7197   -1.0233   20.0859 Cl      1  UNL1       -0.0822
     24 C         -13.7902   -1.9001   18.5831 C.ar    1  UNL1        0.0127
     25 C         -12.7491   -2.9361   18.2784 C.ar    1  UNL1        0.0154
@<TRIPOS>BOND
     1    10    11    1
     2    11    12    1
     3    11    13    1
     4    11     5    1
     5     5     6   ar
     6     6     7   ar
     7     7     1    1
     8     1     2   am
     9     2     3    2
    10    14     2    1
    11    14    15    1
    12    15    16    1
    13    16    17    1
    14    17    18    1
    15    18    19    1
    16    19    20   ar
    17    20    21   ar
    18    21    22   ar
    19    22    23    1
    20    22    24   ar
    21    24    25   ar
    22     7     8   ar
    23     8     9   ar
    24     9     5   ar
    25    18    14    1
    26    25    19   ar
    27     1     4    1
@<TRIPOS>MOLECULE
*****
 25 27 0 0 0
SMALL
GASTEIGER

@<TRIPOS>ATOM
      1 N          -6.3140  -20.0795   22.3546 N.am    1  UNL1       -0.2654
      2 C          -7.6781  -19.6030   21.9521 C.2     1  UNL1        0.2453
      3 O          -7.8809  -18.9512   20.6165 O.2     1  UNL1       -0.2730
      4 H          -6.1808  -20.5073   23.2313 H       1  UNL1        0.1564
      5 C          -3.0980  -19.0863   20.4217 C.ar    1  UNL1        0.1549
      6 C          -4.0371  -18.9140   21.5787 C.ar    1  UNL1        0.0733
      7 C          -5.1527  -19.9043   21.4215 C.ar    1  UNL1        0.1760
      8 N          -4.9032  -20.6886   20.1674 N.ar    1  UNL1       -0.0621
      9 O          -3.6333  -20.1830   19.5495 O.2     1  UNL1       -0.3565
     10 C          -1.3315  -18.7006   21.5310 C.3     1  UNL1        0.0076
     11 C          -1.8438  -18.2999   20.1794 C.3     1  UNL1        0.0539
     12 C          -2.3562  -17.8992   18.8278 C.3     1  UNL1        0.0076
     13 C          -0.5897  -17.5135   19.9372 C.3     1  UNL1        0.0076
     14 C          -8.8394  -19.7782   22.8852 C.3     1  UNL1        0.1502
     15 C          -8.8902  -20.7022   24.0658 C.3     1  UNL1        0.0309
     16 C         -10.2360  -20.5553   24.7118 C.3     1  UNL1        0.0236
     17 C         -11.0169  -19.5405   23.9305 C.3     1  UNL1        0.0912
     18 N         -10.1537  -19.0602   22.8016 N.pl3   1  UNL1       -0.3015
     19 C         -10.5376  -18.0410   21.7702 C.ar    1  UNL1        0.0482
     20 C         -11.2557  -18.4681   20.5245 C.ar    1  UNL1        0.0154
     21 C         -11.6395  -17.4489   19.4932 C.ar    1  UNL1        0.0127
     22 C         -11.3051  -16.0024   19.7075 C.ar    1  UNL1        0.0578
     23 CL        -11.6889  -14.9831   18.6760 Cl      1  UNL1       -0.0822
     24 C         -10.5870  -15.5752   20.9532 C.ar    1  UNL1        0.0127
     25 C         -10.2032  -16.5945   21.9845 C.ar    1  UNL1        0.0154
@<TRIPOS>BOND
     1    10    11    1
     2    11    12    1
     3    11    13    1
     4    11     5    1
     5     5     6   ar
     6     6     7   ar
     7     7     1    1
     8     1     2   am
     9     2     3    2
    10    14     2    1
    11    14    15    1
    12    15    16    1
    13    16    17    1
    14    17    18    1
    15    18    19    1
    16    19    20   ar
    17    20    21   ar
    18    21    22   ar
    19    22    23    1
    20    22    24   ar
    21    24    25   ar
    22     7     8   ar
    23     8     9   ar
    24     9     5   ar
    25    18    14    1
    26    25    19   ar
    27     1     4    1
@<TRIPOS>MOLECULE
*****
 25 27 0 0 0
SMALL
GASTEIGER

@<TRIPOS>ATOM
      1 N          -5.5871  -17.3020   22.6496 N.am    1  UNL1       -0.2654
      2 C          -4.4968  -18.3270   22.7514 C.2     1  UNL1        0.2453
      3 O          -3.6733  -18.4241   24.0014 O.2     1  UNL1       -0.2730
      4 H          -6.1276  -17.2382   21.8292 H       1  UNL1        0.1564
      5 C          -6.8831  -15.3353   25.7347 C.ar    1  UNL1        0.1549
      6 C          -7.0113  -16.4580   24.7482 C.ar    1  UNL1        0.0733
      7 C          -5.8541  -16.3742   23.7976 C.ar    1  UNL1        0.1760
      8 N          -5.0106  -15.1996   24.1965 N.ar    1  UNL1       -0.0621
      9 O          -5.6466  -14.5576   25.3936 O.2     1  UNL1       -0.3565
     10 C          -6.6592  -14.7914   27.7728 C.3     1  UNL1        0.0076
     11 C          -7.8258  -15.0418   26.8639 C.3     1  UNL1        0.0539
     12 C          -8.9925  -15.2923   25.9550 C.3     1  UNL1        0.0076
     13 C          -8.7686  -14.7483   27.9931 C.3     1  UNL1        0.0076
     14 C          -4.2298  -19.2547   21.6034 C.3     1  UNL1        0.1502
     15 C          -2.8788  -19.6673   21.0991 C.3     1  UNL1        0.0309
     16 C          -3.0810  -20.6004   19.9421 C.3     1  UNL1        0.0236
     17 C          -4.5571  -20.7645   19.7315 C.3     1  UNL1        0.0912
     18 N          -5.2671  -19.9329   20.7583 N.pl3   1  UNL1       -0.3015
     19 C          -6.7534  -19.8022   20.9128 C.ar    1  UNL1        0.0482
     20 C          -7.3861  -19.9826   22.2608 C.ar    1  UNL1        0.0154
     21 C          -8.8723  -19.8520   22.4152 C.ar    1  UNL1        0.0127
     22 C          -9.7259  -19.5409   21.2216 C.ar    1  UNL1        0.0578
     23 CL        -11.2123  -19.4102   21.3761 Cl      1  UNL1       -0.0822
     24 C          -9.0933  -19.3605   19.8736 C.ar    1  UNL1        0.0127
     25 C          -7.6070  -19.4911   19.7192 C.ar    1  UNL1        0.0154
@<TRIPOS>BOND
     1    10    11    1
     2    11    12    1
     3    11    13    1
     4    11     5    1
     5     5     6   ar
     6     6     7   ar
     7     7     1    1
     8     1     2   am
     9     2     3    2
    10    14     2    1
    11    14    15    1
    12    15    16    1
    13    16    17    1
    14    17    18    1
    15    18    19    1
    16    19    20   ar
    17    20    21   ar
    18    21    22   ar
    19    22    23    1
    20    22    24   ar
    21    24    25   ar
    22     7     8   ar
    23     8     9   ar
    24     9     5   ar
    25    18    14    1
    26    25    19   ar
    27     1     4    1
@<TRIPOS>MOLECULE
*****
 25 27 0 0 0
SMALL
GASTEIGER

@<TRIPOS>ATOM
      1 N          -9.1073  -18.6602   23.5321 N.am    1  UNL1       -0.2654
      2 C          -8.9541  -17.9240   22.2342 C.2     1  UNL1        0.2453
      3 O          -8.6151  -16.4629   22.2363 O.2     1  UNL1       -0.2730
      4 H          -9.3299  -19.6192   23.5307 H       1  UNL1        0.1564
      5 C          -8.1354  -16.3650   26.5075 C.ar    1  UNL1        0.1549
      6 C          -8.0031  -16.7735   25.0702 C.ar    1  UNL1        0.0733
      7 C          -8.9215  -17.9353   24.8320 C.ar    1  UNL1        0.1760
      8 N          -9.6215  -18.2448   26.1221 N.ar    1  UNL1       -0.0621
      9 O          -9.1357  -17.2744   27.1575 O.2     1  UNL1       -0.3565
     10 C          -6.1310  -15.6709   26.4956 C.3     1  UNL1        0.0076
     11 C          -7.3972  -15.2440   27.1771 C.3     1  UNL1        0.0539
     12 C          -8.6634  -14.8172   27.8586 C.3     1  UNL1        0.0076
     13 C          -6.6589  -14.1230   27.8466 C.3     1  UNL1        0.0076
     14 C          -9.1400  -18.6490   20.9342 C.3     1  UNL1        0.1502
     15 C         -10.4371  -18.8295   20.2030 C.3     1  UNL1        0.0309
     16 C         -10.1601  -19.6128   18.9541 C.3     1  UNL1        0.0236
     17 C          -8.6917  -19.9163   18.9135 C.3     1  UNL1        0.0912
     18 N          -8.0612  -19.3207   20.1373 N.pl3   1  UNL1       -0.3015
     19 C          -6.6072  -19.3854   20.5004 C.ar    1  UNL1        0.0482
     20 C          -6.1985  -19.7448   21.8981 C.ar    1  UNL1        0.0154
     21 C          -4.7446  -19.8095   22.2612 C.ar    1  UNL1        0.0127
     22 C          -3.6994  -19.5148   21.2265 C.ar    1  UNL1        0.0578
     23 CL         -2.2454  -19.5795   21.5896 Cl      1  UNL1       -0.0822
     24 C          -4.1080  -19.1554   19.8288 C.ar    1  UNL1        0.0127
     25 C          -5.5620  -19.0907   19.4657 C.ar    1  UNL1        0.0154
@<TRIPOS>BOND
     1    10    11    1
     2    11    12    1
     3    11    13    1
     4    11     5    1
     5     5     6   ar
     6     6     7   ar
     7     7     1    1
     8     1     2   am
     9     2     3    2
    10    14     2    1
    11    14    15    1
    12    15    16    1
    13    16    17    1
    14    17    18    1
    15    18    19    1
    16    19    20   ar
    17    20    21   ar
    18    21    22   ar
    19    22    23    1
    20    22    24   ar
    21    24    25   ar
    22     7     8   ar
    23     8     9   ar
    24     9     5   ar
    25    18    14    1
    26    25    19   ar
    27     1     4    1
@<TRIPOS>MOLECULE
*****
 25 27 0 0 0
SMALL
GASTEIGER

@<TRIPOS>ATOM
      1 N         -14.8987   -4.3066   18.0255 N.am    1  UNL1       -0.2654
      2 C         -14.3197   -3.3366   19.0123 C.2     1  UNL1        0.2453
      3 O         -14.7731   -3.3607   20.4420 O.2     1  UNL1       -0.2730
      4 H         -14.6011   -4.2907   17.0872 H       1  UNL1        0.1564
      5 C         -17.0982   -7.3887   18.8785 C.ar    1  UNL1        0.1549
      6 C         -15.8561   -6.7882   18.2898 C.ar    1  UNL1        0.0733
      7 C         -15.9309   -5.3007   18.4683 C.ar    1  UNL1        0.1760
      8 N         -17.2193   -4.9819   19.1673 N.ar    1  UNL1       -0.0621
      9 O         -17.9407   -6.2724   19.4208 O.2     1  UNL1       -0.3565
     10 C         -18.3389   -8.6715   17.7319 C.3     1  UNL1        0.0076
     11 C         -17.4382   -8.8491   18.9180 C.3     1  UNL1        0.0539
     12 C         -16.5374   -9.0268   20.1042 C.3     1  UNL1        0.0076
     13 C         -17.7781  -10.3096   18.9575 C.3     1  UNL1        0.0076
     14 C         -13.2874   -2.3424   18.5696 C.3     1  UNL1        0.1502
     15 C         -13.4912   -0.8630   18.4294 C.3     1  UNL1        0.0309
     16 C         -12.1998   -0.2594   17.9624 C.3     1  UNL1        0.0236
     17 C         -11.1979   -1.3658   17.8140 C.3     1  UNL1        0.0912
     18 N         -11.8701   -2.6532   18.1893 N.pl3   1  UNL1       -0.3015
     19 C         -11.2362   -4.0127   18.1850 C.ar    1  UNL1        0.0482
     20 C         -11.6772   -5.0427   17.1876 C.ar    1  UNL1        0.0154
     21 C         -11.0433   -6.4021   17.1834 C.ar    1  UNL1        0.0127
     22 C          -9.9685   -6.7316   18.1764 C.ar    1  UNL1        0.0578
     23 CL         -9.3346   -8.0912   18.1721 Cl      1  UNL1       -0.0822
     24 C          -9.5275   -5.7017   19.1738 C.ar    1  UNL1        0.0127
     25 C         -10.1614   -4.3422   19.1780 C.ar    1  UNL1        0.0154
@<TRIPOS>BOND
     1    10    11    1
     2    11    12    1
     3    11    13    1
     4    11     5    1
     5     5     6   ar
     6     6     7   ar
     7     7     1    1
     8     1     2   am
     9     2     3    2
    10    14     2    1
    11    14    15    1
    12    15    16    1
    13    16    17    1
    14    17    18    1
    15    18    19    1
    16    19    20   ar
    17    20    21   ar
    18    21    22   ar
    19    22    23    1
    20    22    24   ar
    21    24    25   ar
    22     7     8   ar
    23     8     9   ar
    24     9     5   ar
    25    18    14    1
    26    25    19   ar
    27     1     4    1
