@<TRIPOS>MOLECULE
*****
 42 47 0 0 0
SMALL
GASTEIGER

@<TRIPOS>ATOM
      1 N           1.2977    2.0195   29.9894 N.am    1  UNL1       -0.1907
      2 C           2.3319    0.9370   30.0829 C.2     1  UNL1        0.3231
      3 O           2.7286   -0.0007   28.9815 O.2     1  UNL1       -0.2511
      4 N           2.8996    0.9569   31.4711 N.am    1  UNL1       -0.2071
      5 C           2.2163    2.0517   32.2358 C.3     1  UNL1        0.1405
      6 C           1.4512    3.1755   32.8695 C.3     1  UNL1        0.0450
      7 C           1.7121    3.5481   34.2988 C.3     1  UNL1        0.0746
      8 N           2.7381    2.7970   35.0944 N.3     1  UNL1       -0.2676
      9 C           3.5033    1.6732   34.4607 C.3     1  UNL1        0.0746
     10 C           3.2423    1.3006   33.0314 C.3     1  UNL1        0.0450
     11 C           1.2263    2.7084   31.3200 C.2     1  UNL1        0.2529
     12 O           0.3234    3.8531   31.6728 O.2     1  UNL1       -0.2724
     13 C          -1.1591    3.0239   26.3556 C.ar    1  UNL1       -0.0002
     14 C          -0.3680    4.0953   27.0456 C.ar    1  UNL1        0.0013
     15 C           0.4510    3.7605   28.2569 C.ar    1  UNL1        0.0154
     16 C           0.4788    2.3543   28.7781 C.ar    1  UNL1        0.0622
     17 C          -0.3123    1.2829   28.0881 C.ar    1  UNL1        0.0154
     18 C          -1.1313    1.6177   26.8768 C.ar    1  UNL1        0.0013
     19 C          -4.0197    3.8727   26.6666 C.3     1  UNL1        0.0310
     20 C          -3.4083    3.7831   25.2998 C.ar    1  UNL1       -0.0218
     21 C          -4.2273    4.1179   24.0885 C.ar    1  UNL1       -0.0031
     22 C          -3.6160    4.0283   22.7217 C.ar    1  UNL1        0.0137
     23 C          -2.1856    3.6039   22.5661 C.ar    1  UNL1        0.0011
     24 C          -1.3667    3.2691   23.7774 C.ar    1  UNL1       -0.0003
     25 C          -1.9780    3.3587   25.1443 C.ar    1  UNL1       -0.0040
     26 C          -4.4349    4.3631   21.5104 C.2     1  UNL1        0.0729
     27 O          -4.7948    3.2883   20.5279 O.co2   1  UNL1       -0.5446
     28 O          -4.8939    5.7727   21.2815 O.co2   1  UNL1       -0.5446
     29 C           3.9637    0.0426   32.0017 C.ar    1  UNL1        0.2276
     30 N           5.4077    0.4373   31.9064 N.ar    1  UNL1       -0.2117
     31 C           6.4718   -0.4771   32.4371 C.ar    1  UNL1        0.1034
     32 C           6.0919   -1.7863   33.0630 C.ar    1  UNL1        0.0414
     33 C           4.6480   -2.1811   33.1583 C.ar    1  UNL1        0.1034
     34 N           3.5839   -1.2667   32.6277 N.ar    1  UNL1       -0.2117
     35 C           2.9990    3.1696   36.5238 C.3     1  UNL1        0.1183
     36 C           2.2424    2.4898   37.6262 C.ar    1  UNL1        0.0712
     37 N           0.9576    3.0791   38.1283 N.ar    1  UNL1       -0.2471
     38 C           0.2010    2.3992   39.2308 C.ar    1  UNL1        0.0985
     39 C           0.7292    1.1302   39.8311 C.ar    1  UNL1        0.0203
     40 C           2.0140    0.5409   39.3290 C.ar    1  UNL1       -0.0015
     41 C           2.7706    1.2207   38.2266 C.ar    1  UNL1       -0.0069
     42 C           4.0554    0.6314   37.7246 C.3     1  UNL1        0.0323
@<TRIPOS>UNITY_ATOM_ATTR
27 1
charge -1
@<TRIPOS>BOND
     1    19    20    1
     2    20    21   ar
     3    21    22   ar
     4    22    26    1
     5    26    27   ar
     6    26    28   ar
     7    22    23   ar
     8    23    24   ar
     9    24    25   ar
    10    25    13    1
    11    13    14   ar
    12    14    15   ar
    13    15    16   ar
    14    16     1    1
    15     1     2   am
    16     2     3    2
    17     2     4   am
    18     4    29    1
    19    29    30   ar
    20    30    31   ar
    21    31    32   ar
    22    32    33   ar
    23    33    34   ar
    24     4     5    1
    25     5     6    1
    26     6     7    1
    27     7     8    1
    28     8    35    1
    29    35    36    1
    30    36    37   ar
    31    37    38   ar
    32    38    39   ar
    33    39    40   ar
    34    40    41   ar
    35    41    42    1
    36     8     9    1
    37     9    10    1
    38     5    11    1
    39    11    12    2
    40    16    17   ar
    41    17    18   ar
    42    25    20   ar
    43    18    13   ar
    44    11     1   am
    45    34    29   ar
    46    10     5    1
    47    41    36   ar
@<TRIPOS>MOLECULE
*****
 42 47 0 0 0
SMALL
GASTEIGER

@<TRIPOS>ATOM
      1 N           1.4269    1.5056   30.2346 N.am    1  UNL1       -0.1907
      2 C           2.4516    0.4135   30.1482 C.2     1  UNL1        0.3231
      3 O           2.7480   -0.4236   28.9394 O.2     1  UNL1       -0.2511
      4 N           3.1278    0.3057   31.4827 N.am    1  UNL1       -0.2071
      5 C           2.5211    1.3311   32.3941 C.3     1  UNL1        0.1405
      6 C           1.8228    2.3976   33.1846 C.3     1  UNL1        0.0450
      7 C           2.2009    2.6390   34.6159 C.3     1  UNL1        0.0746
      8 N           3.2774    1.8140   35.2567 N.3     1  UNL1       -0.2676
      9 C           3.9757    0.7475   34.4661 C.3     1  UNL1        0.0746
     10 C           3.5976    0.5061   33.0348 C.3     1  UNL1        0.0450
     11 C           1.4699    2.0727   31.6227 C.2     1  UNL1        0.2529
     12 O           0.6122    3.1859   32.1473 O.2     1  UNL1       -0.2724
     13 C          -1.2977    2.8453   26.9133 C.ar    1  UNL1       -0.0002
     14 C          -1.3495    1.4274   27.4000 C.ar    1  UNL1        0.0013
     15 C          -0.4413    0.9808   28.5072 C.ar    1  UNL1        0.0154
     16 C           0.5187    1.9522   29.1275 C.ar    1  UNL1        0.0622
     17 C           0.5705    3.3700   28.6408 C.ar    1  UNL1        0.0154
     18 C          -0.3377    3.8165   27.5336 C.ar    1  UNL1        0.0013
     19 C          -0.3175    2.8475   24.0778 C.3     1  UNL1        0.0310
     20 C          -1.7158    3.2929   24.3885 C.ar    1  UNL1       -0.0218
     21 C          -2.6240    3.7395   23.2813 C.ar    1  UNL1       -0.0031
     22 C          -4.0223    4.1850   23.5918 C.ar    1  UNL1        0.0137
     23 C          -4.5124    4.1838   25.0096 C.ar    1  UNL1        0.0011
     24 C          -3.6042    3.7373   26.1167 C.ar    1  UNL1       -0.0003
     25 C          -2.2059    3.2918   25.8061 C.ar    1  UNL1       -0.0040
     26 C          -4.9305    4.6315   22.4847 C.2     1  UNL1        0.0729
     27 O          -4.3581    5.0029   21.1488 O.co2   1  UNL1       -0.5446
     28 O          -6.4111    4.7068   22.7134 O.co2   1  UNL1       -0.5446
     29 C           4.2192   -0.6582   31.8428 C.ar    1  UNL1        0.2276
     30 N           3.8781   -1.9770   32.4710 N.ar    1  UNL1       -0.2117
     31 C           4.9695   -2.9409   32.8310 C.ar    1  UNL1        0.1034
     32 C           6.4021   -2.5861   32.5630 C.ar    1  UNL1        0.0414
     33 C           6.7432   -1.2674   31.9348 C.ar    1  UNL1        0.1034
     34 N           5.6518   -0.3035   31.5748 N.ar    1  UNL1       -0.2117
     35 C           3.6555    2.0554   36.6881 C.3     1  UNL1        0.1183
     36 C           2.6429    1.8523   37.7758 C.ar    1  UNL1        0.0712
     37 N           2.5237    0.5176   38.4498 N.ar    1  UNL1       -0.2471
     38 C           1.5109    0.3145   39.5376 C.ar    1  UNL1        0.0985
     39 C           0.6175    1.4461   39.9514 C.ar    1  UNL1        0.0203
     40 C           0.7368    2.7808   39.2774 C.ar    1  UNL1       -0.0015
     41 C           1.7494    2.9839   38.1897 C.ar    1  UNL1       -0.0069
     42 C           1.8686    4.3187   37.5157 C.3     1  UNL1        0.0323
@<TRIPOS>UNITY_ATOM_ATTR
27 1
charge -1
@<TRIPOS>BOND
     1    19    20    1
     2    20    21   ar
     3    21    22   ar
     4    22    26    1
     5    26    27   ar
     6    26    28   ar
     7    22    23   ar
     8    23    24   ar
     9    24    25   ar
    10    25    13    1
    11    13    14   ar
    12    14    15   ar
    13    15    16   ar
    14    16     1    1
    15     1     2   am
    16     2     3    2
    17     2     4   am
    18     4    29    1
    19    29    30   ar
    20    30    31   ar
    21    31    32   ar
    22    32    33   ar
    23    33    34   ar
    24     4     5    1
    25     5     6    1
    26     6     7    1
    27     7     8    1
    28     8    35    1
    29    35    36    1
    30    36    37   ar
    31    37    38   ar
    32    38    39   ar
    33    39    40   ar
    34    40    41   ar
    35    41    42    1
    36     8     9    1
    37     9    10    1
    38     5    11    1
    39    11    12    2
    40    16    17   ar
    41    17    18   ar
    42    25    20   ar
    43    18    13   ar
    44    11     1   am
    45    34    29   ar
    46    10     5    1
    47    41    36   ar
@<TRIPOS>MOLECULE
*****
 42 47 0 0 0
SMALL
GASTEIGER

@<TRIPOS>ATOM
      1 N           2.0466    0.3181   23.4618 N.am    1  UNL1       -0.1907
      2 C           2.2452   -0.0682   22.0260 C.2     1  UNL1        0.3231
      3 O           1.3645    0.3250   20.8773 O.2     1  UNL1       -0.2511
      4 N           3.4791   -0.9168   21.9406 N.am    1  UNL1       -0.2071
      5 C           4.0433   -1.0550   23.3237 C.3     1  UNL1        0.1405
      6 C           4.4878   -1.1039   24.7555 C.3     1  UNL1        0.0450
      7 C           5.7207   -1.8706   25.1322 C.3     1  UNL1        0.0746
      8 N           6.5091   -2.5885   24.0772 N.3     1  UNL1       -0.2676
      9 C           6.0646   -2.5396   22.6454 C.3     1  UNL1        0.0746
     10 C           4.8317   -1.7729   22.2687 C.3     1  UNL1        0.0450
     11 C           3.1580   -0.2918   24.2638 C.2     1  UNL1        0.2529
     12 O           3.3501   -0.1614   25.7457 O.2     1  UNL1       -0.2724
     13 C          -1.2958    2.8601   25.0791 C.ar    1  UNL1       -0.0002
     14 C          -0.7094    3.1608   23.7316 C.ar    1  UNL1        0.0013
     15 C           0.4047    2.3134   23.1925 C.ar    1  UNL1        0.0154
     16 C           0.9325    1.1654   24.0009 C.ar    1  UNL1        0.0622
     17 C           0.3461    0.8648   25.3483 C.ar    1  UNL1        0.0154
     18 C          -0.7680    1.7121   25.8874 C.ar    1  UNL1        0.0013
     19 C          -0.7209    4.9548   27.1484 C.3     1  UNL1        0.0310
     20 C          -2.1225    4.7548   26.6528 C.ar    1  UNL1       -0.0218
     21 C          -3.2367    5.6022   27.1920 C.ar    1  UNL1       -0.0031
     22 C          -4.6383    5.4022   26.6964 C.ar    1  UNL1        0.0137
     23 C          -4.9257    4.3548   25.6618 C.ar    1  UNL1        0.0011
     24 C          -3.8116    3.5074   25.1227 C.ar    1  UNL1       -0.0003
     25 C          -2.4100    3.7074   25.6182 C.ar    1  UNL1       -0.0040
     26 C          -5.7525    6.2495   27.2355 C.2     1  UNL1        0.0729
     27 O          -6.5162    5.8023   28.4466 O.co2   1  UNL1       -0.5446
     28 O          -6.1028    7.5440   26.5636 O.co2   1  UNL1       -0.5446
     29 C           4.0490   -1.5211   20.6917 C.ar    1  UNL1        0.2276
     30 N           3.6085   -2.8852   20.2499 N.ar    1  UNL1       -0.2117
     31 C           4.1784   -3.4894   19.0009 C.ar    1  UNL1        0.1034
     32 C           5.1888   -2.7296   18.1935 C.ar    1  UNL1        0.0414
     33 C           5.6293   -1.3655   18.6353 C.ar    1  UNL1        0.1034
     34 N           5.0594   -0.7613   19.8843 N.ar    1  UNL1       -0.2117
     35 C           7.7421   -3.3552   24.4540 C.3     1  UNL1        0.1183
     36 C           7.6310   -4.7848   24.8944 C.ar    1  UNL1        0.0712
     37 N           6.9725   -5.1183   26.2002 N.ar    1  UNL1       -0.2471
     38 C           6.8614   -6.5479   26.6406 C.ar    1  UNL1        0.0985
     39 C           7.4087   -7.6440   25.7751 C.ar    1  UNL1        0.0203
     40 C           8.0671   -7.3105   24.4693 C.ar    1  UNL1       -0.0015
     41 C           8.1783   -5.8809   24.0289 C.ar    1  UNL1       -0.0069
     42 C           8.8367   -5.5475   22.7230 C.3     1  UNL1        0.0323
@<TRIPOS>UNITY_ATOM_ATTR
27 1
charge -1
@<TRIPOS>BOND
     1    19    20    1
     2    20    21   ar
     3    21    22   ar
     4    22    26    1
     5    26    27   ar
     6    26    28   ar
     7    22    23   ar
     8    23    24   ar
     9    24    25   ar
    10    25    13    1
    11    13    14   ar
    12    14    15   ar
    13    15    16   ar
    14    16     1    1
    15     1     2   am
    16     2     3    2
    17     2     4   am
    18     4    29    1
    19    29    30   ar
    20    30    31   ar
    21    31    32   ar
    22    32    33   ar
    23    33    34   ar
    24     4     5    1
    25     5     6    1
    26     6     7    1
    27     7     8    1
    28     8    35    1
    29    35    36    1
    30    36    37   ar
    31    37    38   ar
    32    38    39   ar
    33    39    40   ar
    34    40    41   ar
    35    41    42    1
    36     8     9    1
    37     9    10    1
    38     5    11    1
    39    11    12    2
    40    16    17   ar
    41    17    18   ar
    42    25    20   ar
    43    18    13   ar
    44    11     1   am
    45    34    29   ar
    46    10     5    1
    47    41    36   ar
@<TRIPOS>MOLECULE
*****
 42 47 0 0 0
SMALL
GASTEIGER

@<TRIPOS>ATOM
      1 N           2.3347    0.8261   30.5033 N.am    1  UNL1       -0.1907
      2 C           3.4155   -0.1801   30.2394 C.2     1  UNL1        0.3231
      3 O           3.6912   -0.8542   28.9282 O.2     1  UNL1       -0.2511
      4 N           4.1720   -0.3936   31.5169 N.am    1  UNL1       -0.2071
      5 C           3.5589    0.4806   32.5705 C.3     1  UNL1        0.1405
      6 C           2.8451    1.4031   33.5135 C.3     1  UNL1        0.0450
      7 C           3.2895    1.5055   34.9425 C.3     1  UNL1        0.0746
      8 N           4.4476    0.6853   35.4284 N.3     1  UNL1       -0.2676
      9 C           5.1614   -0.2372   34.4853 C.3     1  UNL1        0.0746
     10 C           4.7170   -0.3395   33.0563 C.3     1  UNL1        0.0450
     11 C           2.4233    1.2344   31.9441 C.2     1  UNL1        0.2529
     12 O           1.5328    2.2229   32.6367 O.2     1  UNL1       -0.2724
     13 C          -0.6495    2.3517   27.5006 C.ar    1  UNL1       -0.0002
     14 C          -0.7125    0.9261   27.9628 C.ar    1  UNL1        0.0013
     15 C           0.2823    0.4175   28.9637 C.ar    1  UNL1        0.0154
     16 C           1.3399    1.3346   29.5024 C.ar    1  UNL1        0.0622
     17 C           1.4028    2.7602   29.0403 C.ar    1  UNL1        0.0154
     18 C           0.4081    3.2688   28.0394 C.ar    1  UNL1        0.0013
     19 C          -0.0129    2.2544   24.5705 C.3     1  UNL1        0.0310
     20 C          -1.3259    2.8116   25.0347 C.ar    1  UNL1       -0.0218
     21 C          -2.3207    3.3202   24.0337 C.ar    1  UNL1       -0.0031
     22 C          -3.6338    3.8774   24.4978 C.ar    1  UNL1        0.0137
     23 C          -3.9521    3.9261   25.9629 C.ar    1  UNL1        0.0011
     24 C          -2.9573    3.4175   26.9638 C.ar    1  UNL1       -0.0003
     25 C          -1.6443    2.8603   26.4997 C.ar    1  UNL1       -0.0040
     26 C          -4.6285    4.3859   23.4969 C.2     1  UNL1        0.0729
     27 O          -4.3864    4.1850   22.0302 O.co2   1  UNL1       -0.5446
     28 O          -5.8654    5.0955   23.9626 O.co2   1  UNL1       -0.5446
     29 C           5.3372   -1.3188   31.7074 C.ar    1  UNL1        0.2276
     30 N           6.7286   -0.8439   31.4099 N.ar    1  UNL1       -0.2117
     31 C           7.8937   -1.7692   31.6006 C.ar    1  UNL1        0.1034
     32 C           7.6675   -3.1694   32.0887 C.ar    1  UNL1        0.0414
     33 C           6.2761   -3.6443   32.3862 C.ar    1  UNL1        0.1034
     34 N           5.1110   -2.7190   32.1955 N.ar    1  UNL1       -0.2117
     35 C           4.8920    0.7878   36.8575 C.3     1  UNL1        0.1183
     36 C           4.6427    2.0479   37.6319 C.ar    1  UNL1        0.0712
     37 N           5.6039    3.1947   37.5281 N.ar    1  UNL1       -0.2471
     38 C           5.3546    4.4549   38.3026 C.ar    1  UNL1        0.0985
     39 C           4.1440    4.5682   39.1809 C.ar    1  UNL1        0.0203
     40 C           3.1827    3.4214   39.2848 C.ar    1  UNL1       -0.0015
     41 C           3.4320    2.1613   38.5103 C.ar    1  UNL1       -0.0069
     42 C           2.4707    1.0145   38.6142 C.3     1  UNL1        0.0323
@<TRIPOS>UNITY_ATOM_ATTR
27 1
charge -1
@<TRIPOS>BOND
     1    19    20    1
     2    20    21   ar
     3    21    22   ar
     4    22    26    1
     5    26    27   ar
     6    26    28   ar
     7    22    23   ar
     8    23    24   ar
     9    24    25   ar
    10    25    13    1
    11    13    14   ar
    12    14    15   ar
    13    15    16   ar
    14    16     1    1
    15     1     2   am
    16     2     3    2
    17     2     4   am
    18     4    29    1
    19    29    30   ar
    20    30    31   ar
    21    31    32   ar
    22    32    33   ar
    23    33    34   ar
    24     4     5    1
    25     5     6    1
    26     6     7    1
    27     7     8    1
    28     8    35    1
    29    35    36    1
    30    36    37   ar
    31    37    38   ar
    32    38    39   ar
    33    39    40   ar
    34    40    41   ar
    35    41    42    1
    36     8     9    1
    37     9    10    1
    38     5    11    1
    39    11    12    2
    40    16    17   ar
    41    17    18   ar
    42    25    20   ar
    43    18    13   ar
    44    11     1   am
    45    34    29   ar
    46    10     5    1
    47    41    36   ar
@<TRIPOS>MOLECULE
*****
 42 47 0 0 0
SMALL
GASTEIGER

@<TRIPOS>ATOM
      1 N           6.4380   -2.3229   29.6932 N.am    1  UNL1       -0.1907
      2 C           6.8831   -3.7388   29.4757 C.2     1  UNL1        0.3231
      3 O           7.0526   -4.7829   30.5392 O.2     1  UNL1       -0.2511
      4 N           7.1289   -3.9271   28.0080 N.am    1  UNL1       -0.2071
      5 C           6.8357   -2.6277   27.3184 C.3     1  UNL1        0.1405
      6 C           6.5071   -1.2706   26.7704 C.3     1  UNL1        0.0450
      7 C           6.6209   -1.0086   25.2979 C.3     1  UNL1        0.0746
      8 N           7.0633   -2.1038   24.3733 N.3     1  UNL1       -0.2676
      9 C           7.3918   -3.4609   24.9212 C.3     1  UNL1        0.0746
     10 C           7.2780   -3.7229   26.3937 C.3     1  UNL1        0.0450
     11 C           6.4087   -1.6362   28.3599 C.2     1  UNL1        0.2529
     12 O           6.0206   -0.2087   28.1116 O.2     1  UNL1       -0.2724
     13 C           5.3770   -0.4620   33.6506 C.ar    1  UNL1       -0.0002
     14 C           4.6813   -1.7119   33.1990 C.ar    1  UNL1        0.0013
     15 C           5.0350   -2.3321   31.8798 C.ar    1  UNL1        0.0154
     16 C           6.0843   -1.7026   31.0124 C.ar    1  UNL1        0.0622
     17 C           6.7800   -0.4528   31.4640 C.ar    1  UNL1        0.0154
     18 C           6.4263    0.1674   32.7831 C.ar    1  UNL1        0.0013
     19 C           3.1312    1.5197   33.8223 C.3     1  UNL1        0.0310
     20 C           3.9005    1.1491   35.0556 C.ar    1  UNL1       -0.0218
     21 C           3.5467    1.7694   36.3748 C.ar    1  UNL1       -0.0031
     22 C           4.3159    1.3989   37.6081 C.ar    1  UNL1        0.0137
     23 C           5.4389    0.4080   37.5222 C.ar    1  UNL1        0.0011
     24 C           5.7925   -0.2123   36.2031 C.ar    1  UNL1       -0.0003
     25 C           5.0233    0.1583   34.9698 C.ar    1  UNL1       -0.0040
     26 C           3.9623    2.0192   38.9272 C.2     1  UNL1        0.0729
     27 O           2.5319    2.3393   39.2460 O.co2   1  UNL1       -0.5446
     28 O           5.0389    2.3193   39.9276 O.co2   1  UNL1       -0.5446
     29 C           7.5873   -5.1927   27.3461 C.ar    1  UNL1        0.2276
     30 N           6.5808   -6.2021   26.8793 N.ar    1  UNL1       -0.2117
     31 C           7.0393   -7.4676   26.2173 C.ar    1  UNL1        0.1034
     32 C           8.5044   -7.7238   26.0223 C.ar    1  UNL1        0.0414
     33 C           9.5109   -6.7144   26.4891 C.ar    1  UNL1        0.1034
     34 N           9.0524   -5.4489   27.1511 N.ar    1  UNL1       -0.2117
     35 C           7.1771   -1.8418   22.9007 C.3     1  UNL1        0.1183
     36 C           6.0789   -2.2741   21.9749 C.ar    1  UNL1        0.0712
     37 N           4.7868   -1.5132   21.9371 N.ar    1  UNL1       -0.2471
     38 C           3.6886   -1.9455   21.0113 C.ar    1  UNL1        0.0985
     39 C           3.8825   -3.1388   20.1234 C.ar    1  UNL1        0.0203
     40 C           5.1746   -3.8998   20.1612 C.ar    1  UNL1       -0.0015
     41 C           6.2728   -3.4675   21.0869 C.ar    1  UNL1       -0.0069
     42 C           7.5649   -4.2284   21.1248 C.3     1  UNL1        0.0323
@<TRIPOS>UNITY_ATOM_ATTR
27 1
charge -1
@<TRIPOS>BOND
     1    19    20    1
     2    20    21   ar
     3    21    22   ar
     4    22    26    1
     5    26    27   ar
     6    26    28   ar
     7    22    23   ar
     8    23    24   ar
     9    24    25   ar
    10    25    13    1
    11    13    14   ar
    12    14    15   ar
    13    15    16   ar
    14    16     1    1
    15     1     2   am
    16     2     3    2
    17     2     4   am
    18     4    29    1
    19    29    30   ar
    20    30    31   ar
    21    31    32   ar
    22    32    33   ar
    23    33    34   ar
    24     4     5    1
    25     5     6    1
    26     6     7    1
    27     7     8    1
    28     8    35    1
    29    35    36    1
    30    36    37   ar
    31    37    38   ar
    32    38    39   ar
    33    39    40   ar
    34    40    41   ar
    35    41    42    1
    36     8     9    1
    37     9    10    1
    38     5    11    1
    39    11    12    2
    40    16    17   ar
    41    17    18   ar
    42    25    20   ar
    43    18    13   ar
    44    11     1   am
    45    34    29   ar
    46    10     5    1
    47    41    36   ar
@<TRIPOS>MOLECULE
*****
 42 47 0 0 0
SMALL
GASTEIGER

@<TRIPOS>ATOM
      1 N           4.9204   -1.1510   27.9908 N.am    1  UNL1       -0.1907
      2 C           6.0577   -2.0673   27.6483 C.2     1  UNL1        0.3231
      3 O           7.0808   -2.5992   28.6075 O.2     1  UNL1       -0.2511
      4 N           5.9920   -2.3582   26.1783 N.am    1  UNL1       -0.2071
      5 C           4.8142   -1.6218   25.6121 C.3     1  UNL1        0.1405
      6 C           3.6101   -0.8324   25.1914 C.3     1  UNL1        0.0450
      7 C           3.1716   -0.8406   23.7570 C.3     1  UNL1        0.0746
      8 N           3.9372   -1.6382   22.7432 N.3     1  UNL1       -0.2676
      9 C           5.1413   -2.4275   23.1639 C.3     1  UNL1        0.0746
     10 C           5.5798   -2.4193   24.5983 C.3     1  UNL1        0.0450
     11 C           4.1519   -0.8757   26.7322 C.2     1  UNL1        0.2529
     12 O           2.9348   -0.0068   26.6146 O.2     1  UNL1       -0.2724
     13 C           3.9794    0.4845   32.0760 C.ar    1  UNL1       -0.0002
     14 C           5.3001    0.7877   31.4327 C.ar    1  UNL1        0.0013
     15 C           5.6138    0.2425   30.0709 C.ar    1  UNL1        0.0154
     16 C           4.6067   -0.6058   29.3525 C.ar    1  UNL1        0.0622
     17 C           3.2861   -0.9090   29.9957 C.ar    1  UNL1        0.0154
     18 C           2.9724   -0.3638   31.3575 C.ar    1  UNL1        0.0013
     19 C           5.2069   -0.7653   34.5114 C.3     1  UNL1        0.0310
     20 C           4.2795    0.4048   34.6554 C.ar    1  UNL1       -0.0218
     21 C           3.9658    0.9499   36.0172 C.ar    1  UNL1       -0.0031
     22 C           3.0383    2.1200   36.1613 C.ar    1  UNL1        0.0137
     23 C           2.4245    2.7449   34.9435 C.ar    1  UNL1        0.0011
     24 C           2.7382    2.1998   33.5818 C.ar    1  UNL1       -0.0003
     25 C           3.6657    1.0297   33.4377 C.ar    1  UNL1       -0.0040
     26 C           2.7246    2.6652   37.5230 C.2     1  UNL1        0.0729
     27 O           3.7984    2.7362   38.5680 O.co2   1  UNL1       -0.5446
     28 O           1.3372    3.1394   37.8398 O.co2   1  UNL1       -0.5446
     29 C           6.9380   -3.2321   25.4093 C.ar    1  UNL1        0.2276
     30 N           6.6730   -4.7039   25.2927 N.ar    1  UNL1       -0.2117
     31 C           7.6190   -5.5777   24.5237 C.ar    1  UNL1        0.1034
     32 C           8.8302   -4.9798   23.8713 C.ar    1  UNL1        0.0414
     33 C           9.0953   -3.5080   23.9879 C.ar    1  UNL1        0.1034
     34 N           8.1492   -2.6342   24.7569 N.ar    1  UNL1       -0.2117
     35 C           3.4987   -1.6464   21.3087 C.3     1  UNL1        0.1183
     36 C           4.5199   -1.7222   20.2127 C.ar    1  UNL1        0.0712
     37 N           5.5234   -0.6200   20.0450 N.ar    1  UNL1       -0.2471
     38 C           6.5446   -0.6959   18.9489 C.ar    1  UNL1        0.0985
     39 C           6.5623   -1.8740   18.0205 C.ar    1  UNL1        0.0203
     40 C           5.5588   -2.9762   18.1883 C.ar    1  UNL1       -0.0015
     41 C           4.5376   -2.9003   19.2843 C.ar    1  UNL1       -0.0069
     42 C           3.5341   -4.0025   19.4520 C.3     1  UNL1        0.0323
@<TRIPOS>UNITY_ATOM_ATTR
27 1
charge -1
@<TRIPOS>BOND
     1    19    20    1
     2    20    21   ar
     3    21    22   ar
     4    22    26    1
     5    26    27   ar
     6    26    28   ar
     7    22    23   ar
     8    23    24   ar
     9    24    25   ar
    10    25    13    1
    11    13    14   ar
    12    14    15   ar
    13    15    16   ar
    14    16     1    1
    15     1     2   am
    16     2     3    2
    17     2     4   am
    18     4    29    1
    19    29    30   ar
    20    30    31   ar
    21    31    32   ar
    22    32    33   ar
    23    33    34   ar
    24     4     5    1
    25     5     6    1
    26     6     7    1
    27     7     8    1
    28     8    35    1
    29    35    36    1
    30    36    37   ar
    31    37    38   ar
    32    38    39   ar
    33    39    40   ar
    34    40    41   ar
    35    41    42    1
    36     8     9    1
    37     9    10    1
    38     5    11    1
    39    11    12    2
    40    16    17   ar
    41    17    18   ar
    42    25    20   ar
    43    18    13   ar
    44    11     1   am
    45    34    29   ar
    46    10     5    1
    47    41    36   ar
@<TRIPOS>MOLECULE
*****
 42 47 0 0 0
SMALL
GASTEIGER

@<TRIPOS>ATOM
      1 N           1.9266    0.8180   28.8836 N.am    1  UNL1       -0.1907
      2 C           2.1622    0.7442   30.3632 C.2     1  UNL1        0.3231
      3 O           1.2951    1.3523   31.4254 O.2     1  UNL1       -0.2511
      4 N           3.4170   -0.0444   30.5940 N.am    1  UNL1       -0.2071
      5 C           3.9572   -0.4581   29.2571 C.3     1  UNL1        0.1405
      6 C           4.3746   -0.7968   27.8568 C.3     1  UNL1        0.0450
      7 C           5.6176   -1.6021   27.6188 C.3     1  UNL1        0.0746
      8 N           6.4430   -2.0686   28.7811 N.3     1  UNL1       -0.2676
      9 C           6.0255   -1.7299   30.1815 C.3     1  UNL1        0.0746
     10 C           4.7826   -0.9246   30.4194 C.3     1  UNL1        0.0450
     11 C           3.0360    0.0749   28.2000 C.2     1  UNL1        0.2529
     12 O           3.1961   -0.1037   26.7193 O.2     1  UNL1       -0.2724
     13 C          -1.5053    2.9026   26.8523 C.ar    1  UNL1       -0.0002
     14 C          -0.1580    3.5594   26.9116 C.ar    1  UNL1        0.0013
     15 C           0.9860    2.8645   27.5887 C.ar    1  UNL1        0.0154
     16 C           0.7827    1.5129   28.2065 C.ar    1  UNL1        0.0622
     17 C          -0.5645    0.8561   28.1472 C.ar    1  UNL1        0.0154
     18 C          -1.7085    1.5510   27.4701 C.ar    1  UNL1        0.0013
     19 C          -1.4675    3.3062   23.8798 C.3     1  UNL1        0.0310
     20 C          -2.6303    3.7992   24.6890 C.ar    1  UNL1       -0.0218
     21 C          -3.7744    4.4941   24.0118 C.ar    1  UNL1       -0.0031
     22 C          -4.9372    4.9872   24.8209 C.ar    1  UNL1        0.0137
     23 C          -4.9561    4.7853   26.3072 C.ar    1  UNL1        0.0011
     24 C          -3.8121    4.0905   26.9843 C.ar    1  UNL1       -0.0003
     25 C          -2.6492    3.5974   26.1752 C.ar    1  UNL1       -0.0040
     26 C          -6.0812    5.6820   24.1438 C.2     1  UNL1        0.0729
     27 O          -6.1465    7.1805   24.1305 O.co2   1  UNL1       -0.5446
     28 O          -7.1599    4.8783   23.4801 O.co2   1  UNL1       -0.5446
     29 C           4.0251   -0.3635   31.9276 C.ar    1  UNL1        0.2276
     30 N           4.9693    0.6071   32.5729 N.ar    1  UNL1       -0.2117
     31 C           5.5774    0.2880   33.9064 C.ar    1  UNL1        0.1034
     32 C           5.2413   -1.0018   34.5948 C.ar    1  UNL1        0.0414
     33 C           4.2971   -1.9723   33.9495 C.ar    1  UNL1        0.1034
     34 N           3.6891   -1.6532   32.6159 N.ar    1  UNL1       -0.2117
     35 C           7.6859   -2.8739   28.5431 C.3     1  UNL1        0.1183
     36 C           7.6568   -4.0354   27.5945 C.ar    1  UNL1        0.0712
     37 N           8.0420   -3.8404   26.1580 N.ar    1  UNL1       -0.2471
     38 C           8.0129   -5.0021   25.2093 C.ar    1  UNL1        0.0985
     39 C           7.5986   -6.3586   25.6972 C.ar    1  UNL1        0.0203
     40 C           7.2134   -6.5536   27.1337 C.ar    1  UNL1       -0.0015
     41 C           7.2425   -5.3921   28.0824 C.ar    1  UNL1       -0.0069
     42 C           6.8573   -5.5871   29.5189 C.3     1  UNL1        0.0323
@<TRIPOS>UNITY_ATOM_ATTR
27 1
charge -1
@<TRIPOS>BOND
     1    19    20    1
     2    20    21   ar
     3    21    22   ar
     4    22    26    1
     5    26    27   ar
     6    26    28   ar
     7    22    23   ar
     8    23    24   ar
     9    24    25   ar
    10    25    13    1
    11    13    14   ar
    12    14    15   ar
    13    15    16   ar
    14    16     1    1
    15     1     2   am
    16     2     3    2
    17     2     4   am
    18     4    29    1
    19    29    30   ar
    20    30    31   ar
    21    31    32   ar
    22    32    33   ar
    23    33    34   ar
    24     4     5    1
    25     5     6    1
    26     6     7    1
    27     7     8    1
    28     8    35    1
    29    35    36    1
    30    36    37   ar
    31    37    38   ar
    32    38    39   ar
    33    39    40   ar
    34    40    41   ar
    35    41    42    1
    36     8     9    1
    37     9    10    1
    38     5    11    1
    39    11    12    2
    40    16    17   ar
    41    17    18   ar
    42    25    20   ar
    43    18    13   ar
    44    11     1   am
    45    34    29   ar
    46    10     5    1
    47    41    36   ar
@<TRIPOS>MOLECULE
*****
 42 47 0 0 0
SMALL
GASTEIGER

@<TRIPOS>ATOM
      1 N           2.5830    1.0873   26.7514 N.am    1  UNL1       -0.1907
      2 C           1.9872    1.8124   25.5812 C.2     1  UNL1        0.3231
      3 O           1.1955    3.0849   25.6426 O.2     1  UNL1       -0.2511
      4 N           2.3221    1.0414   24.3388 N.am    1  UNL1       -0.2071
      5 C           3.1249   -0.1602   24.7411 C.3     1  UNL1        0.1405
      6 C           3.9137   -1.3112   25.2914 C.3     1  UNL1        0.0450
      7 C           4.4594   -2.3573   24.3653 C.3     1  UNL1        0.0746
      8 N           4.2163   -2.2525   22.8889 N.3     1  UNL1       -0.2676
      9 C           3.4274   -1.1015   22.3385 C.3     1  UNL1        0.0746
     10 C           2.8818   -0.0553   23.2646 C.3     1  UNL1        0.0450
     11 C           3.2862   -0.1318   26.2322 C.2     1  UNL1        0.2529
     12 O           4.0214   -1.1447   27.0589 O.2     1  UNL1       -0.2724
     13 C           2.3092    2.3479   31.0625 C.ar    1  UNL1       -0.0002
     14 C           3.5529    2.6351   30.2746 C.ar    1  UNL1        0.0013
     15 C           3.6441    2.2149   28.8376 C.ar    1  UNL1        0.0154
     16 C           2.4917    1.5075   28.1884 C.ar    1  UNL1        0.0622
     17 C           1.2481    1.2203   28.9762 C.ar    1  UNL1        0.0154
     18 C           1.1568    1.6405   30.4133 C.ar    1  UNL1        0.0013
     19 C           3.4386    0.5888   33.2143 C.3     1  UNL1        0.0310
     20 C           2.7826    1.8886   33.5754 C.ar    1  UNL1       -0.0218
     21 C           2.6914    2.3088   35.0125 C.ar    1  UNL1       -0.0031
     22 C           2.0353    3.6085   35.3736 C.ar    1  UNL1        0.0137
     23 C           1.4706    4.4880   34.2977 C.ar    1  UNL1        0.0011
     24 C           1.5619    4.0678   32.8606 C.ar    1  UNL1       -0.0003
     25 C           2.2179    2.7681   32.4995 C.ar    1  UNL1       -0.0040
     26 C           1.9441    4.0287   36.8107 C.2     1  UNL1        0.0729
     27 O           2.7358    5.2050   37.2998 O.co2   1  UNL1       -0.5446
     28 O           1.0610    3.2725   37.7586 O.co2   1  UNL1       -0.5446
     29 C           1.9241    1.4077   22.9397 C.ar    1  UNL1        0.2276
     30 N           2.8400    2.2411   22.0932 N.ar    1  UNL1       -0.2117
     31 C           2.4419    2.6072   20.6941 C.ar    1  UNL1        0.1034
     32 C           1.1279    2.1401   20.1415 C.ar    1  UNL1        0.0414
     33 C           0.2121    1.3067   20.9880 C.ar    1  UNL1        0.1034
     34 N           0.6101    0.9405   22.3871 N.ar    1  UNL1       -0.2117
     35 C           4.7620   -3.2987   21.9628 C.3     1  UNL1        0.1183
     36 C           5.4293   -2.8925   20.6823 C.ar    1  UNL1        0.0712
     37 N           6.7270   -2.1410   20.7184 N.ar    1  UNL1       -0.2471
     38 C           7.3943   -1.7348   19.4378 C.ar    1  UNL1        0.0985
     39 C           6.7639   -2.0801   18.1212 C.ar    1  UNL1        0.0203
     40 C           5.4662   -2.8315   18.0852 C.ar    1  UNL1       -0.0015
     41 C           4.7989   -3.2377   19.3656 C.ar    1  UNL1       -0.0069
     42 C           3.5012   -3.9892   19.3296 C.3     1  UNL1        0.0323
@<TRIPOS>UNITY_ATOM_ATTR
27 1
charge -1
@<TRIPOS>BOND
     1    19    20    1
     2    20    21   ar
     3    21    22   ar
     4    22    26    1
     5    26    27   ar
     6    26    28   ar
     7    22    23   ar
     8    23    24   ar
     9    24    25   ar
    10    25    13    1
    11    13    14   ar
    12    14    15   ar
    13    15    16   ar
    14    16     1    1
    15     1     2   am
    16     2     3    2
    17     2     4   am
    18     4    29    1
    19    29    30   ar
    20    30    31   ar
    21    31    32   ar
    22    32    33   ar
    23    33    34   ar
    24     4     5    1
    25     5     6    1
    26     6     7    1
    27     7     8    1
    28     8    35    1
    29    35    36    1
    30    36    37   ar
    31    37    38   ar
    32    38    39   ar
    33    39    40   ar
    34    40    41   ar
    35    41    42    1
    36     8     9    1
    37     9    10    1
    38     5    11    1
    39    11    12    2
    40    16    17   ar
    41    17    18   ar
    42    25    20   ar
    43    18    13   ar
    44    11     1   am
    45    34    29   ar
    46    10     5    1
    47    41    36   ar
@<TRIPOS>MOLECULE
*****
 42 47 0 0 0
SMALL
GASTEIGER

@<TRIPOS>ATOM
      1 N           1.4138    1.8094   29.7219 N.am    1  UNL1       -0.1907
      2 C           2.4343    0.7178   29.8524 C.2     1  UNL1        0.3231
      3 O           2.8744   -0.2127   28.7614 O.2     1  UNL1       -0.2511
      4 N           2.9374    0.7201   31.2655 N.am    1  UNL1       -0.2071
      5 C           2.2279    1.8132   32.0085 C.3     1  UNL1        0.1405
      6 C           1.4429    2.9371   32.6171 C.3     1  UNL1        0.0450
      7 C           1.6403    3.2942   34.0605 C.3     1  UNL1        0.0746
      8 N           2.6228    2.5274   34.8953 N.3     1  UNL1       -0.2676
      9 C           3.4078    1.4035   34.2866 C.3     1  UNL1        0.0746
     10 C           3.2103    1.0464   32.8432 C.3     1  UNL1        0.0450
     11 C           1.2862    2.4864   31.0545 C.2     1  UNL1        0.2529
     12 O           0.3767    3.6349   31.3764 O.2     1  UNL1       -0.2724
     13 C          -0.8649    2.8676   25.9886 C.ar    1  UNL1       -0.0002
     14 C          -0.8849    1.4597   26.5058 C.ar    1  UNL1        0.0013
     15 C          -0.1253    1.1070   27.7503 C.ar    1  UNL1        0.0154
     16 C           0.6542    2.1621   28.4775 C.ar    1  UNL1        0.0622
     17 C           0.6742    3.5699   27.9603 C.ar    1  UNL1        0.0154
     18 C          -0.0853    3.9226   26.7159 C.ar    1  UNL1        0.0013
     19 C          -3.7334    3.7261   26.1747 C.3     1  UNL1        0.0310
     20 C          -3.0586    3.6495   24.8373 C.ar    1  UNL1       -0.0218
     21 C          -3.8183    4.0023   23.5928 C.ar    1  UNL1       -0.0031
     22 C          -3.1436    3.9257   22.2552 C.ar    1  UNL1        0.0137
     23 C          -1.7093    3.4965   22.1622 C.ar    1  UNL1        0.0011
     24 C          -0.9497    3.1437   23.4066 C.ar    1  UNL1       -0.0003
     25 C          -1.6244    3.2203   24.7442 C.ar    1  UNL1       -0.0040
     26 C          -3.9031    4.2785   21.0108 C.2     1  UNL1        0.0729
     27 O          -3.6497    3.5252   19.7387 O.co2   1  UNL1       -0.5446
     28 O          -4.9160    5.3845   21.0385 O.co2   1  UNL1       -0.5446
     29 C           3.9689   -0.2077   31.8357 C.ar    1  UNL1        0.2276
     30 N           5.4216    0.1625   31.7832 N.ar    1  UNL1       -0.2117
     31 C           6.4530   -0.7654   32.3534 C.ar    1  UNL1        0.1034
     32 C           6.0319   -2.0634   32.9762 C.ar    1  UNL1        0.0414
     33 C           4.5793   -2.4336   33.0287 C.ar    1  UNL1        0.1034
     34 N           3.5478   -1.5057   32.4585 N.ar    1  UNL1       -0.2117
     35 C           2.8202    2.8845   36.3387 C.3     1  UNL1        0.1183
     36 C           4.2065    3.0031   36.8992 C.ar    1  UNL1        0.0712
     37 N           5.1787    3.9733   36.2964 N.ar    1  UNL1       -0.2471
     38 C           6.5651    4.0918   36.8569 C.ar    1  UNL1        0.0985
     39 C           6.9791    3.2401   38.0201 C.ar    1  UNL1        0.0203
     40 C           6.0068    2.2699   38.6229 C.ar    1  UNL1       -0.0015
     41 C           4.6206    2.1513   38.0625 C.ar    1  UNL1       -0.0069
     42 C           3.6483    1.1811   38.6653 C.3     1  UNL1        0.0323
@<TRIPOS>UNITY_ATOM_ATTR
27 1
charge -1
@<TRIPOS>BOND
     1    19    20    1
     2    20    21   ar
     3    21    22   ar
     4    22    26    1
     5    26    27   ar
     6    26    28   ar
     7    22    23   ar
     8    23    24   ar
     9    24    25   ar
    10    25    13    1
    11    13    14   ar
    12    14    15   ar
    13    15    16   ar
    14    16     1    1
    15     1     2   am
    16     2     3    2
    17     2     4   am
    18     4    29    1
    19    29    30   ar
    20    30    31   ar
    21    31    32   ar
    22    32    33   ar
    23    33    34   ar
    24     4     5    1
    25     5     6    1
    26     6     7    1
    27     7     8    1
    28     8    35    1
    29    35    36    1
    30    36    37   ar
    31    37    38   ar
    32    38    39   ar
    33    39    40   ar
    34    40    41   ar
    35    41    42    1
    36     8     9    1
    37     9    10    1
    38     5    11    1
    39    11    12    2
    40    16    17   ar
    41    17    18   ar
    42    25    20   ar
    43    18    13   ar
    44    11     1   am
    45    34    29   ar
    46    10     5    1
    47    41    36   ar
