@<TRIPOS>MOLECULE
*****
 33 37 0 0 0
SMALL
GASTEIGER

@<TRIPOS>ATOM
      1 N          -0.6630    3.1972   21.4621 N.ar    1  UNL1       -0.2172
      2 C          -0.6520    2.8393   22.9188 C.ar    1  UNL1        0.0586
      3 C           0.5940    2.0505   23.1929 C.ar    1  UNL1        0.0088
      4 C           1.3531    1.9208   21.9056 C.ar    1  UNL1        0.0161
      5 C           2.6513    1.2489   21.5694 C.ar    1  UNL1        0.0058
      6 C           3.1727    1.2857   20.1634 C.ar    1  UNL1        0.0537
      7 C           2.3959    1.9944   19.0937 C.ar    1  UNL1        0.0061
      8 C           1.0976    2.6663   19.4300 C.ar    1  UNL1        0.0191
      9 C           0.5762    2.6295   20.8360 C.ar    1  UNL1        0.0815
     10 C           0.8764    1.5522   24.5792 C.3     1  UNL1        0.1003
     11 N          -0.0873    1.8427   25.6914 N.3     1  UNL1       -0.2697
     12 C          -1.3333    2.6316   25.4173 C.3     1  UNL1        0.0786
     13 C          -1.6157    3.1299   24.0310 C.3     1  UNL1        0.0627
     14 C           4.4710    0.6139   19.8271 C.2     1  UNL1        0.2490
     15 O           5.7368    1.4163   19.7651 O.2     1  UNL1       -0.2699
     16 N           4.5035   -0.8605   19.5527 N.am    1  UNL1       -0.2761
     17 C           3.2376   -1.6629   19.6147 C.3     1  UNL1        0.0937
     18 C           3.2701   -3.1373   19.3403 C.3     1  UNL1        0.0216
     19 C           4.5684   -3.8092   19.0040 C.3     1  UNL1        0.0034
     20 C           4.6008   -5.2835   18.7296 C.3     1  UNL1        0.0001
     21 C           5.8341   -3.0067   18.9420 C.3     1  UNL1        0.0216
     22 C           5.8017   -1.5324   19.2164 C.3     1  UNL1        0.0937
     23 C           0.1952    1.3444   27.0778 C.3     1  UNL1        0.0628
     24 C           1.6111    1.2297   27.5595 C.3     1  UNL1        0.0481
     25 C           1.8935    0.7314   28.9459 C.3     1  UNL1        0.1435
     26 O           0.7601    0.3477   29.8504 O.3     1  UNL1       -0.3537
     27 C          -0.6558    0.4624   29.3686 C.3     1  UNL1        0.1435
     28 C          -0.9383    0.9607   27.9823 C.3     1  UNL1        0.0481
     29 S          -1.7265    3.9845   20.7556 S.O2    1  UNL1        0.0660
     30 O          -2.5470    2.7382   20.6019 O.2     1  UNL1       -0.1521
     31 O          -0.9060    5.2307   20.9092 O.2     1  UNL1       -0.1521
     32 C          -3.6966    4.0933   19.0653 C.3     1  UNL1        0.0294
     33 C          -2.7900    4.7717   20.0491 C.3     1  UNL1        0.1752
@<TRIPOS>BOND
     1    32    33    1
     2    33    29    1
     3    29    30    2
     4    29    31    2
     5    29     1    1
     6     1     2   ar
     7     2     3   ar
     8     3     4   ar
     9     4     5   ar
    10     5     6   ar
    11     6    14    1
    12    14    15    2
    13    14    16   am
    14    16    17    1
    15    17    18    1
    16    18    19    1
    17    19    20    1
    18    19    21    1
    19    21    22    1
    20     6     7   ar
    21     7     8   ar
    22     8     9   ar
    23     3    10    1
    24    10    11    1
    25    11    23    1
    26    23    24    1
    27    24    25    1
    28    25    26    1
    29    26    27    1
    30    27    28    1
    31    11    12    1
    32    12    13    1
    33     9     1   ar
    34    28    23    1
    35    13     2    1
    36     9     4   ar
    37    22    16    1
@<TRIPOS>MOLECULE
*****
 33 37 0 0 0
SMALL
GASTEIGER

@<TRIPOS>ATOM
      1 N          -0.3293    2.5530   21.1465 N.ar    1  UNL1       -0.2172
      2 C          -0.3027    2.3988   22.6383 C.ar    1  UNL1        0.0586
      3 C           0.6495    1.2891   22.9726 C.ar    1  UNL1        0.0088
      4 C           1.2115    0.7575   21.6875 C.ar    1  UNL1        0.0161
      5 C           2.1959   -0.3370   21.3992 C.ar    1  UNL1        0.0058
      6 C           2.5753   -0.6502   19.9822 C.ar    1  UNL1        0.0537
      7 C           1.9703    0.1309   18.8535 C.ar    1  UNL1        0.0061
      8 C           0.9860    1.2253   19.1419 C.ar    1  UNL1        0.0191
      9 C           0.6065    1.5386   20.5588 C.ar    1  UNL1        0.0815
     10 C           0.8819    0.9061   24.4041 C.3     1  UNL1        0.1003
     11 N           0.1620    1.6327   25.5013 N.3     1  UNL1       -0.2697
     12 C          -0.7902    2.7424   25.1670 C.3     1  UNL1        0.0786
     13 C          -1.0226    3.1255   23.7355 C.3     1  UNL1        0.0627
     14 C           3.5597   -1.7447   19.6938 C.2     1  UNL1        0.2490
     15 O           3.0796   -3.1515   19.4926 O.2     1  UNL1       -0.2699
     16 N           5.0242   -1.4324   19.6066 N.am    1  UNL1       -0.2761
     17 C           5.5043   -0.0256   19.8078 C.3     1  UNL1        0.0937
     18 C           6.9689    0.2868   19.7207 C.3     1  UNL1        0.0216
     19 C           7.9533   -0.8077   19.4323 C.3     1  UNL1        0.0034
     20 C           9.4178   -0.4953   19.3451 C.3     1  UNL1        0.0001
     21 C           7.4732   -2.2144   19.2311 C.3     1  UNL1        0.0216
     22 C           6.0086   -2.5268   19.3183 C.3     1  UNL1        0.0937
     23 C           0.3944    1.2496   26.9329 C.3     1  UNL1        0.0628
     24 C           1.7811    1.2878   27.5038 C.3     1  UNL1        0.0481
     25 C           2.0135    0.9047   28.9354 C.3     1  UNL1        0.1435
     26 O           0.8593    0.4835   29.7959 O.3     1  UNL1       -0.3537
     27 C          -0.5273    0.4455   29.2250 C.3     1  UNL1        0.1435
     28 C          -0.7597    0.8285   27.7935 C.3     1  UNL1        0.0481
     29 S          -1.1479    3.5471   20.3773 S.O2    1  UNL1        0.0660
     30 O           0.0569    4.4293   20.2351 O.2     1  UNL1       -0.1521
     31 O          -2.3527    2.6649   20.5194 O.2     1  UNL1       -0.1521
     32 C          -3.2769    4.1282   19.0061 C.3     1  UNL1        0.0294
     33 C          -1.9665    4.5412   19.6081 C.3     1  UNL1        0.1752
@<TRIPOS>BOND
     1    32    33    1
     2    33    29    1
     3    29    30    2
     4    29    31    2
     5    29     1    1
     6     1     2   ar
     7     2     3   ar
     8     3     4   ar
     9     4     5   ar
    10     5     6   ar
    11     6    14    1
    12    14    15    2
    13    14    16   am
    14    16    17    1
    15    17    18    1
    16    18    19    1
    17    19    20    1
    18    19    21    1
    19    21    22    1
    20     6     7   ar
    21     7     8   ar
    22     8     9   ar
    23     3    10    1
    24    10    11    1
    25    11    23    1
    26    23    24    1
    27    24    25    1
    28    25    26    1
    29    26    27    1
    30    27    28    1
    31    11    12    1
    32    12    13    1
    33     9     1   ar
    34    28    23    1
    35    13     2    1
    36     9     4   ar
    37    22    16    1
@<TRIPOS>MOLECULE
*****
 33 37 0 0 0
SMALL
GASTEIGER

@<TRIPOS>ATOM
      1 N           0.6207    2.5774   24.2410 N.ar    1  UNL1       -0.2172
      2 C          -0.5684    2.8841   23.3796 C.ar    1  UNL1        0.0586
      3 C          -0.2112    2.5519   21.9611 C.ar    1  UNL1        0.0088
      4 C           1.1987    2.0400   21.9458 C.ar    1  UNL1        0.0161
      5 C           2.0807    1.5616   20.8309 C.ar    1  UNL1        0.0058
      6 C           3.4769    1.0989   21.1251 C.ar    1  UNL1        0.0537
      7 C           3.9911    1.1147   22.5341 C.ar    1  UNL1        0.0061
      8 C           3.1090    1.5931   23.6490 C.ar    1  UNL1        0.0191
      9 C           1.7128    2.0558   23.3549 C.ar    1  UNL1        0.0815
     10 C          -1.2159    2.7585   20.8666 C.3     1  UNL1        0.1003
     11 N          -2.5778    3.2973   21.1906 N.3     1  UNL1       -0.2697
     12 C          -2.9350    3.6294   22.6091 C.3     1  UNL1        0.0786
     13 C          -1.9303    3.4228   23.7036 C.3     1  UNL1        0.0627
     14 C           4.3591    0.6204   20.0102 C.2     1  UNL1        0.2490
     15 O           5.1783    1.6033   19.2275 O.2     1  UNL1       -0.2699
     16 N           4.4219   -0.8410   19.6780 N.am    1  UNL1       -0.2761
     17 C           3.6025   -1.8239   20.4608 C.3     1  UNL1        0.0937
     18 C           3.6654   -3.2853   20.1286 C.3     1  UNL1        0.0216
     19 C           4.5475   -3.7638   19.0137 C.3     1  UNL1        0.0034
     20 C           4.6103   -5.2252   18.6815 C.3     1  UNL1        0.0001
     21 C           5.3667   -2.7809   18.2310 C.3     1  UNL1        0.0216
     22 C           5.3039   -1.3195   18.5632 C.3     1  UNL1        0.0937
     23 C          -3.5825    3.5039   20.0961 C.3     1  UNL1        0.0628
     24 C          -5.0376    3.2487   20.3559 C.3     1  UNL1        0.0481
     25 C          -6.0423    3.4553   19.2613 C.3     1  UNL1        0.1435
     26 O          -5.5919    3.9170   17.9071 O.3     1  UNL1       -0.3537
     27 C          -4.1367    4.1721   17.6474 C.3     1  UNL1        0.1435
     28 C          -3.1320    3.9655   18.7418 C.3     1  UNL1        0.0481
     29 S           0.7032    2.7604   25.7275 S.O2    1  UNL1        0.0660
     30 O           1.3605    4.0937   25.5269 O.2     1  UNL1       -0.1521
     31 O           0.0460    1.4271   25.9280 O.2     1  UNL1       -0.1521
     32 C           0.0705    1.9928   28.1277 C.3     1  UNL1        0.0294
     33 C           0.7858    2.9433   27.2140 C.3     1  UNL1        0.1752
@<TRIPOS>BOND
     1    32    33    1
     2    33    29    1
     3    29    30    2
     4    29    31    2
     5    29     1    1
     6     1     2   ar
     7     2     3   ar
     8     3     4   ar
     9     4     5   ar
    10     5     6   ar
    11     6    14    1
    12    14    15    2
    13    14    16   am
    14    16    17    1
    15    17    18    1
    16    18    19    1
    17    19    20    1
    18    19    21    1
    19    21    22    1
    20     6     7   ar
    21     7     8   ar
    22     8     9   ar
    23     3    10    1
    24    10    11    1
    25    11    23    1
    26    23    24    1
    27    24    25    1
    28    25    26    1
    29    26    27    1
    30    27    28    1
    31    11    12    1
    32    12    13    1
    33     9     1   ar
    34    28    23    1
    35    13     2    1
    36     9     4   ar
    37    22    16    1
@<TRIPOS>MOLECULE
*****
 33 37 0 0 0
SMALL
GASTEIGER

@<TRIPOS>ATOM
      1 N           2.6038    0.4300   27.0582 N.ar    1  UNL1       -0.2172
      2 C           1.2883    1.1289   26.8825 C.ar    1  UNL1        0.0586
      3 C           1.0699    1.3436   25.4141 C.ar    1  UNL1        0.0088
      4 C           2.2505    0.7774   24.6822 C.ar    1  UNL1        0.0161
      5 C           2.5848    0.7030   23.2219 C.ar    1  UNL1        0.0058
      6 C           3.8670    0.0640   22.7776 C.ar    1  UNL1        0.0537
      7 C           4.8150   -0.5007   23.7937 C.ar    1  UNL1        0.0061
      8 C           4.4808   -0.4263   25.2541 C.ar    1  UNL1        0.0191
      9 C           3.1985    0.2127   25.6983 C.ar    1  UNL1        0.0815
     10 C          -0.1757    2.0270   24.9332 C.3     1  UNL1        0.1003
     11 N          -1.2030    2.4956   25.9206 N.3     1  UNL1       -0.2697
     12 C          -0.9847    2.2809   27.3890 C.3     1  UNL1        0.0786
     13 C           0.2610    1.5976   27.8700 C.3     1  UNL1        0.0627
     14 C           4.2014   -0.0104   21.3172 C.2     1  UNL1        0.2490
     15 O           4.4213    1.2492   20.5330 O.2     1  UNL1       -0.2699
     16 N           4.3157   -1.3445   20.6410 N.am    1  UNL1       -0.2761
     17 C           4.0957   -2.6041   21.4252 C.3     1  UNL1        0.0937
     18 C           4.2100   -3.9382   20.7490 C.3     1  UNL1        0.0216
     19 C           4.5444   -4.0125   19.2886 C.3     1  UNL1        0.0034
     20 C           4.6587   -5.3466   18.6124 C.3     1  UNL1        0.0001
     21 C           4.7643   -2.7529   18.5045 C.3     1  UNL1        0.0216
     22 C           4.6500   -1.4189   19.1807 C.3     1  UNL1        0.0937
     23 C          -2.4487    3.1790   25.4396 C.3     1  UNL1        0.0628
     24 C          -3.5121    3.5767   26.4199 C.3     1  UNL1        0.0481
     25 C          -4.7578    4.2601   25.9388 C.3     1  UNL1        0.1435
     26 O          -4.9400    4.5458   24.4776 O.3     1  UNL1       -0.3537
     27 C          -3.8765    4.1481   23.4974 C.3     1  UNL1        0.1435
     28 C          -2.6309    3.4647   23.9783 C.3     1  UNL1        0.0481
     29 S           3.2170    0.0202   28.3643 S.O2    1  UNL1        0.0660
     30 O           3.9617    1.3210   28.4228 O.2     1  UNL1       -0.1521
     31 O           2.4724   -1.2805   28.3059 O.2     1  UNL1       -0.1521
     32 C           2.9571   -0.6324   30.8657 C.3     1  UNL1        0.0294
     33 C           3.8303   -0.3895   29.6705 C.3     1  UNL1        0.1752
@<TRIPOS>BOND
     1    32    33    1
     2    33    29    1
     3    29    30    2
     4    29    31    2
     5    29     1    1
     6     1     2   ar
     7     2     3   ar
     8     3     4   ar
     9     4     5   ar
    10     5     6   ar
    11     6    14    1
    12    14    15    2
    13    14    16   am
    14    16    17    1
    15    17    18    1
    16    18    19    1
    17    19    20    1
    18    19    21    1
    19    21    22    1
    20     6     7   ar
    21     7     8   ar
    22     8     9   ar
    23     3    10    1
    24    10    11    1
    25    11    23    1
    26    23    24    1
    27    24    25    1
    28    25    26    1
    29    26    27    1
    30    27    28    1
    31    11    12    1
    32    12    13    1
    33     9     1   ar
    34    28    23    1
    35    13     2    1
    36     9     4   ar
    37    22    16    1
@<TRIPOS>MOLECULE
*****
 33 37 0 0 0
SMALL
GASTEIGER

@<TRIPOS>ATOM
      1 N          -0.5146    2.6448   21.2576 N.ar    1  UNL1       -0.2172
      2 C          -0.4916    2.5033   22.7507 C.ar    1  UNL1        0.0586
      3 C           0.4768    1.4117   23.0980 C.ar    1  UNL1        0.0088
      4 C           1.0524    0.8786   21.8196 C.ar    1  UNL1        0.0161
      5 C           2.0553   -0.2023   21.5442 C.ar    1  UNL1        0.0058
      6 C           2.4454   -0.5212   20.1314 C.ar    1  UNL1        0.0537
      7 C           1.8327    0.2409   18.9940 C.ar    1  UNL1        0.0061
      8 C           0.8299    1.3218   19.2693 C.ar    1  UNL1        0.0191
      9 C           0.4397    1.6407   20.6821 C.ar    1  UNL1        0.0815
     10 C           0.7094    1.0442   24.5336 C.3     1  UNL1        0.1003
     11 N          -0.0265    1.7683   25.6218 N.3     1  UNL1       -0.2697
     12 C          -0.9949    2.8599   25.2745 C.3     1  UNL1        0.0786
     13 C          -1.2275    3.2274   23.8390 C.3     1  UNL1        0.0627
     14 C           3.4483   -1.6021   19.8560 C.2     1  UNL1        0.2490
     15 O           3.7046   -2.0460   18.4463 O.2     1  UNL1       -0.2699
     16 N           4.1949   -2.2392   20.9904 N.am    1  UNL1       -0.2761
     17 C           3.9386   -1.7953   22.4001 C.3     1  UNL1        0.0937
     18 C           4.6852   -2.4323   23.5345 C.3     1  UNL1        0.0216
     19 C           5.6881   -3.5133   23.2591 C.3     1  UNL1        0.0034
     20 C           6.4347   -4.1503   24.3934 C.3     1  UNL1        0.0001
     21 C           5.9444   -3.9571   21.8494 C.3     1  UNL1        0.0216
     22 C           5.1978   -3.3201   20.7150 C.3     1  UNL1        0.0937
     23 C           0.2062    1.4008   27.0575 C.3     1  UNL1        0.0628
     24 C           1.5978    1.4077   27.6173 C.3     1  UNL1        0.0481
     25 C           1.8304    1.0402   29.0529 C.3     1  UNL1        0.1435
     26 O           0.6715    0.6658   29.9285 O.3     1  UNL1       -0.3537
     27 C          -0.7201    0.6589   29.3686 C.3     1  UNL1        0.1435
     28 C          -0.9527    1.0264   27.9331 C.3     1  UNL1        0.0481
     29 S          -1.3458    3.6193   20.4770 S.O2    1  UNL1        0.0660
     30 O          -0.1618    4.5322   20.3559 O.2     1  UNL1       -0.1521
     31 O          -2.5297    2.7064   20.5980 O.2     1  UNL1       -0.1521
     32 C          -2.7667    4.1892   18.3778 C.3     1  UNL1        0.0294
     33 C          -2.1770    4.5938   19.6963 C.3     1  UNL1        0.1752
@<TRIPOS>BOND
     1    32    33    1
     2    33    29    1
     3    29    30    2
     4    29    31    2
     5    29     1    1
     6     1     2   ar
     7     2     3   ar
     8     3     4   ar
     9     4     5   ar
    10     5     6   ar
    11     6    14    1
    12    14    15    2
    13    14    16   am
    14    16    17    1
    15    17    18    1
    16    18    19    1
    17    19    20    1
    18    19    21    1
    19    21    22    1
    20     6     7   ar
    21     7     8   ar
    22     8     9   ar
    23     3    10    1
    24    10    11    1
    25    11    23    1
    26    23    24    1
    27    24    25    1
    28    25    26    1
    29    26    27    1
    30    27    28    1
    31    11    12    1
    32    12    13    1
    33     9     1   ar
    34    28    23    1
    35    13     2    1
    36     9     4   ar
    37    22    16    1
@<TRIPOS>MOLECULE
*****
 33 37 0 0 0
SMALL
GASTEIGER

@<TRIPOS>ATOM
      1 N           5.7845   -2.5657   22.8493 N.ar    1  UNL1       -0.2172
      2 C           5.4853   -2.2941   24.2939 C.ar    1  UNL1        0.0586
      3 C           4.2477   -1.4491   24.3599 C.ar    1  UNL1        0.0088
      4 C           3.7821   -1.1985   22.9562 C.ar    1  UNL1        0.0161
      5 C           2.6159   -0.4310   22.4076 C.ar    1  UNL1        0.0058
      6 C           2.3996   -0.3537   20.9253 C.ar    1  UNL1        0.0537
      7 C           3.3493   -1.0438   19.9917 C.ar    1  UNL1        0.0061
      8 C           4.5155   -1.8113   20.5404 C.ar    1  UNL1        0.0191
      9 C           4.7319   -1.8886   22.0226 C.ar    1  UNL1        0.0815
     10 C           3.7048   -1.0170   25.6898 C.3     1  UNL1        0.1003
     11 N           4.3993   -1.4300   26.9535 N.3     1  UNL1       -0.2697
     12 C           5.6369   -2.2750   26.8875 C.3     1  UNL1        0.0786
     13 C           6.1799   -2.7071   25.5576 C.3     1  UNL1        0.0627
     14 C           1.2334    0.4138   20.3766 C.2     1  UNL1        0.2490
     15 O          -0.1644   -0.0791   20.6075 O.2     1  UNL1       -0.2699
     16 N           1.4650    1.6742   19.5969 N.am    1  UNL1       -0.2761
     17 C           2.8628    2.1670   19.3660 C.3     1  UNL1        0.0937
     18 C           3.0944    3.4274   18.5863 C.3     1  UNL1        0.0216
     19 C           1.9282    4.1949   18.0376 C.3     1  UNL1        0.0034
     20 C           2.1599    5.4552   17.2580 C.3     1  UNL1        0.0001
     21 C           0.5305    3.7020   18.2686 C.3     1  UNL1        0.0216
     22 C           0.2989    2.4416   19.0482 C.3     1  UNL1        0.0937
     23 C           3.8563   -0.9978   28.2834 C.3     1  UNL1        0.0628
     24 C           2.4019   -0.6591   28.4253 C.3     1  UNL1        0.0481
     25 C           1.8588   -0.2270   29.7552 C.3     1  UNL1        0.1435
     26 O           2.7701   -0.1337   30.9430 O.3     1  UNL1       -0.3537
     27 C           4.2245   -0.4724   30.8010 C.3     1  UNL1        0.1435
     28 C           4.7676   -0.9045   29.4712 C.3     1  UNL1        0.0481
     29 S           6.9344   -3.3728   22.3237 S.O2    1  UNL1        0.0660
     30 O           6.0449   -4.5767   22.2262 O.2     1  UNL1       -0.1521
     31 O           7.8239   -2.1690   22.4213 O.2     1  UNL1       -0.1521
     32 C           8.8772   -3.6815   20.6264 C.3     1  UNL1        0.0294
     33 C           8.0844   -4.1800   21.7981 C.3     1  UNL1        0.1752
@<TRIPOS>BOND
     1    32    33    1
     2    33    29    1
     3    29    30    2
     4    29    31    2
     5    29     1    1
     6     1     2   ar
     7     2     3   ar
     8     3     4   ar
     9     4     5   ar
    10     5     6   ar
    11     6    14    1
    12    14    15    2
    13    14    16   am
    14    16    17    1
    15    17    18    1
    16    18    19    1
    17    19    20    1
    18    19    21    1
    19    21    22    1
    20     6     7   ar
    21     7     8   ar
    22     8     9   ar
    23     3    10    1
    24    10    11    1
    25    11    23    1
    26    23    24    1
    27    24    25    1
    28    25    26    1
    29    26    27    1
    30    27    28    1
    31    11    12    1
    32    12    13    1
    33     9     1   ar
    34    28    23    1
    35    13     2    1
    36     9     4   ar
    37    22    16    1
@<TRIPOS>MOLECULE
*****
 33 37 0 0 0
SMALL
GASTEIGER

@<TRIPOS>ATOM
      1 N          -0.2874    2.4611   21.3239 N.ar    1  UNL1       -0.2172
      2 C           0.6506    1.3821   20.8701 C.ar    1  UNL1        0.0586
      3 C           1.1489    0.6594   22.0864 C.ar    1  UNL1        0.0088
      4 C           0.5189    1.2917   23.2919 C.ar    1  UNL1        0.0161
      5 C           0.6388    0.9974   24.7579 C.ar    1  UNL1        0.0058
      6 C          -0.1289    1.8166   25.7525 C.ar    1  UNL1        0.0537
      7 C          -1.0166    2.9302   25.2813 C.ar    1  UNL1        0.0061
      8 C          -1.1365    3.2245   23.8153 C.ar    1  UNL1        0.0191
      9 C          -0.3688    2.4052   22.8207 C.ar    1  UNL1        0.0815
     10 C           2.1119   -0.4812   21.9391 C.3     1  UNL1        0.1003
     11 N           2.5767   -0.8990   20.5755 N.3     1  UNL1       -0.2697
     12 C           2.0784   -0.1763   19.3592 C.3     1  UNL1        0.0786
     13 C           1.1154    0.9643   19.5065 C.3     1  UNL1        0.0627
     14 C          -0.0090    1.5223   27.2185 C.2     1  UNL1        0.2490
     15 O          -0.9639    0.5681   27.8725 O.2     1  UNL1       -0.2699
     16 N           1.0657    2.1823   28.0305 N.am    1  UNL1       -0.2761
     17 C           2.0206    3.1366   27.3765 C.3     1  UNL1        0.0937
     18 C           3.0953    3.7966   28.1884 C.3     1  UNL1        0.0216
     19 C           3.2152    3.5024   29.6545 C.3     1  UNL1        0.0034
     20 C           4.2900    4.1624   30.4664 C.3     1  UNL1        0.0001
     21 C           2.2604    2.5481   30.3084 C.3     1  UNL1        0.0216
     22 C           1.1856    1.8881   29.4964 C.3     1  UNL1        0.0937
     23 C           3.5398   -2.0396   20.4282 C.3     1  UNL1        0.0628
     24 C           4.3587   -2.4860   21.6030 C.3     1  UNL1        0.0481
     25 C           5.3218   -3.6266   21.4557 C.3     1  UNL1        0.1435
     26 O           5.4659   -4.3206   20.1337 O.3     1  UNL1       -0.3537
     27 C           4.6469   -3.8741   18.9590 C.3     1  UNL1        0.1435
     28 C           3.6838   -2.7336   19.1062 C.3     1  UNL1        0.0481
     29 S          -1.0160    3.4265   20.4368 S.O2    1  UNL1        0.0660
     30 O          -2.2324    2.5498   20.4818 O.2     1  UNL1       -0.1521
     31 O           0.2002    4.3031   20.3917 O.2     1  UNL1       -0.1521
     32 C          -3.1238    4.0649   19.0584 C.3     1  UNL1        0.0294
     33 C          -1.7448    4.3919   19.5496 C.3     1  UNL1        0.1752
@<TRIPOS>BOND
     1    32    33    1
     2    33    29    1
     3    29    30    2
     4    29    31    2
     5    29     1    1
     6     1     2   ar
     7     2     3   ar
     8     3     4   ar
     9     4     5   ar
    10     5     6   ar
    11     6    14    1
    12    14    15    2
    13    14    16   am
    14    16    17    1
    15    17    18    1
    16    18    19    1
    17    19    20    1
    18    19    21    1
    19    21    22    1
    20     6     7   ar
    21     7     8   ar
    22     8     9   ar
    23     3    10    1
    24    10    11    1
    25    11    23    1
    26    23    24    1
    27    24    25    1
    28    25    26    1
    29    26    27    1
    30    27    28    1
    31    11    12    1
    32    12    13    1
    33     9     1   ar
    34    28    23    1
    35    13     2    1
    36     9     4   ar
    37    22    16    1
@<TRIPOS>MOLECULE
*****
 33 37 0 0 0
SMALL
GASTEIGER

@<TRIPOS>ATOM
      1 N          -1.3090    3.7346   23.0099 N.ar    1  UNL1       -0.2172
      2 C          -0.5146    2.9621   21.9989 C.ar    1  UNL1        0.0586
      3 C           0.1828    1.8432   22.7142 C.ar    1  UNL1        0.0088
      4 C          -0.1806    1.9242   24.1673 C.ar    1  UNL1        0.0161
      5 C           0.2090    1.0846   25.3476 C.ar    1  UNL1        0.0058
      6 C          -0.3235    1.4139   26.7107 C.ar    1  UNL1        0.0537
      7 C          -1.2456    2.5828   26.8934 C.ar    1  UNL1        0.0061
      8 C          -1.6351    3.4225   25.7131 C.ar    1  UNL1        0.0191
      9 C          -1.1026    3.0932   24.3500 C.ar    1  UNL1        0.0815
     10 C           1.0587    0.8951   21.9500 C.3     1  UNL1        0.1003
     11 N           1.2372    1.0660   20.4705 N.3     1  UNL1       -0.2697
     12 C           0.5397    2.1849   19.7552 C.3     1  UNL1        0.0786
     13 C          -0.3361    3.1329   20.5194 C.3     1  UNL1        0.0627
     14 C           0.0660    0.5742   27.8911 C.2     1  UNL1        0.2490
     15 O          -0.8823   -0.4598   28.4216 O.2     1  UNL1       -0.2699
     16 N           1.4039    0.7687   28.5410 N.am    1  UNL1       -0.2761
     17 C           2.3522    1.8028   28.0104 C.3     1  UNL1        0.0937
     18 C           3.6900    1.9972   28.6603 C.3     1  UNL1        0.0216
     19 C           4.0796    1.1576   29.8407 C.3     1  UNL1        0.0034
     20 C           5.4174    1.3520   30.4906 C.3     1  UNL1        0.0001
     21 C           3.1313    0.1236   30.3712 C.3     1  UNL1        0.0216
     22 C           1.7934   -0.0709   29.7213 C.3     1  UNL1        0.0937
     23 C           2.1131    0.1179   19.7063 C.3     1  UNL1        0.0628
     24 C           2.5065   -1.1956   20.3147 C.3     1  UNL1        0.0481
     25 C           3.3824   -2.1437   19.5505 C.3     1  UNL1        0.1435
     26 O           3.8649   -1.7783   18.1781 O.3     1  UNL1       -0.3537
     27 C           3.4714   -0.4649   17.5697 C.3     1  UNL1        0.1435
     28 C           2.5956    0.4832   18.3338 C.3     1  UNL1        0.0481
     29 S          -2.1604    4.9374   22.7299 S.O2    1  UNL1        0.0660
     30 O          -3.3567    4.0497   22.5540 O.2     1  UNL1       -0.1521
     31 O          -0.9643    5.8251   22.9058 O.2     1  UNL1       -0.1521
     32 C          -4.2564    6.3813   23.2519 C.3     1  UNL1        0.0294
     33 C          -3.0119    6.1402   22.4499 C.3     1  UNL1        0.1752
@<TRIPOS>BOND
     1    32    33    1
     2    33    29    1
     3    29    30    2
     4    29    31    2
     5    29     1    1
     6     1     2   ar
     7     2     3   ar
     8     3     4   ar
     9     4     5   ar
    10     5     6   ar
    11     6    14    1
    12    14    15    2
    13    14    16   am
    14    16    17    1
    15    17    18    1
    16    18    19    1
    17    19    20    1
    18    19    21    1
    19    21    22    1
    20     6     7   ar
    21     7     8   ar
    22     8     9   ar
    23     3    10    1
    24    10    11    1
    25    11    23    1
    26    23    24    1
    27    24    25    1
    28    25    26    1
    29    26    27    1
    30    27    28    1
    31    11    12    1
    32    12    13    1
    33     9     1   ar
    34    28    23    1
    35    13     2    1
    36     9     4   ar
    37    22    16    1
@<TRIPOS>MOLECULE
*****
 33 37 0 0 0
SMALL
GASTEIGER

@<TRIPOS>ATOM
      1 N           4.2911    3.6503   18.2482 N.ar    1  UNL1       -0.2172
      2 C           4.4966    2.2278   18.6775 C.ar    1  UNL1        0.0586
      3 C           3.1474    1.5910   18.8326 C.ar    1  UNL1        0.0088
      4 C           2.1080    2.6198   18.4991 C.ar    1  UNL1        0.0161
      5 C           0.6093    2.5622   18.4777 C.ar    1  UNL1        0.0058
      6 C          -0.1825    3.7773   18.0951 C.ar    1  UNL1        0.0537
      7 C           0.5243    5.0501   17.7340 C.ar    1  UNL1        0.0061
      8 C           2.0231    5.1077   17.7554 C.ar    1  UNL1        0.0191
      9 C           2.8149    3.8926   18.1380 C.ar    1  UNL1        0.0815
     10 C           3.0395    0.1565   19.2574 C.3     1  UNL1        0.1003
     11 N           4.2809   -0.6412   19.5272 N.3     1  UNL1       -0.2697
     12 C           5.6301   -0.0044   19.3721 C.3     1  UNL1        0.0786
     13 C           5.7380    1.4301   18.9473 C.3     1  UNL1        0.0627
     14 C          -1.6813    3.7197   18.0737 C.2     1  UNL1        0.2490
     15 O          -2.4147    3.7581   16.7658 O.2     1  UNL1       -0.2699
     16 N          -2.4466    3.6238   19.3602 N.am    1  UNL1       -0.2761
     17 C          -1.7132    3.5855   20.6681 C.3     1  UNL1        0.0937
     18 C          -2.4785    3.4895   21.9546 C.3     1  UNL1        0.0216
     19 C          -3.9773    3.4320   21.9332 C.3     1  UNL1        0.0034
     20 C          -4.7426    3.3360   23.2197 C.3     1  UNL1        0.0001
     21 C          -4.7107    3.4703   20.6253 C.3     1  UNL1        0.0216
     22 C          -3.9453    3.5662   19.3388 C.3     1  UNL1        0.0937
     23 C           4.1730   -2.0758   19.9520 C.3     1  UNL1        0.0628
     24 C           3.7369   -3.1190   18.9663 C.3     1  UNL1        0.0481
     25 C           3.6290   -4.5537   19.3912 C.3     1  UNL1        0.1435
     26 O           3.9572   -4.9449   20.8016 O.3     1  UNL1       -0.3537
     27 C           4.3933   -3.9016   21.7872 C.3     1  UNL1        0.1435
     28 C           4.5012   -2.4671   21.3624 C.3     1  UNL1        0.0481
     29 S           5.3720    4.6542   17.9768 S.O2    1  UNL1        0.0660
     30 O           5.2974    5.1196   19.4009 O.2     1  UNL1       -0.1521
     31 O           5.4466    4.1890   16.5528 O.2     1  UNL1       -0.1521
     32 C           7.6924    5.2453   16.9685 C.3     1  UNL1        0.0294
     33 C           6.4530    5.6583   17.7055 C.3     1  UNL1        0.1752
@<TRIPOS>BOND
     1    32    33    1
     2    33    29    1
     3    29    30    2
     4    29    31    2
     5    29     1    1
     6     1     2   ar
     7     2     3   ar
     8     3     4   ar
     9     4     5   ar
    10     5     6   ar
    11     6    14    1
    12    14    15    2
    13    14    16   am
    14    16    17    1
    15    17    18    1
    16    18    19    1
    17    19    20    1
    18    19    21    1
    19    21    22    1
    20     6     7   ar
    21     7     8   ar
    22     8     9   ar
    23     3    10    1
    24    10    11    1
    25    11    23    1
    26    23    24    1
    27    24    25    1
    28    25    26    1
    29    26    27    1
    30    27    28    1
    31    11    12    1
    32    12    13    1
    33     9     1   ar
    34    28    23    1
    35    13     2    1
    36     9     4   ar
    37    22    16    1
