@<TRIPOS>MOLECULE
*****
 38 42 0 0 0
SMALL
GASTEIGER

@<TRIPOS>ATOM
      1 O          -0.2205    3.2554   21.0340 O.2     1  UNL1       -0.2749
      2 C           0.1988    2.2412   22.0565 C.2     1  UNL1        0.2253
      3 N          -0.2638    2.3732   23.4773 N.am    1  UNL1       -0.2795
      4 C          -1.1435    3.4598   24.0208 C.3     1  UNL1        0.0935
      5 C          -1.3513    3.1998   25.4834 C.3     1  UNL1        0.0246
      6 C          -0.6000    1.9525   25.8439 C.3     1  UNL1        0.0390
      7 C           0.0721    1.4417   24.6040 C.3     1  UNL1        0.0948
      8 C           1.0808    1.0951   21.6583 C.3     1  UNL1        0.0801
      9 C           2.3860    0.8729   22.3633 C.3     1  UNL1        0.0305
     10 C           3.2679   -0.2732   21.9650 C.3     1  UNL1        0.0913
     11 N           2.8446   -1.1971   20.8617 N.pl3   1  UNL1       -0.3074
     12 C           1.5394   -0.9749   20.1568 C.3     1  UNL1        0.0913
     13 C           0.6575    0.1712   20.5550 C.3     1  UNL1        0.0305
     14 C           3.7265   -2.3433   20.4635 C.ar    1  UNL1        0.0510
     15 C           5.0884   -2.4894   21.0750 C.ar    1  UNL1        0.0352
     16 C           5.9703   -3.6356   20.6767 C.ar    1  UNL1        0.1002
     17 N           5.4904   -4.6356   19.6670 N.ar    1  UNL1       -0.2422
     18 C           4.1284   -4.4894   19.0555 C.ar    1  UNL1        0.1002
     19 C           3.2466   -3.3433   19.4537 C.ar    1  UNL1        0.0352
     20 C          -0.5327    1.3262   27.2051 C.3     1  UNL1        0.0932
     21 N           0.5254    0.3079   27.5107 N.3     1  UNL1       -0.1793
     22 H           1.2863    0.4667   26.8503 H       1  UNL1        0.1488
     23 S           1.1421    0.2540   28.8770 S.O2    1  UNL1        0.0615
     24 O          -0.0618   -0.4780   29.3915 O.2     1  UNL1       -0.1530
     25 O           2.3461    0.9861   28.3624 O.2     1  UNL1       -0.1530
     26 C           1.7588    0.2001   30.2433 C.2     1  UNL1        0.1409
     27 C           2.9103   -0.7232   30.5104 C.2     1  UNL1        0.0277
     28 C           3.5271   -0.7772   31.8767 C.ar    1  UNL1        0.0309
     29 C           4.2856   -1.9340   32.4567 C.ar    1  UNL1        0.0070
     30 C           4.7209   -1.5555   33.8413 C.ar    1  UNL1        0.0075
     31 C           4.2314   -0.1646   34.1171 C.ar    1  UNL1        0.0355
     32 S           3.4936    0.3163   32.9030 S.2     1  UNL1       -0.0864
     33 C           4.4427    0.6092   35.3846 C.ar    1  UNL1        0.0363
     34 C           5.2334    0.1529   36.5748 C.ar    1  UNL1        0.0084
     35 C           5.1797    1.2370   37.6102 C.ar    1  UNL1        0.0185
     36 C           4.3558    2.3632   37.0599 C.ar    1  UNL1        0.0870
     37 CL          4.0425    3.6513   37.7618 Cl      1  UNL1       -0.0752
     38 S           3.9003    1.9752   35.6844 S.2     1  UNL1       -0.0750
@<TRIPOS>BOND
     1     1     2    2
     2     2     8    1
     3     8     9    1
     4     9    10    1
     5    10    11    1
     6    11    14    1
     7    14    15   ar
     8    15    16   ar
     9    16    17   ar
    10    17    18   ar
    11    18    19   ar
    12    11    12    1
    13    12    13    1
    14     2     3   am
    15     3     4    1
    16     4     5    1
    17     5     6    1
    18     6    20    1
    19    20    21    1
    20    21    23    1
    21    23    24    2
    22    23    25    2
    23    23    26    1
    24    26    27    2
    25    27    28    1
    26    28    29   ar
    27    29    30   ar
    28    30    31   ar
    29    31    33    1
    30    33    34   ar
    31    34    35   ar
    32    35    36   ar
    33    36    37    1
    34    36    38   ar
    35    31    32   ar
    36     6     7    1
    37    13     8    1
    38     7     3    1
    39    19    14   ar
    40    32    28   ar
    41    38    33   ar
    42    21    22    1
@<TRIPOS>MOLECULE
*****
 38 42 0 0 0
SMALL
GASTEIGER

@<TRIPOS>ATOM
      1 O           5.4545    0.2779   36.8304 O.2     1  UNL1       -0.2749
      2 C           4.8407    0.3065   35.4620 C.2     1  UNL1        0.2253
      3 N           3.7937    1.3283   35.1309 N.am    1  UNL1       -0.2795
      4 C           3.2627    2.3794   36.0599 C.3     1  UNL1        0.0935
      5 C           2.2347    3.1791   35.3158 C.3     1  UNL1        0.0246
      6 C           2.1304    2.6222   33.9269 C.3     1  UNL1        0.0390
      7 C           3.0940    1.4784   33.8126 C.3     1  UNL1        0.0948
      8 C           5.2740   -0.6867   34.4247 C.3     1  UNL1        0.0801
      9 C           4.3690   -1.8227   34.0498 C.3     1  UNL1        0.0305
     10 C           4.8023   -2.8158   33.0126 C.3     1  UNL1        0.0913
     11 N           6.1406   -2.6730   32.3503 N.pl3   1  UNL1       -0.3074
     12 C           7.0455   -1.5371   32.7252 C.3     1  UNL1        0.0913
     13 C           6.6123   -0.5439   33.7624 C.3     1  UNL1        0.0305
     14 C           6.5738   -3.6663   31.3130 C.ar    1  UNL1        0.0510
     15 C           6.5274   -3.3007   29.8590 C.ar    1  UNL1        0.0352
     16 C           6.9606   -4.2940   28.8218 C.ar    1  UNL1        0.1002
     17 N           7.4403   -5.6527   29.2386 N.ar    1  UNL1       -0.2422
     18 C           7.4868   -6.0182   30.6927 C.ar    1  UNL1        0.1002
     19 C           7.0535   -5.0250   31.7299 C.ar    1  UNL1        0.0352
     20 C           1.2221    3.1216   32.8426 C.3     1  UNL1        0.0932
     21 N           0.4606    2.1469   31.9941 N.3     1  UNL1       -0.1793
     22 H          -0.5284    2.2866   32.2007 H       1  UNL1        0.1488
     23 S           0.6004    2.1833   30.5011 S.O2    1  UNL1        0.0615
     24 O          -0.2829    0.9762   30.3889 O.2     1  UNL1       -0.1530
     25 O           1.4838    3.3905   30.6132 O.2     1  UNL1       -0.1530
     26 C           0.7402    2.2197   29.0080 C.2     1  UNL1        0.1409
     27 C          -0.4727    2.0762   28.1375 C.2     1  UNL1        0.0277
     28 C          -0.3330    2.1126   26.6444 C.ar    1  UNL1        0.0309
     29 C          -1.0845    3.0139   25.7102 C.ar    1  UNL1        0.0070
     30 C          -0.6332    2.7123   24.3119 C.ar    1  UNL1        0.0075
     31 C           0.3974    1.6245   24.3819 C.ar    1  UNL1        0.0355
     32 S           0.5829    1.2539   25.8234 S.2     1  UNL1       -0.0864
     33 C           1.1162    1.0146   23.2152 C.ar    1  UNL1        0.0363
     34 C           2.3545    0.1712   23.2854 C.ar    1  UNL1        0.0084
     35 C           2.7265   -0.2237   21.8869 C.ar    1  UNL1        0.0185
     36 C           1.7179    0.3758   20.9523 C.ar    1  UNL1        0.0870
     37 CL          1.7065    0.2348   19.4590 Cl      1  UNL1       -0.0752
     38 S           0.7227    1.1411   21.7732 S.2     1  UNL1       -0.0750
@<TRIPOS>BOND
     1     1     2    2
     2     2     8    1
     3     8     9    1
     4     9    10    1
     5    10    11    1
     6    11    14    1
     7    14    15   ar
     8    15    16   ar
     9    16    17   ar
    10    17    18   ar
    11    18    19   ar
    12    11    12    1
    13    12    13    1
    14     2     3   am
    15     3     4    1
    16     4     5    1
    17     5     6    1
    18     6    20    1
    19    20    21    1
    20    21    23    1
    21    23    24    2
    22    23    25    2
    23    23    26    1
    24    26    27    2
    25    27    28    1
    26    28    29   ar
    27    29    30   ar
    28    30    31   ar
    29    31    33    1
    30    33    34   ar
    31    34    35   ar
    32    35    36   ar
    33    36    37    1
    34    36    38   ar
    35    31    32   ar
    36     6     7    1
    37    13     8    1
    38     7     3    1
    39    19    14   ar
    40    32    28   ar
    41    38    33   ar
    42    21    22    1
@<TRIPOS>MOLECULE
*****
 38 42 0 0 0
SMALL
GASTEIGER

@<TRIPOS>ATOM
      1 O          -0.8245    3.6403   21.7250 O.2     1  UNL1       -0.2749
      2 C          -0.1571    2.5386   22.4936 C.2     1  UNL1        0.2253
      3 N          -0.4153    2.3864   23.9634 N.am    1  UNL1       -0.2795
      4 C          -1.3110    3.2551   24.7958 C.3     1  UNL1        0.0935
      5 C          -1.2724    2.7445   26.2056 C.3     1  UNL1        0.0246
      6 C          -0.3527    1.5600   26.2446 C.3     1  UNL1        0.0390
      7 C           0.1770    1.3388   24.8588 C.3     1  UNL1        0.0948
      8 C           0.7684    1.5889   21.7924 C.3     1  UNL1        0.0801
      9 C           0.2117    0.5280   20.8899 C.3     1  UNL1        0.0305
     10 C           1.1372   -0.4215   20.1888 C.3     1  UNL1        0.0913
     11 N           2.6195   -0.3102   20.3901 N.pl3   1  UNL1       -0.3074
     12 C           3.1762    0.7507   21.2926 C.3     1  UNL1        0.0913
     13 C           2.2507    1.7002   21.9938 C.3     1  UNL1        0.0305
     14 C           3.5450   -1.2599   19.6889 C.ar    1  UNL1        0.0510
     15 C           3.3089   -2.7386   19.7754 C.ar    1  UNL1        0.0352
     16 C           4.2344   -3.6882   19.0742 C.ar    1  UNL1        0.1002
     17 N           5.3961   -3.1590   18.2865 N.ar    1  UNL1       -0.2422
     18 C           5.6322   -1.6802   18.2000 C.ar    1  UNL1        0.1002
     19 C           4.7067   -0.7307   18.9012 C.ar    1  UNL1        0.0352
     20 C          -0.0211    0.7408   27.4565 C.3     1  UNL1        0.0932
     21 N           1.3213    0.0816   27.5718 N.3     1  UNL1       -0.1793
     22 H           1.9942    0.7036   27.1237 H       1  UNL1        0.1488
     23 S           1.8773   -0.2564   28.9233 S.O2    1  UNL1        0.0615
     24 O           3.2629   -0.2731   28.3491 O.2     1  UNL1       -0.1530
     25 O           0.4916   -0.2397   29.4975 O.2     1  UNL1       -0.1530
     26 C           2.4333   -0.5945   30.2748 C.2     1  UNL1        0.1409
     27 C           2.9876    0.4899   31.1504 C.2     1  UNL1        0.0277
     28 C           3.5436    0.1519   32.5019 C.ar    1  UNL1        0.0309
     29 C           4.0796   -1.1832   32.9262 C.ar    1  UNL1        0.0070
     30 C           4.5285   -1.0705   34.3530 C.ar    1  UNL1        0.0075
     31 C           4.2699    0.3345   34.8106 C.ar    1  UNL1        0.0355
     32 S           3.6612    1.0899   33.6666 S.2     1  UNL1       -0.0864
     33 C           4.5677    0.8869   36.1730 C.ar    1  UNL1        0.0363
     34 C           3.6079    0.9617   37.3232 C.ar    1  UNL1        0.0084
     35 C           4.3247    1.5825   38.4855 C.ar    1  UNL1        0.0185
     36 C           5.7275    1.8914   38.0535 C.ar    1  UNL1        0.0870
     37 CL          6.7932    2.5198   38.9018 Cl      1  UNL1       -0.0752
     38 S           5.8777    1.4615   36.6243 S.2     1  UNL1       -0.0750
@<TRIPOS>BOND
     1     1     2    2
     2     2     8    1
     3     8     9    1
     4     9    10    1
     5    10    11    1
     6    11    14    1
     7    14    15   ar
     8    15    16   ar
     9    16    17   ar
    10    17    18   ar
    11    18    19   ar
    12    11    12    1
    13    12    13    1
    14     2     3   am
    15     3     4    1
    16     4     5    1
    17     5     6    1
    18     6    20    1
    19    20    21    1
    20    21    23    1
    21    23    24    2
    22    23    25    2
    23    23    26    1
    24    26    27    2
    25    27    28    1
    26    28    29   ar
    27    29    30   ar
    28    30    31   ar
    29    31    33    1
    30    33    34   ar
    31    34    35   ar
    32    35    36   ar
    33    36    37    1
    34    36    38   ar
    35    31    32   ar
    36     6     7    1
    37    13     8    1
    38     7     3    1
    39    19    14   ar
    40    32    28   ar
    41    38    33   ar
    42    21    22    1
@<TRIPOS>MOLECULE
*****
 38 42 0 0 0
SMALL
GASTEIGER

@<TRIPOS>ATOM
      1 O          -1.0652    3.5405   21.1220 O.2     1  UNL1       -0.2749
      2 C          -0.2625    2.5610   21.9260 C.2     1  UNL1        0.2253
      3 N          -0.4690    2.4599   23.4083 N.am    1  UNL1       -0.2795
      4 C          -1.4366    3.2683   24.2208 C.3     1  UNL1        0.0935
      5 C          -1.3098    2.8407   25.6530 C.3     1  UNL1        0.0246
      6 C          -0.2637    1.7680   25.7256 C.3     1  UNL1        0.0390
      7 C           0.2559    1.5327   24.3383 C.3     1  UNL1        0.0948
      8 C           0.7466    1.6826   21.2477 C.3     1  UNL1        0.0801
      9 C           0.3179    0.3820   20.6356 C.3     1  UNL1        0.0305
     10 C           1.3270   -0.4963   19.9573 C.3     1  UNL1        0.0913
     11 N           2.7648   -0.0741   19.8911 N.pl3   1  UNL1       -0.3074
     12 C           3.1935    1.2265   20.5032 C.3     1  UNL1        0.0913
     13 C           2.1844    2.1048   21.1815 C.3     1  UNL1        0.0305
     14 C           3.7740   -0.9525   19.2127 C.ar    1  UNL1        0.0510
     15 C           4.8707   -0.3402   18.3929 C.ar    1  UNL1        0.0352
     16 C           5.8798   -1.2187   17.7145 C.ar    1  UNL1        0.1002
     17 N           5.7922   -2.7094   17.8561 N.ar    1  UNL1       -0.2422
     18 C           4.6954   -3.3217   18.6760 C.ar    1  UNL1        0.1002
     19 C           3.6863   -2.4433   19.3543 C.ar    1  UNL1        0.0352
     20 C           0.1841    1.0558   26.9674 C.3     1  UNL1        0.0932
     21 N          -0.4391    1.3906   28.2900 N.3     1  UNL1       -0.1793
     22 H          -1.1329    0.6675   28.4801 H       1  UNL1        0.1488
     23 S           0.4177    1.5015   29.5162 S.O2    1  UNL1        0.0615
     24 O           0.2368    0.0351   29.7752 O.2     1  UNL1       -0.1530
     25 O           0.5986    2.9679   29.2571 O.2     1  UNL1       -0.1530
     26 C           1.2745    1.6124   30.7424 C.2     1  UNL1        0.1409
     27 C           0.8555    2.5059   31.8718 C.2     1  UNL1        0.0277
     28 C           1.7123    2.6169   33.0981 C.ar    1  UNL1        0.0309
     29 C           1.6460    3.7090   34.1242 C.ar    1  UNL1        0.0070
     30 C           2.6785    3.4222   35.1738 C.ar    1  UNL1        0.0075
     31 C           3.3831    2.1528   34.7963 C.ar    1  UNL1        0.0355
     32 S           2.7859    1.6552   33.5135 S.2     1  UNL1       -0.0864
     33 C           4.4903    1.4965   35.5664 C.ar    1  UNL1        0.0363
     34 C           4.6742    0.0206   35.7616 C.ar    1  UNL1        0.0084
     35 C           5.9057   -0.1872   36.5925 C.ar    1  UNL1        0.0185
     36 C           6.4828    1.1602   36.9108 C.ar    1  UNL1        0.0870
     37 CL          7.7179    1.4213   37.7211 Cl      1  UNL1       -0.0752
     38 S           5.6081    2.2008   36.2767 S.2     1  UNL1       -0.0750
@<TRIPOS>BOND
     1     1     2    2
     2     2     8    1
     3     8     9    1
     4     9    10    1
     5    10    11    1
     6    11    14    1
     7    14    15   ar
     8    15    16   ar
     9    16    17   ar
    10    17    18   ar
    11    18    19   ar
    12    11    12    1
    13    12    13    1
    14     2     3   am
    15     3     4    1
    16     4     5    1
    17     5     6    1
    18     6    20    1
    19    20    21    1
    20    21    23    1
    21    23    24    2
    22    23    25    2
    23    23    26    1
    24    26    27    2
    25    27    28    1
    26    28    29   ar
    27    29    30   ar
    28    30    31   ar
    29    31    33    1
    30    33    34   ar
    31    34    35   ar
    32    35    36   ar
    33    36    37    1
    34    36    38   ar
    35    31    32   ar
    36     6     7    1
    37    13     8    1
    38     7     3    1
    39    19    14   ar
    40    32    28   ar
    41    38    33   ar
    42    21    22    1
@<TRIPOS>MOLECULE
*****
 38 42 0 0 0
SMALL
GASTEIGER

@<TRIPOS>ATOM
      1 O           5.0321    0.7385   36.0964 O.2     1  UNL1       -0.2749
      2 C           4.5574    0.5342   34.6882 C.2     1  UNL1        0.2253
      3 N           3.4362    1.3701   34.1460 N.am    1  UNL1       -0.2795
      4 C           2.6969    2.4428   34.8895 C.3     1  UNL1        0.0935
      5 C           1.6612    3.0158   33.9681 C.3     1  UNL1        0.0246
      6 C           1.7605    2.2973   32.6550 C.3     1  UNL1        0.0390
      7 C           2.8575    1.2802   32.7650 C.3     1  UNL1        0.0948
      8 C           5.2040   -0.5061   33.8223 C.3     1  UNL1        0.0801
      9 C           4.6028   -1.8766   33.7206 C.3     1  UNL1        0.0305
     10 C           5.2494   -2.9168   32.8547 C.3     1  UNL1        0.0913
     11 N           6.4972   -2.5865   32.0905 N.pl3   1  UNL1       -0.3074
     12 C           7.0984   -1.2161   32.1922 C.3     1  UNL1        0.0913
     13 C           6.4518   -0.1759   33.0581 C.3     1  UNL1        0.0305
     14 C           7.1438   -3.6268   31.2245 C.ar    1  UNL1        0.0510
     15 C           8.0233   -3.2112   30.0828 C.ar    1  UNL1        0.0352
     16 C           8.6699   -4.2515   29.2169 C.ar    1  UNL1        0.1002
     17 N           8.4369   -5.7074   29.4927 N.ar    1  UNL1       -0.2422
     18 C           7.5573   -6.1230   30.6346 C.ar    1  UNL1        0.1002
     19 C           6.9108   -5.0827   31.5004 C.ar    1  UNL1        0.0352
     20 C           0.9117    2.5513   31.4446 C.3     1  UNL1        0.0932
     21 N           0.3972    1.3988   30.6342 N.3     1  UNL1       -0.1793
     22 H          -0.4915    1.6958   30.2311 H       1  UNL1        0.1488
     23 S           1.2204    0.8470   29.5082 S.O2    1  UNL1        0.0615
     24 O           1.1355    2.1663   28.7995 O.2     1  UNL1       -0.1530
     25 O           1.3053   -0.4724   30.2169 O.2     1  UNL1       -0.1530
     26 C           2.0436    0.2952   28.3822 C.2     1  UNL1        0.1409
     27 C           3.2025   -0.6110   28.6745 C.2     1  UNL1        0.0277
     28 C           4.0258   -1.1629   27.5486 C.ar    1  UNL1        0.0309
     29 C           3.7943   -0.9217   26.0863 C.ar    1  UNL1        0.0070
     30 C           4.8506   -1.6626   25.3213 C.ar    1  UNL1        0.0075
     31 C           5.7350   -2.3618   26.3108 C.ar    1  UNL1        0.0355
     32 S           5.2253   -2.0530   27.6873 S.2     1  UNL1       -0.0864
     33 C           6.9208   -3.2193   25.9815 C.ar    1  UNL1        0.0363
     34 C           8.3246   -2.7371   25.7649 C.ar    1  UNL1        0.0084
     35 C           9.1825   -3.9293   25.4605 C.ar    1  UNL1        0.0185
     36 C           8.3089   -5.1483   25.4890 C.ar    1  UNL1        0.0870
     37 CL          8.7548   -6.5587   25.2394 Cl      1  UNL1       -0.0752
     38 S           6.9111   -4.7095   25.8111 S.2     1  UNL1       -0.0750
@<TRIPOS>BOND
     1     1     2    2
     2     2     8    1
     3     8     9    1
     4     9    10    1
     5    10    11    1
     6    11    14    1
     7    14    15   ar
     8    15    16   ar
     9    16    17   ar
    10    17    18   ar
    11    18    19   ar
    12    11    12    1
    13    12    13    1
    14     2     3   am
    15     3     4    1
    16     4     5    1
    17     5     6    1
    18     6    20    1
    19    20    21    1
    20    21    23    1
    21    23    24    2
    22    23    25    2
    23    23    26    1
    24    26    27    2
    25    27    28    1
    26    28    29   ar
    27    29    30   ar
    28    30    31   ar
    29    31    33    1
    30    33    34   ar
    31    34    35   ar
    32    35    36   ar
    33    36    37    1
    34    36    38   ar
    35    31    32   ar
    36     6     7    1
    37    13     8    1
    38     7     3    1
    39    19    14   ar
    40    32    28   ar
    41    38    33   ar
    42    21    22    1
@<TRIPOS>MOLECULE
*****
 38 42 0 0 0
SMALL
GASTEIGER

@<TRIPOS>ATOM
      1 O           0.5657    5.2734   35.4282 O.2     1  UNL1       -0.2749
      2 C           1.7103    4.3334   35.6650 C.2     1  UNL1        0.2253
      3 N           2.1228    3.3688   34.5930 N.am    1  UNL1       -0.2795
      4 C           1.4886    3.2294   33.2408 C.3     1  UNL1        0.0935
      5 C           2.2157    2.1487   32.4970 C.3     1  UNL1        0.0246
      6 C           3.2994    1.6201   33.3895 C.3     1  UNL1        0.0390
      7 C           3.2419    2.3742   34.6848 C.3     1  UNL1        0.0948
      8 C           2.4425    4.3580   36.9740 C.3     1  UNL1        0.0801
      9 C           2.2417    3.2515   37.9666 C.3     1  UNL1        0.0305
     10 C           2.9739    3.2762   39.2755 C.3     1  UNL1        0.0913
     11 N           3.9068    4.4073   39.5918 N.pl3   1  UNL1       -0.3074
     12 C           4.1076    5.5138   38.5992 C.3     1  UNL1        0.0913
     13 C           3.3754    5.4892   37.2903 C.3     1  UNL1        0.0305
     14 C           4.6390    4.4319   40.9008 C.ar    1  UNL1        0.0510
     15 C           4.1200    5.2652   42.0349 C.ar    1  UNL1        0.0352
     16 C           4.8522    5.2898   43.3439 C.ar    1  UNL1        0.1002
     17 N           6.1034    4.4811   43.5187 N.ar    1  UNL1       -0.2422
     18 C           6.6223    3.6478   42.3845 C.ar    1  UNL1        0.1002
     19 C           5.8902    3.6232   41.0756 C.ar    1  UNL1        0.0352
     20 C           4.2700    0.5291   33.0467 C.3     1  UNL1        0.0932
     21 N           4.1272   -0.8260   33.6737 N.3     1  UNL1       -0.1793
     22 H           3.1447   -1.0871   33.5902 H       1  UNL1        0.1488
     23 S           4.9281   -1.9820   33.1520 S.O2    1  UNL1        0.0615
     24 O           3.8877   -2.9338   33.6634 O.2     1  UNL1       -0.1530
     25 O           5.9686   -1.0302   32.6405 O.2     1  UNL1       -0.1530
     26 C           5.7291   -3.1380   32.6303 C.2     1  UNL1        0.1409
     27 C           6.0860   -3.2071   31.1751 C.2     1  UNL1        0.0277
     28 C           6.8870   -4.3630   30.6533 C.ar    1  UNL1        0.0309
     29 C           7.7849   -5.2507   31.4631 C.ar    1  UNL1        0.0070
     30 C           8.3835   -6.2705   30.5403 C.ar    1  UNL1        0.0075
     31 C           7.8555   -6.0131   29.1600 C.ar    1  UNL1        0.0355
     32 S           6.9307   -4.8343   29.2298 S.2     1  UNL1       -0.0864
     33 C           8.1932   -6.7970   27.9265 C.ar    1  UNL1        0.0363
     34 C           8.9512   -8.0907   27.8840 C.ar    1  UNL1        0.0084
     35 C           9.0586   -8.5181   26.4502 C.ar    1  UNL1        0.0185
     36 C           8.3670   -7.4885   25.6066 C.ar    1  UNL1        0.0870
     37 CL          8.2336   -7.5175   24.1127 Cl      1  UNL1       -0.0752
     38 S           7.8321   -6.4249   26.5190 S.2     1  UNL1       -0.0750
@<TRIPOS>BOND
     1     1     2    2
     2     2     8    1
     3     8     9    1
     4     9    10    1
     5    10    11    1
     6    11    14    1
     7    14    15   ar
     8    15    16   ar
     9    16    17   ar
    10    17    18   ar
    11    18    19   ar
    12    11    12    1
    13    12    13    1
    14     2     3   am
    15     3     4    1
    16     4     5    1
    17     5     6    1
    18     6    20    1
    19    20    21    1
    20    21    23    1
    21    23    24    2
    22    23    25    2
    23    23    26    1
    24    26    27    2
    25    27    28    1
    26    28    29   ar
    27    29    30   ar
    28    30    31   ar
    29    31    33    1
    30    33    34   ar
    31    34    35   ar
    32    35    36   ar
    33    36    37    1
    34    36    38   ar
    35    31    32   ar
    36     6     7    1
    37    13     8    1
    38     7     3    1
    39    19    14   ar
    40    32    28   ar
    41    38    33   ar
    42    21    22    1
@<TRIPOS>MOLECULE
*****
 38 42 0 0 0
SMALL
GASTEIGER

@<TRIPOS>ATOM
      1 O           3.9600    1.4085   34.5657 O.2     1  UNL1       -0.2749
      2 C           3.6722    0.8182   33.2171 C.2     1  UNL1        0.2253
      3 N           2.5243    1.3352   32.4016 N.am    1  UNL1       -0.2795
      4 C           1.5823    2.4320   32.8011 C.3     1  UNL1        0.0935
      5 C           0.5928    2.6208   31.6898 C.3     1  UNL1        0.0246
      6 C           0.9231    1.6406   30.6034 C.3     1  UNL1        0.0390
      7 C           2.1169    0.8461   31.0433 C.3     1  UNL1        0.0948
      8 C           4.5323   -0.2892   32.6841 C.3     1  UNL1        0.0801
      9 C           5.4593   -0.0312   31.5334 C.3     1  UNL1        0.0305
     10 C           6.3193   -1.1386   31.0005 C.3     1  UNL1        0.0913
     11 N           6.2524   -2.5038   31.6182 N.pl3   1  UNL1       -0.3074
     12 C           5.3254   -2.7618   32.7689 C.3     1  UNL1        0.0913
     13 C           4.4653   -1.6544   33.3018 C.3     1  UNL1        0.0305
     14 C           7.1125   -3.6112   31.0852 C.ar    1  UNL1        0.0510
     15 C           8.4534   -3.8819   31.7006 C.ar    1  UNL1        0.0352
     16 C           9.3135   -4.9892   31.1675 C.ar    1  UNL1        0.1002
     17 N           8.8326   -5.8258   30.0191 N.ar    1  UNL1       -0.2422
     18 C           7.4917   -5.5551   29.4037 C.ar    1  UNL1        0.1002
     19 C           6.6317   -4.4478   29.9368 C.ar    1  UNL1        0.0352
     20 C           0.1887    1.4827   29.3050 C.3     1  UNL1        0.0932
     21 N           0.4325    2.4482   28.1833 N.3     1  UNL1       -0.1793
     22 H           1.2490    2.1088   27.6749 H       1  UNL1        0.1488
     23 S          -0.6387    2.6992   27.1637 S.O2    1  UNL1        0.0615
     24 O          -0.6277    1.2455   26.7942 O.2     1  UNL1       -0.1530
     25 O          -0.6497    4.1530   27.5333 O.2     1  UNL1       -0.1530
     26 C          -1.7099    2.9503   26.1442 C.2     1  UNL1        0.1409
     27 C          -2.9691    3.6630   26.5393 C.2     1  UNL1        0.0277
     28 C          -4.0404    3.9142   25.5198 C.ar    1  UNL1        0.0309
     29 C          -5.4148    4.4467   25.7978 C.ar    1  UNL1        0.0070
     30 C          -6.1491    4.5385   24.4931 C.ar    1  UNL1        0.0075
     31 C          -5.2284    4.0626   23.4086 C.ar    1  UNL1        0.0355
     32 S          -3.9253    3.6768   24.0432 S.2     1  UNL1       -0.0864
     33 C          -5.5539    3.9861   21.9464 C.ar    1  UNL1        0.0363
     34 C          -4.8267    3.1652   20.9230 C.ar    1  UNL1        0.0084
     35 C          -5.4873    3.3889   19.5949 C.ar    1  UNL1        0.0185
     36 C          -6.6226    4.3479   19.7975 C.ar    1  UNL1        0.0870
     37 CL         -7.5535    4.8499   18.7336 Cl      1  UNL1       -0.0752
     38 S          -6.6638    4.7170   21.2508 S.2     1  UNL1       -0.0750
@<TRIPOS>BOND
     1     1     2    2
     2     2     8    1
     3     8     9    1
     4     9    10    1
     5    10    11    1
     6    11    14    1
     7    14    15   ar
     8    15    16   ar
     9    16    17   ar
    10    17    18   ar
    11    18    19   ar
    12    11    12    1
    13    12    13    1
    14     2     3   am
    15     3     4    1
    16     4     5    1
    17     5     6    1
    18     6    20    1
    19    20    21    1
    20    21    23    1
    21    23    24    2
    22    23    25    2
    23    23    26    1
    24    26    27    2
    25    27    28    1
    26    28    29   ar
    27    29    30   ar
    28    30    31   ar
    29    31    33    1
    30    33    34   ar
    31    34    35   ar
    32    35    36   ar
    33    36    37    1
    34    36    38   ar
    35    31    32   ar
    36     6     7    1
    37    13     8    1
    38     7     3    1
    39    19    14   ar
    40    32    28   ar
    41    38    33   ar
    42    21    22    1
@<TRIPOS>MOLECULE
*****
 38 42 0 0 0
SMALL
GASTEIGER

@<TRIPOS>ATOM
      1 O           9.2915   -6.8757   31.8202 O.2     1  UNL1       -0.2749
      2 C           8.5170   -5.9685   30.9107 C.2     1  UNL1        0.2253
      3 N           8.2871   -6.3584   29.4807 N.am    1  UNL1       -0.2795
      4 C           8.7681   -7.6172   28.8218 C.3     1  UNL1        0.0935
      5 C           8.3141   -7.5947   27.3923 C.3     1  UNL1        0.0246
      6 C           7.5526   -6.3220   27.1677 C.3     1  UNL1        0.0390
      7 C           7.5359   -5.5580   28.4584 C.3     1  UNL1        0.0948
      8 C           7.9725   -4.6714   31.4313 C.3     1  UNL1        0.0801
      9 C           8.8104   -3.4287   31.3724 C.3     1  UNL1        0.0305
     10 C           8.2658   -2.1316   31.8930 C.3     1  UNL1        0.0913
     11 N           6.8834   -2.0773   32.4725 N.pl3   1  UNL1       -0.3074
     12 C           6.0455   -3.3200   32.5315 C.3     1  UNL1        0.0913
     13 C           6.5900   -4.6171   32.0109 C.3     1  UNL1        0.0305
     14 C           6.3388   -0.7801   32.9931 C.ar    1  UNL1        0.0510
     15 C           7.1103    0.4908   32.7944 C.ar    1  UNL1        0.0352
     16 C           6.5657    1.7879   33.3150 C.ar    1  UNL1        0.1002
     17 N           5.2497    1.8141   34.0344 N.ar    1  UNL1       -0.2422
     18 C           4.4783    0.5430   34.2331 C.ar    1  UNL1        0.1002
     19 C           5.0228   -0.7540   33.7125 C.ar    1  UNL1        0.0352
     20 C           6.9190   -5.8894   25.8788 C.3     1  UNL1        0.0932
     21 N           7.5630   -4.8189   25.0487 N.3     1  UNL1       -0.1793
     22 H           8.4382   -5.2062   24.6961 H       1  UNL1        0.1488
     23 S           6.8362   -4.2462   23.8681 S.O2    1  UNL1        0.0615
     24 O           6.2013   -3.2186   24.7574 O.2     1  UNL1       -0.1530
     25 O           7.4712   -5.2739   22.9788 O.2     1  UNL1       -0.1530
     26 C           6.1094   -3.6735   22.6875 C.2     1  UNL1        0.1409
     27 C           4.7932   -2.9807   22.8809 C.2     1  UNL1        0.0277
     28 C           4.0664   -2.4080   21.7003 C.ar    1  UNL1        0.0309
     29 C           4.0987   -2.9444   20.2999 C.ar    1  UNL1        0.0070
     30 C           3.2319   -2.0662   19.4470 C.ar    1  UNL1        0.0075
     31 C           2.6638   -0.9870   20.3205 C.ar    1  UNL1        0.0355
     32 S           3.1795   -1.1983   21.7130 S.2     1  UNL1       -0.0864
     33 C           1.7419    0.1106   19.8787 C.ar    1  UNL1        0.0363
     34 C           1.6660    0.6970   18.5001 C.ar    1  UNL1        0.0084
     35 C           0.6111    1.7634   18.5074 C.ar    1  UNL1        0.0185
     36 C           0.0351    1.8361   19.8905 C.ar    1  UNL1        0.0870
     37 CL         -1.0494    2.7669   20.3462 Cl      1  UNL1       -0.0752
     38 S           0.7339    0.8147   20.7380 S.2     1  UNL1       -0.0750
@<TRIPOS>BOND
     1     1     2    2
     2     2     8    1
     3     8     9    1
     4     9    10    1
     5    10    11    1
     6    11    14    1
     7    14    15   ar
     8    15    16   ar
     9    16    17   ar
    10    17    18   ar
    11    18    19   ar
    12    11    12    1
    13    12    13    1
    14     2     3   am
    15     3     4    1
    16     4     5    1
    17     5     6    1
    18     6    20    1
    19    20    21    1
    20    21    23    1
    21    23    24    2
    22    23    25    2
    23    23    26    1
    24    26    27    2
    25    27    28    1
    26    28    29   ar
    27    29    30   ar
    28    30    31   ar
    29    31    33    1
    30    33    34   ar
    31    34    35   ar
    32    35    36   ar
    33    36    37    1
    34    36    38   ar
    35    31    32   ar
    36     6     7    1
    37    13     8    1
    38     7     3    1
    39    19    14   ar
    40    32    28   ar
    41    38    33   ar
    42    21    22    1
@<TRIPOS>MOLECULE
*****
 38 42 0 0 0
SMALL
GASTEIGER

@<TRIPOS>ATOM
      1 O          -0.2226    3.1517   17.7305 O.2     1  UNL1       -0.2749
      2 C           0.1203    2.6728   19.1100 C.2     1  UNL1        0.2253
      3 N          -0.4238    3.3902   20.3097 N.am    1  UNL1       -0.2795
      4 C          -1.3180    4.5943   20.2865 C.3     1  UNL1        0.0935
      5 C          -1.6161    4.9777   21.7057 C.3     1  UNL1        0.0246
      6 C          -0.9060    4.0106   22.6061 C.3     1  UNL1        0.0390
      7 C          -0.1692    3.0295   21.7433 C.3     1  UNL1        0.0948
      8 C           1.0072    1.4765   19.2898 C.3     1  UNL1        0.0801
      9 C           0.5148    0.2866   20.0590 C.3     1  UNL1        0.0305
     10 C           1.4017   -0.9096   20.2387 C.3     1  UNL1        0.0913
     11 N           2.7811   -0.9159   19.6494 N.pl3   1  UNL1       -0.3074
     12 C           3.2735    0.2740   18.8803 C.3     1  UNL1        0.0913
     13 C           2.3866    1.4702   18.7005 C.3     1  UNL1        0.0305
     14 C           3.6680   -2.1122   19.8292 C.ar    1  UNL1        0.0510
     15 C           4.3291   -2.3637   21.1520 C.ar    1  UNL1        0.0352
     16 C           5.2160   -3.5600   21.3318 C.ar    1  UNL1        0.1002
     17 N           5.4419   -4.5047   20.1888 N.ar    1  UNL1       -0.2422
     18 C           4.7808   -4.2532   18.8660 C.ar    1  UNL1        0.1002
     19 C           3.8939   -3.0569   18.6862 C.ar    1  UNL1        0.0352
     20 C          -0.9289    4.0225   24.1059 C.3     1  UNL1        0.0932
     21 N          -1.4484    2.8330   24.8575 N.3     1  UNL1       -0.1793
     22 H          -1.1927    2.0076   24.3156 H       1  UNL1        0.1488
     23 S          -1.0001    2.5819   26.2667 S.O2    1  UNL1        0.0615
     24 O          -1.6702    3.8499   26.7059 O.2     1  UNL1       -0.1530
     25 O          -0.3299    1.3138   25.8274 O.2     1  UNL1       -0.1530
     26 C          -0.5517    2.3307   27.6759 C.2     1  UNL1        0.1409
     27 C           0.8557    1.8890   27.9476 C.2     1  UNL1        0.0277
     28 C           1.3042    1.6379   29.3568 C.ar    1  UNL1        0.0309
     29 C           0.8351    2.3749   30.5761 C.ar    1  UNL1        0.0070
     30 C           1.5416    1.7980   31.7670 C.ar    1  UNL1        0.0075
     31 C           2.4474    0.7043   31.2836 C.ar    1  UNL1        0.0355
     32 S           2.3007    0.6054   29.7942 S.2     1  UNL1       -0.0864
     33 C           3.3426   -0.1417   32.1396 C.ar    1  UNL1        0.0363
     34 C           3.6903    0.1161   33.5758 C.ar    1  UNL1        0.0084
     35 C           4.6099   -0.9771   34.0335 C.ar    1  UNL1        0.0185
     36 C           4.8306   -1.9104   32.8801 C.ar    1  UNL1        0.0870
     37 CL          5.6845   -3.1435   32.8947 Cl      1  UNL1       -0.0752
     38 S           4.0473   -1.3941   31.7097 S.2     1  UNL1       -0.0750
@<TRIPOS>BOND
     1     1     2    2
     2     2     8    1
     3     8     9    1
     4     9    10    1
     5    10    11    1
     6    11    14    1
     7    14    15   ar
     8    15    16   ar
     9    16    17   ar
    10    17    18   ar
    11    18    19   ar
    12    11    12    1
    13    12    13    1
    14     2     3   am
    15     3     4    1
    16     4     5    1
    17     5     6    1
    18     6    20    1
    19    20    21    1
    20    21    23    1
    21    23    24    2
    22    23    25    2
    23    23    26    1
    24    26    27    2
    25    27    28    1
    26    28    29   ar
    27    29    30   ar
    28    30    31   ar
    29    31    33    1
    30    33    34   ar
    31    34    35   ar
    32    35    36   ar
    33    36    37    1
    34    36    38   ar
    35    31    32   ar
    36     6     7    1
    37    13     8    1
    38     7     3    1
    39    19    14   ar
    40    32    28   ar
    41    38    33   ar
    42    21    22    1
