@<TRIPOS>MOLECULE
*****
 22 24 0 0 0
SMALL
GASTEIGER

@<TRIPOS>ATOM
      1 C          -8.6259  -17.0187   22.5213 C.ar    1  UNL1       -0.0144
      2 C          -8.0066  -18.3343   22.1530 C.ar    1  UNL1        0.0051
      3 S          -9.1065  -19.2615   21.7281 S.2     1  UNL1       -0.0915
      4 C         -10.4055  -18.5190   21.8337 C.ar    1  UNL1        0.0288
      5 C         -11.8204  -18.9260   21.5469 C.ar    1  UNL1        0.0065
      6 C         -12.9384  -17.9468   21.7502 C.ar    1  UNL1        0.0005
      7 C         -12.6414  -16.5606   22.2404 C.ar    1  UNL1        0.0000
      8 C         -11.2264  -16.1536   22.5273 C.ar    1  UNL1        0.0002
      9 C         -10.1085  -17.1328   22.3239 C.ar    1  UNL1        0.0025
     10 C          -7.5364  -14.7102   22.0374 C.3     1  UNL1        0.0110
     11 C          -7.8916  -15.8024   23.0024 C.3     1  UNL1        0.0627
     12 C          -7.5124  -15.6782   24.4483 C.ar    1  UNL1        0.0627
     13 C          -8.5753  -15.6966   25.5066 C.ar    1  UNL1        0.0151
     14 C          -8.1962  -15.5724   26.9526 C.ar    1  UNL1        0.0028
     15 C          -6.7541  -15.4299   27.3403 C.ar    1  UNL1        0.0207
     16 C          -5.6913  -15.4116   26.2820 C.ar    1  UNL1        0.0985
     17 N          -6.0704  -15.5358   24.8360 N.ar    1  UNL1       -0.2478
     18 C          -6.5443  -18.6646   22.2012 C.3     1  UNL1        0.0499
     19 C          -5.8319  -19.0986   20.9546 C.3     1  UNL1        0.0774
     20 N          -4.3488  -18.9097   20.8339 N.3     1  UNL1       -0.2700
     21 C          -3.7160  -18.7877   19.4793 C.3     1  UNL1        0.0897
     22 C          -3.4984  -18.8427   22.0677 C.3     1  UNL1        0.0897
@<TRIPOS>BOND
     1    11    10    1
     2    11    12    1
     3    12    13   ar
     4    13    14   ar
     5    14    15   ar
     6    15    16   ar
     7    16    17   ar
     8    11     1    1
     9     1     2   ar
    10     2    18    1
    11    18    19    1
    12    19    20    1
    13    20    21    1
    14    20    22    1
    15     2     3   ar
    16     3     4   ar
    17     4     5   ar
    18     5     6   ar
    19     6     7   ar
    20     7     8   ar
    21     8     9   ar
    22    17    12   ar
    23     9     1   ar
    24     9     4   ar
@<TRIPOS>MOLECULE
*****
 22 24 0 0 0
SMALL
GASTEIGER

@<TRIPOS>ATOM
      1 C          -7.9325  -19.2113   21.6761 C.ar    1  UNL1       -0.0144
      2 C          -8.5710  -19.5448   20.3605 C.ar    1  UNL1        0.0051
      3 S          -7.4846  -19.9419   19.4055 S.2     1  UNL1       -0.0915
      4 C          -6.1747  -19.8538   20.1310 C.ar    1  UNL1        0.0288
      5 C          -4.7656  -20.1264   19.6950 C.ar    1  UNL1        0.0065
      6 C          -3.6333  -19.9475   20.6624 C.ar    1  UNL1        0.0005
      7 C          -3.9102  -19.4959   22.0658 C.ar    1  UNL1        0.0000
      8 C          -5.3193  -19.2233   22.5018 C.ar    1  UNL1        0.0002
      9 C          -6.4515  -19.4022   21.5343 C.ar    1  UNL1        0.0025
     10 C          -9.6355  -19.6784   23.5820 C.3     1  UNL1        0.0110
     11 C          -8.6492  -18.7651   22.9160 C.3     1  UNL1        0.0627
     12 C          -8.3798  -17.4058   23.4900 C.ar    1  UNL1        0.0627
     13 C          -9.0199  -16.9975   24.7837 C.ar    1  UNL1        0.0151
     14 C          -8.7505  -15.6382   25.3578 C.ar    1  UNL1        0.0028
     15 C          -7.8409  -14.6870   24.6381 C.ar    1  UNL1        0.0207
     16 C          -7.2008  -15.0952   23.3445 C.ar    1  UNL1        0.0985
     17 N          -7.4702  -16.4545   22.7704 N.ar    1  UNL1       -0.2478
     18 C         -10.0383  -19.4907   20.0536 C.3     1  UNL1        0.0499
     19 C         -10.6915  -18.1768   19.7422 C.3     1  UNL1        0.0774
     20 N         -11.2862  -17.3545   20.8468 N.3     1  UNL1       -0.2700
     21 C         -12.4026  -17.9120   21.6792 C.3     1  UNL1        0.0897
     22 C         -10.7646  -15.9747   21.1190 C.3     1  UNL1        0.0897
@<TRIPOS>BOND
     1    11    10    1
     2    11    12    1
     3    12    13   ar
     4    13    14   ar
     5    14    15   ar
     6    15    16   ar
     7    16    17   ar
     8    11     1    1
     9     1     2   ar
    10     2    18    1
    11    18    19    1
    12    19    20    1
    13    20    21    1
    14    20    22    1
    15     2     3   ar
    16     3     4   ar
    17     4     5   ar
    18     5     6   ar
    19     6     7   ar
    20     7     8   ar
    21     8     9   ar
    22    17    12   ar
    23     9     1   ar
    24     9     4   ar
@<TRIPOS>MOLECULE
*****
 22 24 0 0 0
SMALL
GASTEIGER

@<TRIPOS>ATOM
      1 C          -7.4048  -18.3161   21.9394 C.ar    1  UNL1       -0.0144
      2 C          -7.3622  -17.0281   22.7069 C.ar    1  UNL1        0.0051
      3 S          -8.6240  -16.2719   22.4136 S.2     1  UNL1       -0.0915
      4 C          -9.4464  -17.0926   21.4649 C.ar    1  UNL1        0.0288
      5 C         -10.7841  -16.8527   20.8301 C.ar    1  UNL1        0.0065
      6 C         -11.3682  -17.8762   19.9022 C.ar    1  UNL1        0.0005
      7 C         -10.6147  -19.1396   19.6090 C.ar    1  UNL1        0.0000
      8 C          -9.2771  -19.3795   20.2439 C.ar    1  UNL1        0.0002
      9 C          -8.6929  -18.3560   21.1718 C.ar    1  UNL1        0.0025
     10 C          -6.6589  -20.7504   22.4573 C.3     1  UNL1        0.0110
     11 C          -6.3453  -19.3780   21.9394 C.3     1  UNL1        0.0627
     12 C          -4.9722  -19.0675   21.4216 C.ar    1  UNL1        0.0627
     13 C          -3.8013  -19.0586   22.3592 C.ar    1  UNL1        0.0151
     14 C          -2.4282  -18.7481   21.8415 C.ar    1  UNL1        0.0028
     15 C          -2.2259  -18.4465   20.3861 C.ar    1  UNL1        0.0207
     16 C          -3.3967  -18.4553   19.4485 C.ar    1  UNL1        0.0985
     17 N          -4.7699  -18.7658   19.9663 N.ar    1  UNL1       -0.2478
     18 C          -6.2526  -16.5757   23.6092 C.3     1  UNL1        0.0499
     19 C          -6.4329  -15.3589   24.4676 C.3     1  UNL1        0.0774
     20 N          -7.1000  -15.4774   25.8059 N.3     1  UNL1       -0.2700
     21 C          -6.2700  -15.5789   27.0513 C.3     1  UNL1        0.0897
     22 C          -8.5970  -15.4944   25.8988 C.3     1  UNL1        0.0897
@<TRIPOS>BOND
     1    11    10    1
     2    11    12    1
     3    12    13   ar
     4    13    14   ar
     5    14    15   ar
     6    15    16   ar
     7    16    17   ar
     8    11     1    1
     9     1     2   ar
    10     2    18    1
    11    18    19    1
    12    19    20    1
    13    20    21    1
    14    20    22    1
    15     2     3   ar
    16     3     4   ar
    17     4     5   ar
    18     5     6   ar
    19     6     7   ar
    20     7     8   ar
    21     8     9   ar
    22    17    12   ar
    23     9     1   ar
    24     9     4   ar
@<TRIPOS>MOLECULE
*****
 22 24 0 0 0
SMALL
GASTEIGER

@<TRIPOS>ATOM
      1 C          -6.6699  -17.7443   22.7008 C.ar    1  UNL1       -0.0144
      2 C          -7.3511  -18.9975   22.2365 C.ar    1  UNL1        0.0051
      3 S          -6.2908  -19.9814   21.8395 S.2     1  UNL1       -0.0915
      4 C          -4.9544  -19.3364   22.0584 C.ar    1  UNL1        0.0288
      5 C          -3.5544  -19.8294   21.8418 C.ar    1  UNL1        0.0065
      6 C          -2.3887  -18.9397   22.1575 C.ar    1  UNL1        0.0005
      7 C          -2.6231  -17.5571   22.6898 C.ar    1  UNL1        0.0000
      8 C          -4.0230  -17.0641   22.9064 C.ar    1  UNL1        0.0002
      9 C          -5.1887  -17.9537   22.5907 C.ar    1  UNL1        0.0025
     10 C          -8.0919  -15.6226   22.2246 C.3     1  UNL1        0.0110
     11 C          -7.3505  -16.5001   23.1893 C.3     1  UNL1        0.0627
     12 C          -7.2898  -16.1332   24.6424 C.ar    1  UNL1        0.0627
     13 C          -8.4776  -16.3727   25.5267 C.ar    1  UNL1        0.0151
     14 C          -8.4170  -16.0059   26.9799 C.ar    1  UNL1        0.0028
     15 C          -7.1686  -15.3995   27.5489 C.ar    1  UNL1        0.0207
     16 C          -5.9808  -15.1600   26.6647 C.ar    1  UNL1        0.0985
     17 N          -6.0414  -15.5269   25.2115 N.ar    1  UNL1       -0.2478
     18 C          -8.8324  -19.2265   22.1793 C.3     1  UNL1        0.0499
     19 C          -9.6302  -18.6908   21.0276 C.3     1  UNL1        0.0774
     20 N         -10.7884  -17.7718   21.2805 N.3     1  UNL1       -0.2700
     21 C         -11.2305  -17.4917   22.6863 C.3     1  UNL1        0.0897
     22 C         -11.5046  -17.1330   20.1277 C.3     1  UNL1        0.0897
@<TRIPOS>BOND
     1    11    10    1
     2    11    12    1
     3    12    13   ar
     4    13    14   ar
     5    14    15   ar
     6    15    16   ar
     7    16    17   ar
     8    11     1    1
     9     1     2   ar
    10     2    18    1
    11    18    19    1
    12    19    20    1
    13    20    21    1
    14    20    22    1
    15     2     3   ar
    16     3     4   ar
    17     4     5   ar
    18     5     6   ar
    19     6     7   ar
    20     7     8   ar
    21     8     9   ar
    22    17    12   ar
    23     9     1   ar
    24     9     4   ar
@<TRIPOS>MOLECULE
*****
 22 24 0 0 0
SMALL
GASTEIGER

@<TRIPOS>ATOM
      1 C          -7.9433  -18.5302   22.5236 C.ar    1  UNL1       -0.0144
      2 C          -7.3963  -17.3080   23.1997 C.ar    1  UNL1        0.0051
      3 S          -5.9269  -17.2352   22.9074 S.2     1  UNL1       -0.0915
      4 C          -5.5657  -18.4123   22.0507 C.ar    1  UNL1        0.0288
      5 C          -4.2630  -18.8587   21.4560 C.ar    1  UNL1        0.0065
      6 C          -4.2066  -20.1056   20.6241 C.ar    1  UNL1        0.0005
      7 C          -5.4528  -20.9060   20.3869 C.ar    1  UNL1        0.0000
      8 C          -6.7555  -20.4595   20.9816 C.ar    1  UNL1        0.0002
      9 C          -6.8119  -19.2127   21.8135 C.ar    1  UNL1        0.0025
     10 C          -9.7314  -20.2759   23.2344 C.3     1  UNL1        0.0110
     11 C          -9.3710  -18.9894   22.5525 C.3     1  UNL1        0.0627
     12 C         -10.4383  -18.1621   21.8996 C.ar    1  UNL1        0.0627
     13 C         -11.8708  -18.3229   22.3144 C.ar    1  UNL1        0.0151
     14 C         -12.9382  -17.4956   21.6615 C.ar    1  UNL1        0.0028
     15 C         -12.5731  -16.5075   20.5937 C.ar    1  UNL1        0.0207
     16 C         -11.1406  -16.3466   20.1788 C.ar    1  UNL1        0.0985
     17 N         -10.0732  -17.1739   20.8317 N.ar    1  UNL1       -0.2478
     18 C          -8.1810  -16.3304   24.0234 C.3     1  UNL1        0.0499
     19 C          -7.4848  -15.1781   24.6848 C.3     1  UNL1        0.0774
     20 N          -6.8091  -15.3708   26.0100 N.3     1  UNL1       -0.2700
     21 C          -5.3126  -15.3248   26.1025 C.3     1  UNL1        0.0897
     22 C          -7.6297  -15.6095   27.2427 C.3     1  UNL1        0.0897
@<TRIPOS>BOND
     1    11    10    1
     2    11    12    1
     3    12    13   ar
     4    13    14   ar
     5    14    15   ar
     6    15    16   ar
     7    16    17   ar
     8    11     1    1
     9     1     2   ar
    10     2    18    1
    11    18    19    1
    12    19    20    1
    13    20    21    1
    14    20    22    1
    15     2     3   ar
    16     3     4   ar
    17     4     5   ar
    18     5     6   ar
    19     6     7   ar
    20     7     8   ar
    21     8     9   ar
    22    17    12   ar
    23     9     1   ar
    24     9     4   ar
@<TRIPOS>MOLECULE
*****
 22 24 0 0 0
SMALL
GASTEIGER

@<TRIPOS>ATOM
      1 C          -8.6558  -17.1346   23.8155 C.ar    1  UNL1       -0.0144
      2 C          -9.7113  -17.9667   24.4817 C.ar    1  UNL1        0.0051
      3 S          -9.5988  -17.7589   25.9630 S.2     1  UNL1       -0.0915
      4 C          -8.4739  -16.7985   26.2123 C.ar    1  UNL1        0.0288
      5 C          -7.9050  -16.2254   27.4764 C.ar    1  UNL1        0.0065
      6 C          -6.7533  -15.2666   27.4132 C.ar    1  UNL1        0.0005
      7 C          -6.1705  -14.8807   26.0860 C.ar    1  UNL1        0.0000
      8 C          -6.7394  -15.4537   24.8220 C.ar    1  UNL1        0.0002
      9 C          -7.8911  -16.4126   24.8851 C.ar    1  UNL1        0.0025
     10 C          -8.8058  -15.8041   21.5890 C.3     1  UNL1        0.0110
     11 C          -8.4085  -17.0410   22.3390 C.3     1  UNL1        0.0627
     12 C          -7.7640  -18.1840   21.6125 C.ar    1  UNL1        0.0627
     13 C          -6.5273  -18.8248   22.1693 C.ar    1  UNL1        0.0151
     14 C          -5.8827  -19.9679   21.4428 C.ar    1  UNL1        0.0028
     15 C          -6.4748  -20.4702   20.1594 C.ar    1  UNL1        0.0207
     16 C          -7.7115  -19.8295   19.6026 C.ar    1  UNL1        0.0985
     17 N          -8.3561  -18.6864   20.3291 N.ar    1  UNL1       -0.2478
     18 C         -10.7047  -18.8512   23.7883 C.3     1  UNL1        0.0499
     19 C         -12.0296  -18.2963   23.3561 C.3     1  UNL1        0.0774
     20 N         -12.0985  -17.3164   22.2225 N.3     1  UNL1       -0.2700
     21 C         -12.3635  -15.8662   22.4996 C.3     1  UNL1        0.0897
     22 C         -11.9026  -17.7868   20.8117 C.3     1  UNL1        0.0897
@<TRIPOS>BOND
     1    11    10    1
     2    11    12    1
     3    12    13   ar
     4    13    14   ar
     5    14    15   ar
     6    15    16   ar
     7    16    17   ar
     8    11     1    1
     9     1     2   ar
    10     2    18    1
    11    18    19    1
    12    19    20    1
    13    20    21    1
    14    20    22    1
    15     2     3   ar
    16     3     4   ar
    17     4     5   ar
    18     5     6   ar
    19     6     7   ar
    20     7     8   ar
    21     8     9   ar
    22    17    12   ar
    23     9     1   ar
    24     9     4   ar
@<TRIPOS>MOLECULE
*****
 22 24 0 0 0
SMALL
GASTEIGER

@<TRIPOS>ATOM
      1 C          -5.8558  -18.5450   22.2814 C.ar    1  UNL1       -0.0144
      2 C          -4.3754  -18.6717   22.4871 C.ar    1  UNL1        0.0051
      3 S          -3.9338  -17.5501   23.3799 S.2     1  UNL1       -0.0915
      4 C          -5.1413  -16.7302   23.7260 C.ar    1  UNL1        0.0288
      5 C          -5.3127  -15.5033   24.5716 C.ar    1  UNL1        0.0065
      6 C          -6.6719  -14.8912   24.7383 C.ar    1  UNL1        0.0005
      7 C          -7.8598  -15.5060   24.0594 C.ar    1  UNL1        0.0000
      8 C          -7.6884  -16.7330   23.2138 C.ar    1  UNL1        0.0002
      9 C          -6.3292  -17.3451   23.0471 C.ar    1  UNL1        0.0025
     10 C          -6.1118  -20.2162   20.3087 C.3     1  UNL1        0.0110
     11 C          -6.7125  -19.4579   21.4552 C.3     1  UNL1        0.0627
     12 C          -8.1697  -19.6125   21.7752 C.ar    1  UNL1        0.0627
     13 C          -9.2044  -19.2721   20.7439 C.ar    1  UNL1        0.0151
     14 C         -10.6616  -19.4268   21.0639 C.ar    1  UNL1        0.0028
     15 C         -11.0843  -19.9219   22.4153 C.ar    1  UNL1        0.0207
     16 C         -10.0496  -20.2623   23.4466 C.ar    1  UNL1        0.0985
     17 N          -8.5924  -20.1076   23.1266 N.ar    1  UNL1       -0.2478
     18 C          -3.4917  -19.7335   21.9026 C.3     1  UNL1        0.0499
     19 C          -2.0885  -19.3989   21.4916 C.3     1  UNL1        0.0774
     20 N          -1.8393  -18.6434   20.2200 N.3     1  UNL1       -0.2700
     21 C          -2.9065  -18.5727   19.1682 C.3     1  UNL1        0.0897
     22 C          -0.5231  -17.9585   20.0001 C.3     1  UNL1        0.0897
@<TRIPOS>BOND
     1    11    10    1
     2    11    12    1
     3    12    13   ar
     4    13    14   ar
     5    14    15   ar
     6    15    16   ar
     7    16    17   ar
     8    11     1    1
     9     1     2   ar
    10     2    18    1
    11    18    19    1
    12    19    20    1
    13    20    21    1
    14    20    22    1
    15     2     3   ar
    16     3     4   ar
    17     4     5   ar
    18     5     6   ar
    19     6     7   ar
    20     7     8   ar
    21     8     9   ar
    22    17    12   ar
    23     9     1   ar
    24     9     4   ar
@<TRIPOS>MOLECULE
*****
 22 24 0 0 0
SMALL
GASTEIGER

@<TRIPOS>ATOM
      1 C          -6.9869  -18.5898   21.8599 C.ar    1  UNL1       -0.0144
      2 C          -6.6557  -17.5079   22.8447 C.ar    1  UNL1        0.0051
      3 S          -5.1639  -17.4563   22.9922 S.2     1  UNL1       -0.0915
      4 C          -4.5731  -18.5062   22.0986 C.ar    1  UNL1        0.0288
      5 C          -3.1547  -18.9149   21.8317 C.ar    1  UNL1        0.0065
      6 C          -2.8631  -20.0240   20.8650 C.ar    1  UNL1        0.0005
      7 C          -3.9897  -20.7246   20.1651 C.ar    1  UNL1        0.0000
      8 C          -5.4081  -20.3159   20.4320 C.ar    1  UNL1        0.0002
      9 C          -5.6997  -19.2068   21.3987 C.ar    1  UNL1        0.0025
     10 C          -8.6094  -19.3620   19.9833 C.3     1  UNL1        0.0110
     11 C          -8.3635  -18.9853   21.4143 C.3     1  UNL1        0.0627
     12 C          -9.4943  -19.0040   22.3996 C.ar    1  UNL1        0.0627
     13 C          -9.4281  -19.9007   23.6003 C.ar    1  UNL1        0.0151
     14 C         -10.5589  -19.9195   24.5856 C.ar    1  UNL1        0.0028
     15 C         -11.7559  -19.0415   24.3704 C.ar    1  UNL1        0.0207
     16 C         -11.8221  -18.1448   23.1698 C.ar    1  UNL1        0.0985
     17 N         -10.6913  -18.1260   22.1844 N.ar    1  UNL1       -0.2478
     18 C          -7.6430  -16.6316   23.5569 C.3     1  UNL1        0.0499
     19 C          -7.1793  -15.3769   24.2355 C.3     1  UNL1        0.0774
     20 N          -6.8516  -15.3929   25.6992 N.3     1  UNL1       -0.2700
     21 C          -5.4260  -15.2714   26.1499 C.3     1  UNL1        0.0897
     22 C          -7.9493  -15.5305   26.7120 C.3     1  UNL1        0.0897
@<TRIPOS>BOND
     1    11    10    1
     2    11    12    1
     3    12    13   ar
     4    13    14   ar
     5    14    15   ar
     6    15    16   ar
     7    16    17   ar
     8    11     1    1
     9     1     2   ar
    10     2    18    1
    11    18    19    1
    12    19    20    1
    13    20    21    1
    14    20    22    1
    15     2     3   ar
    16     3     4   ar
    17     4     5   ar
    18     5     6   ar
    19     6     7   ar
    20     7     8   ar
    21     8     9   ar
    22    17    12   ar
    23     9     1   ar
    24     9     4   ar
@<TRIPOS>MOLECULE
*****
 22 24 0 0 0
SMALL
GASTEIGER

@<TRIPOS>ATOM
      1 C          -7.8881  -17.3514   22.2494 C.ar    1  UNL1       -0.0144
      2 C          -9.1052  -17.9864   21.6450 C.ar    1  UNL1        0.0051
      3 S          -8.7035  -19.3193   21.0863 S.2     1  UNL1       -0.0915
      4 C          -7.2381  -19.5080   21.3454 C.ar    1  UNL1        0.0288
      5 C          -6.2976  -20.6301   21.0196 C.ar    1  UNL1        0.0065
      6 C          -4.8531  -20.5360   21.4127 C.ar    1  UNL1        0.0005
      7 C          -4.3492  -19.3198   22.1315 C.ar    1  UNL1        0.0000
      8 C          -5.2897  -18.1976   22.4573 C.ar    1  UNL1        0.0002
      9 C          -6.7341  -18.2917   22.0642 C.ar    1  UNL1        0.0025
     10 C          -8.1000  -14.7647   22.1301 C.3     1  UNL1        0.0110
     11 C          -7.8342  -16.0113   22.9210 C.3     1  UNL1        0.0627
     12 C          -7.5147  -15.9176   24.3835 C.ar    1  UNL1        0.0627
     13 C          -8.5674  -16.2371   25.4033 C.ar    1  UNL1        0.0151
     14 C          -8.2479  -16.1434   26.8658 C.ar    1  UNL1        0.0028
     15 C          -6.8756  -15.7302   27.3087 C.ar    1  UNL1        0.0207
     16 C          -5.8229  -15.4107   26.2891 C.ar    1  UNL1        0.0985
     17 N          -6.1424  -15.5044   24.8265 N.ar    1  UNL1       -0.2478
     18 C         -10.4822  -17.3929   21.6061 C.3     1  UNL1        0.0499
     19 C         -11.1622  -16.9915   22.8815 C.3     1  UNL1        0.0774
     20 N         -11.9462  -18.0030   23.6639 N.3     1  UNL1       -0.2700
     21 C         -13.4458  -17.9736   23.6369 C.3     1  UNL1        0.0897
     22 C         -11.2309  -19.0437   24.4732 C.3     1  UNL1        0.0897
@<TRIPOS>BOND
     1    11    10    1
     2    11    12    1
     3    12    13   ar
     4    13    14   ar
     5    14    15   ar
     6    15    16   ar
     7    16    17   ar
     8    11     1    1
     9     1     2   ar
    10     2    18    1
    11    18    19    1
    12    19    20    1
    13    20    21    1
    14    20    22    1
    15     2     3   ar
    16     3     4   ar
    17     4     5   ar
    18     5     6   ar
    19     6     7   ar
    20     7     8   ar
    21     8     9   ar
    22    17    12   ar
    23     9     1   ar
    24     9     4   ar
