@<TRIPOS>MOLECULE
*****
 30 32 0 0 0
SMALL
GASTEIGER

@<TRIPOS>ATOM
      1 C           2.7947    4.6280   18.4841 C.3     1  UNL1        0.0334
      2 C           3.1188    3.1646   18.4243 C.ar    1  UNL1        0.0071
      3 C           4.5011    2.7172   18.0516 C.ar    1  UNL1        0.1363
      4 F           5.5594    3.7331   17.7385 F       1  UNL1       -0.2045
      5 C           4.8252    1.2538   17.9918 C.ar    1  UNL1        0.0338
      6 C           3.7670    0.2379   18.3049 C.ar    1  UNL1        0.0556
      7 C           2.3847    0.6853   18.6776 C.ar    1  UNL1        0.0058
      8 C           2.0606    2.1487   18.7374 C.ar    1  UNL1        0.0160
      9 C           0.6782    2.5961   19.1102 C.ar    1  UNL1        0.0811
     10 C           0.1882    2.4240   20.5174 C.ar    1  UNL1        0.0193
     11 C          -1.1941    2.8714   20.8902 C.ar    1  UNL1        0.0076
     12 C          -2.0865    3.4909   19.8558 C.ar    1  UNL1        0.0725
     13 C          -1.5964    3.6631   18.4485 C.ar    1  UNL1        0.1033
     14 N          -0.2141    3.2156   18.0758 N.ar    1  UNL1       -0.2437
     15 C          -3.4688    3.9383   20.2286 C.2     1  UNL1        0.2474
     16 O          -4.0938    5.1069   19.5261 O.2     1  UNL1       -0.2701
     17 N          -4.2261    3.2170   21.3039 N.am    1  UNL1       -0.3008
     18 H          -3.8158    2.4500   21.7650 H       1  UNL1        0.1497
     19 C          -5.6084    3.6644   21.6767 C.3     1  UNL1        0.0896
     20 C          -5.9305    3.9941   23.1041 C.3     1  UNL1        0.0181
     21 C          -4.7477    3.1904   23.5567 C.3     1  UNL1        0.0017
     22 C          -7.1134    4.7978   22.6515 C.3     1  UNL1        0.0017
     23 C          -6.2527    4.3239   24.5315 C.3     1  UNL1        0.0017
     24 C           4.0910   -1.2255   18.2451 C.2     1  UNL1        0.2459
     25 O           5.0169   -1.7460   17.1860 O.2     1  UNL1       -0.2701
     26 N           3.4892   -2.1683   19.2445 N.am    1  UNL1       -0.3025
     27 H           2.8815   -1.8267   19.9397 H       1  UNL1        0.1497
     28 C           3.8133   -3.6317   19.1848 C.3     1  UNL1        0.0720
     29 C           4.6916   -4.7491   18.7054 C.3     1  UNL1        0.0213
     30 C           3.4963   -5.0487   19.5607 C.3     1  UNL1        0.0213
@<TRIPOS>BOND
     1     1     2    1
     2     2     3   ar
     3     3     4    1
     4     3     5   ar
     5     5     6   ar
     6     6    24    1
     7    24    25    2
     8    24    26   am
     9    26    28    1
    10    28    29    1
    11    29    30    1
    12     6     7   ar
    13     7     8   ar
    14     8     9    1
    15     9    10   ar
    16    10    11   ar
    17    11    12   ar
    18    12    15    1
    19    15    16    2
    20    15    17   am
    21    17    19    1
    22    19    20    1
    23    20    21    1
    24    20    22    1
    25    20    23    1
    26    12    13   ar
    27    13    14   ar
    28     8     2   ar
    29    14     9   ar
    30    30    28    1
    31    26    27    1
    32    17    18    1
@<TRIPOS>MOLECULE
*****
 30 32 0 0 0
SMALL
GASTEIGER

@<TRIPOS>ATOM
      1 C           2.9604    4.6163   18.4461 C.3     1  UNL1        0.0334
      2 C           3.2432    3.1442   18.3919 C.ar    1  UNL1        0.0071
      3 C           4.6043    2.6562   17.9929 C.ar    1  UNL1        0.1363
      4 F           5.6827    3.6403   17.6482 F       1  UNL1       -0.2045
      5 C           4.8871    1.1841   17.9387 C.ar    1  UNL1        0.0338
      6 C           3.8089    0.2000   18.2833 C.ar    1  UNL1        0.0556
      7 C           2.4478    0.6880   18.6823 C.ar    1  UNL1        0.0058
      8 C           2.1650    2.1601   18.7366 C.ar    1  UNL1        0.0160
      9 C           0.8038    2.6481   19.1355 C.ar    1  UNL1        0.0811
     10 C          -0.1339    3.1877   18.0964 C.ar    1  UNL1        0.0193
     11 C          -1.4950    3.6757   18.4953 C.ar    1  UNL1        0.0076
     12 C          -1.9185    3.6241   19.9334 C.ar    1  UNL1        0.0725
     13 C          -0.9809    3.0846   20.9725 C.ar    1  UNL1        0.1033
     14 N           0.3803    2.5966   20.5735 N.ar    1  UNL1       -0.2437
     15 C          -3.2796    4.1121   20.3323 C.2     1  UNL1        0.2474
     16 O          -3.4741    5.5429   20.7385 O.2     1  UNL1       -0.2701
     17 N          -4.4463    3.1693   20.3251 N.am    1  UNL1       -0.3008
     18 H          -4.3187    2.2302   20.0585 H       1  UNL1        0.1497
     19 C          -5.8074    3.6573   20.7240 C.3     1  UNL1        0.0896
     20 C          -6.6900    4.3273   19.7130 C.3     1  UNL1        0.0181
     21 C          -6.9835    5.4226   20.6950 C.3     1  UNL1        0.0017
     22 C          -6.3966    3.2320   18.7310 C.3     1  UNL1        0.0017
     23 C          -7.5727    4.9973   18.7020 C.3     1  UNL1        0.0017
     24 C           4.0917   -1.2721   18.2291 C.2     1  UNL1        0.2459
     25 O           4.9710   -1.8276   17.1483 O.2     1  UNL1       -0.2701
     26 N           3.4952   -2.1887   19.2557 N.am    1  UNL1       -0.3025
     27 H           2.9181   -1.8242   19.9651 H       1  UNL1        0.1497
     28 C           3.7780   -3.6608   19.2014 C.3     1  UNL1        0.0720
     29 C           3.3721   -5.0735   19.5008 C.3     1  UNL1        0.0213
     30 C           4.6737   -4.7979   18.8081 C.3     1  UNL1        0.0213
@<TRIPOS>BOND
     1     1     2    1
     2     2     3   ar
     3     3     4    1
     4     3     5   ar
     5     5     6   ar
     6     6    24    1
     7    24    25    2
     8    24    26   am
     9    26    28    1
    10    28    29    1
    11    29    30    1
    12     6     7   ar
    13     7     8   ar
    14     8     9    1
    15     9    10   ar
    16    10    11   ar
    17    11    12   ar
    18    12    15    1
    19    15    16    2
    20    15    17   am
    21    17    19    1
    22    19    20    1
    23    20    21    1
    24    20    22    1
    25    20    23    1
    26    12    13   ar
    27    13    14   ar
    28     8     2   ar
    29    14     9   ar
    30    30    28    1
    31    26    27    1
    32    17    18    1
@<TRIPOS>MOLECULE
*****
 30 32 0 0 0
SMALL
GASTEIGER

@<TRIPOS>ATOM
      1 C           3.7697   -1.1029   18.1455 C.3     1  UNL1        0.0334
      2 C           4.3803   -1.8128   19.3174 C.ar    1  UNL1        0.0071
      3 C           5.4823   -2.8071   19.1009 C.ar    1  UNL1        0.1363
      4 F           5.9738   -3.0915   17.7124 F       1  UNL1       -0.2045
      5 C           6.0929   -3.5170   20.2727 C.ar    1  UNL1        0.0338
      6 C           5.6015   -3.2327   21.6611 C.ar    1  UNL1        0.0556
      7 C           4.4994   -2.2384   21.8776 C.ar    1  UNL1        0.0058
      8 C           3.8888   -1.5285   20.7057 C.ar    1  UNL1        0.0160
      9 C           2.7868   -0.5342   20.9223 C.ar    1  UNL1        0.0811
     10 C           1.3993   -0.8352   20.4383 C.ar    1  UNL1        0.0193
     11 C           0.2972    0.1590   20.6548 C.ar    1  UNL1        0.0076
     12 C           0.5826    1.4543   21.3555 C.ar    1  UNL1        0.0725
     13 C           1.9701    1.7553   21.8395 C.ar    1  UNL1        0.1033
     14 N           3.0722    0.7610   21.6229 N.ar    1  UNL1       -0.2437
     15 C          -0.5195    2.4485   21.5720 C.2     1  UNL1        0.2474
     16 O          -0.5100    3.3254   22.7889 O.2     1  UNL1       -0.2701
     17 N          -1.6310    2.5659   20.5716 N.am    1  UNL1       -0.3008
     18 H          -1.6371    1.9904   19.7729 H       1  UNL1        0.1497
     19 C          -2.7330    3.5601   20.7882 C.3     1  UNL1        0.0896
     20 C          -3.9080    3.5922   19.8563 C.3     1  UNL1        0.0181
     21 C          -3.0118    4.0439   18.7416 C.3     1  UNL1        0.0017
     22 C          -4.8043    3.1404   20.9711 C.3     1  UNL1        0.0017
     23 C          -5.0831    3.6242   18.9245 C.3     1  UNL1        0.0017
     24 C           6.2121   -3.9426   22.8329 C.2     1  UNL1        0.2459
     25 O           7.2111   -5.0387   22.6083 O.2     1  UNL1       -0.2701
     26 N           5.8236   -3.5564   24.2293 N.am    1  UNL1       -0.3025
     27 H           5.1679   -2.8370   24.3767 H       1  UNL1        0.1497
     28 C           6.4342   -4.2663   25.4011 C.3     1  UNL1        0.0720
     29 C           7.0698   -4.2228   26.7591 C.3     1  UNL1        0.0213
     30 C           6.8562   -5.5394   26.0727 C.3     1  UNL1        0.0213
@<TRIPOS>BOND
     1     1     2    1
     2     2     3   ar
     3     3     4    1
     4     3     5   ar
     5     5     6   ar
     6     6    24    1
     7    24    25    2
     8    24    26   am
     9    26    28    1
    10    28    29    1
    11    29    30    1
    12     6     7   ar
    13     7     8   ar
    14     8     9    1
    15     9    10   ar
    16    10    11   ar
    17    11    12   ar
    18    12    15    1
    19    15    16    2
    20    15    17   am
    21    17    19    1
    22    19    20    1
    23    20    21    1
    24    20    22    1
    25    20    23    1
    26    12    13   ar
    27    13    14   ar
    28     8     2   ar
    29    14     9   ar
    30    30    28    1
    31    26    27    1
    32    17    18    1
@<TRIPOS>MOLECULE
*****
 30 32 0 0 0
SMALL
GASTEIGER

@<TRIPOS>ATOM
      1 C           0.7441    3.4238   31.9127 C.3     1  UNL1        0.0334
      2 C           1.6089    2.2000   31.9788 C.ar    1  UNL1        0.0071
      3 C           2.3390    1.8651   33.2456 C.ar    1  UNL1        0.1363
      4 F           2.2043    2.7540   34.4464 F       1  UNL1       -0.2045
      5 C           3.2038    0.6412   33.3117 C.ar    1  UNL1        0.0338
      6 C           3.3385   -0.2477   32.1110 C.ar    1  UNL1        0.0556
      7 C           2.6084    0.0873   30.8443 C.ar    1  UNL1        0.0058
      8 C           1.7437    1.3111   30.7782 C.ar    1  UNL1        0.0160
      9 C           1.0136    1.6460   29.5113 C.ar    1  UNL1        0.0811
     10 C          -0.2720    0.9479   29.1796 C.ar    1  UNL1        0.0193
     11 C          -1.0021    1.2827   27.9128 C.ar    1  UNL1        0.0076
     12 C          -0.4466    2.3158   26.9776 C.ar    1  UNL1        0.0725
     13 C           0.8389    3.0139   27.3094 C.ar    1  UNL1        0.1033
     14 N           1.5690    2.6790   28.5762 N.ar    1  UNL1       -0.2437
     15 C          -1.1767    2.6506   25.7109 C.2     1  UNL1        0.2474
     16 O          -0.5059    2.4528   24.3839 O.2     1  UNL1       -0.2701
     17 N          -2.5777    3.1832   25.7710 N.am    1  UNL1       -0.3008
     18 H          -3.0180    3.3131   26.6419 H       1  UNL1        0.1497
     19 C          -3.3078    3.5181   24.5042 C.3     1  UNL1        0.0896
     20 C          -4.7608    3.8878   24.5513 C.3     1  UNL1        0.0181
     21 C          -4.5718    4.4556   25.9267 C.3     1  UNL1        0.0017
     22 C          -4.9498    3.3199   23.1758 C.3     1  UNL1        0.0017
     23 C          -6.2137    4.2574   24.5983 C.3     1  UNL1        0.0017
     24 C           4.2033   -1.4715   32.1771 C.2     1  UNL1        0.2459
     25 O           3.9788   -2.4912   33.2540 O.2     1  UNL1       -0.2701
     26 N           5.2927   -1.6756   31.1664 N.am    1  UNL1       -0.3025
     27 H           5.4401   -1.0063   30.4596 H       1  UNL1        0.1497
     28 C           6.1575   -2.8994   31.2325 C.3     1  UNL1        0.0720
     29 C           6.9581   -3.8825   32.0340 C.3     1  UNL1        0.0213
     30 C           6.8546   -4.0360   30.5455 C.3     1  UNL1        0.0213
@<TRIPOS>BOND
     1     1     2    1
     2     2     3   ar
     3     3     4    1
     4     3     5   ar
     5     5     6   ar
     6     6    24    1
     7    24    25    2
     8    24    26   am
     9    26    28    1
    10    28    29    1
    11    29    30    1
    12     6     7   ar
    13     7     8   ar
    14     8     9    1
    15     9    10   ar
    16    10    11   ar
    17    11    12   ar
    18    12    15    1
    19    15    16    2
    20    15    17   am
    21    17    19    1
    22    19    20    1
    23    20    21    1
    24    20    22    1
    25    20    23    1
    26    12    13   ar
    27    13    14   ar
    28     8     2   ar
    29    14     9   ar
    30    30    28    1
    31    26    27    1
    32    17    18    1
@<TRIPOS>MOLECULE
*****
 30 32 0 0 0
SMALL
GASTEIGER

@<TRIPOS>ATOM
      1 C           9.3031   -5.3175   23.9857 C.3     1  UNL1        0.0334
      2 C           8.1562   -4.7527   23.2011 C.ar    1  UNL1        0.0071
      3 C           8.2268   -4.6974   21.7038 C.ar    1  UNL1        0.1363
      4 F           9.4443   -5.2070   20.9910 F       1  UNL1       -0.2045
      5 C           7.0798   -4.1326   20.9193 C.ar    1  UNL1        0.0338
      6 C           5.8624   -3.6230   21.6320 C.ar    1  UNL1        0.0556
      7 C           5.7918   -3.6783   23.1293 C.ar    1  UNL1        0.0058
      8 C           6.9387   -4.2431   23.9139 C.ar    1  UNL1        0.0160
      9 C           6.8681   -4.2984   25.4112 C.ar    1  UNL1        0.0811
     10 C           7.0695   -3.0500   26.2181 C.ar    1  UNL1        0.0193
     11 C           6.9989   -3.1052   27.7154 C.ar    1  UNL1        0.0076
     12 C           6.7269   -4.4088   28.4059 C.ar    1  UNL1        0.0725
     13 C           6.5255   -5.6571   27.5990 C.ar    1  UNL1        0.1033
     14 N           6.5961   -5.6019   26.1016 N.ar    1  UNL1       -0.2437
     15 C           6.6563   -4.4640   29.9032 C.2     1  UNL1        0.2474
     16 O           6.8243   -5.7740   30.6141 O.2     1  UNL1       -0.2701
     17 N           6.4177   -3.2091   30.6895 N.am    1  UNL1       -0.3008
     18 H           6.3074   -2.3493   30.2229 H       1  UNL1        0.1497
     19 C           6.3471   -3.2643   32.1868 C.3     1  UNL1        0.0896
     20 C           5.8910   -2.0632   32.9609 C.3     1  UNL1        0.0181
     21 C           4.5784   -2.7365   33.2323 C.3     1  UNL1        0.0017
     22 C           7.2036   -1.3898   32.6896 C.3     1  UNL1        0.0017
     23 C           5.4348   -0.8621   33.7351 C.3     1  UNL1        0.0017
     24 C           4.7155   -3.0582   20.8474 C.2     1  UNL1        0.2459
     25 O           4.1542   -3.8213   19.6845 O.2     1  UNL1       -0.2701
     26 N           4.1298   -1.7301   21.2258 N.am    1  UNL1       -0.3025
     27 H           4.4981   -1.2292   21.9891 H       1  UNL1        0.1497
     28 C           2.9828   -1.1653   20.4413 C.3     1  UNL1        0.0720
     29 C           2.4470   -0.5560   19.1797 C.3     1  UNL1        0.0213
     30 C           1.5322   -0.7962   20.3440 C.3     1  UNL1        0.0213
@<TRIPOS>BOND
     1     1     2    1
     2     2     3   ar
     3     3     4    1
     4     3     5   ar
     5     5     6   ar
     6     6    24    1
     7    24    25    2
     8    24    26   am
     9    26    28    1
    10    28    29    1
    11    29    30    1
    12     6     7   ar
    13     7     8   ar
    14     8     9    1
    15     9    10   ar
    16    10    11   ar
    17    11    12   ar
    18    12    15    1
    19    15    16    2
    20    15    17   am
    21    17    19    1
    22    19    20    1
    23    20    21    1
    24    20    22    1
    25    20    23    1
    26    12    13   ar
    27    13    14   ar
    28     8     2   ar
    29    14     9   ar
    30    30    28    1
    31    26    27    1
    32    17    18    1
@<TRIPOS>MOLECULE
*****
 30 32 0 0 0
SMALL
GASTEIGER

@<TRIPOS>ATOM
      1 C           0.1790    2.0545   24.6556 C.3     1  UNL1        0.0334
      2 C          -1.1219    2.7181   24.9981 C.ar    1  UNL1        0.0071
      3 C          -1.9867    3.2802   23.9090 C.ar    1  UNL1        0.1363
      4 F          -1.5504    3.1789   22.4773 F       1  UNL1       -0.2045
      5 C          -3.2876    3.9438   24.2514 C.ar    1  UNL1        0.0338
      6 C          -3.7238    4.0451   25.6829 C.ar    1  UNL1        0.0556
      7 C          -2.8591    3.4830   26.7721 C.ar    1  UNL1        0.0058
      8 C          -1.5582    2.8194   26.4296 C.ar    1  UNL1        0.0160
      9 C          -0.6935    2.2572   27.5188 C.ar    1  UNL1        0.0811
     10 C           0.2641    3.1492   28.2519 C.ar    1  UNL1        0.0193
     11 C           1.1288    2.5871   29.3410 C.ar    1  UNL1        0.0076
     12 C           1.0360    1.1329   29.6972 C.ar    1  UNL1        0.0725
     13 C           0.0784    0.2409   28.9641 C.ar    1  UNL1        0.1033
     14 N          -0.7863    0.8031   27.8749 N.ar    1  UNL1       -0.2437
     15 C           1.9007    0.5708   30.7863 C.2     1  UNL1        0.2474
     16 O           2.2479   -0.8884   30.7903 O.2     1  UNL1       -0.2701
     17 N           2.4181    1.4679   31.8714 N.am    1  UNL1       -0.3008
     18 H           2.1901    2.4257   31.8688 H       1  UNL1        0.1497
     19 C           3.2828    0.9058   32.9606 C.3     1  UNL1        0.0896
     20 C           3.2445    1.5072   34.3342 C.3     1  UNL1        0.0181
     21 C           4.3610    0.6013   34.7619 C.3     1  UNL1        0.0017
     22 C           2.1280    2.4130   33.9066 C.3     1  UNL1        0.0017
     23 C           3.2063    2.1085   35.7079 C.3     1  UNL1        0.0017
     24 C          -5.0248    4.7087   26.0254 C.2     1  UNL1        0.2459
     25 O          -6.1583    4.6887   25.0432 O.2     1  UNL1       -0.2701
     26 N          -5.1922    5.3922   27.3500 N.am    1  UNL1       -0.3025
     27 H          -4.4483    5.4053   27.9947 H       1  UNL1        0.1497
     28 C          -6.4932    6.0557   27.6925 C.3     1  UNL1        0.0720
     29 C          -7.5871    6.3384   28.6791 C.3     1  UNL1        0.0213
     30 C          -7.6525    6.9223   27.2990 C.3     1  UNL1        0.0213
@<TRIPOS>BOND
     1     1     2    1
     2     2     3   ar
     3     3     4    1
     4     3     5   ar
     5     5     6   ar
     6     6    24    1
     7    24    25    2
     8    24    26   am
     9    26    28    1
    10    28    29    1
    11    29    30    1
    12     6     7   ar
    13     7     8   ar
    14     8     9    1
    15     9    10   ar
    16    10    11   ar
    17    11    12   ar
    18    12    15    1
    19    15    16    2
    20    15    17   am
    21    17    19    1
    22    19    20    1
    23    20    21    1
    24    20    22    1
    25    20    23    1
    26    12    13   ar
    27    13    14   ar
    28     8     2   ar
    29    14     9   ar
    30    30    28    1
    31    26    27    1
    32    17    18    1
@<TRIPOS>MOLECULE
*****
 30 32 0 0 0
SMALL
GASTEIGER

@<TRIPOS>ATOM
      1 C           6.9647   -4.5645   31.9591 C.3     1  UNL1        0.0334
      2 C           6.5690   -3.7910   30.7364 C.ar    1  UNL1        0.0071
      3 C           6.7495   -4.3955   29.3755 C.ar    1  UNL1        0.1363
      4 F           7.3256   -5.7736   29.2374 F       1  UNL1       -0.2045
      5 C           6.3539   -3.6220   28.1527 C.ar    1  UNL1        0.0338
      6 C           5.7778   -2.2440   28.2908 C.ar    1  UNL1        0.0556
      7 C           5.5973   -1.6395   29.6517 C.ar    1  UNL1        0.0058
      8 C           5.9929   -2.4130   30.8744 C.ar    1  UNL1        0.0160
      9 C           5.8125   -1.8084   32.2353 C.ar    1  UNL1        0.0811
     10 C           6.8884   -0.9419   32.8198 C.ar    1  UNL1        0.0193
     11 C           6.7080   -0.3374   34.1806 C.ar    1  UNL1        0.0076
     12 C           5.4515   -0.5992   34.9570 C.ar    1  UNL1        0.0725
     13 C           4.3755   -1.4656   34.3726 C.ar    1  UNL1        0.1033
     14 N           4.5560   -2.0702   33.0117 N.ar    1  UNL1       -0.2437
     15 C           5.2711    0.0054   36.3179 C.2     1  UNL1        0.2474
     16 O           6.4704    0.3619   37.1451 O.2     1  UNL1       -0.2701
     17 N           3.8913    0.2534   36.8514 N.am    1  UNL1       -0.3008
     18 H           3.1041    0.0194   36.3084 H       1  UNL1        0.1497
     19 C           3.7109    0.8580   38.2122 C.3     1  UNL1        0.0896
     20 C           2.4393    1.5782   38.5504 C.3     1  UNL1        0.0181
     21 C           1.9170    0.3417   39.2200 C.3     1  UNL1        0.0017
     22 C           2.9615    2.8147   37.8808 C.3     1  UNL1        0.0017
     23 C           1.1677    2.2984   38.8885 C.3     1  UNL1        0.0017
     24 C           5.3821   -1.4705   27.0681 C.2     1  UNL1        0.2459
     25 O           6.2694   -0.3761   26.5532 O.2     1  UNL1       -0.2701
     26 N           4.0992   -1.7913   26.3602 N.am    1  UNL1       -0.3025
     27 H           3.5169   -2.5096   26.6981 H       1  UNL1        0.1497
     28 C           3.7036   -1.0178   25.1374 C.3     1  UNL1        0.0720
     29 C           3.3817    0.2886   24.4745 C.3     1  UNL1        0.0213
     30 C           3.3402   -0.9846   23.6825 C.3     1  UNL1        0.0213
@<TRIPOS>BOND
     1     1     2    1
     2     2     3   ar
     3     3     4    1
     4     3     5   ar
     5     5     6   ar
     6     6    24    1
     7    24    25    2
     8    24    26   am
     9    26    28    1
    10    28    29    1
    11    29    30    1
    12     6     7   ar
    13     7     8   ar
    14     8     9    1
    15     9    10   ar
    16    10    11   ar
    17    11    12   ar
    18    12    15    1
    19    15    16    2
    20    15    17   am
    21    17    19    1
    22    19    20    1
    23    20    21    1
    24    20    22    1
    25    20    23    1
    26    12    13   ar
    27    13    14   ar
    28     8     2   ar
    29    14     9   ar
    30    30    28    1
    31    26    27    1
    32    17    18    1
@<TRIPOS>MOLECULE
*****
 30 32 0 0 0
SMALL
GASTEIGER

@<TRIPOS>ATOM
      1 C           3.8881   -0.8155   18.0154 C.3     1  UNL1        0.0334
      2 C           4.4266   -1.5455   19.2100 C.ar    1  UNL1        0.0071
      3 C           5.5649   -2.5090   19.0497 C.ar    1  UNL1        0.1363
      4 F           6.1648   -2.7426   17.6949 F       1  UNL1       -0.2045
      5 C           6.1034   -3.2390   20.2444 C.ar    1  UNL1        0.0338
      6 C           5.5036   -3.0055   21.5992 C.ar    1  UNL1        0.0556
      7 C           4.3652   -2.0420   21.7594 C.ar    1  UNL1        0.0058
      8 C           3.8267   -1.3120   20.5648 C.ar    1  UNL1        0.0160
      9 C           2.6883   -0.3484   20.7251 C.ar    1  UNL1        0.0811
     10 C           1.3012   -0.7526   20.3218 C.ar    1  UNL1        0.0193
     11 C           0.1629    0.2109   20.4821 C.ar    1  UNL1        0.0076
     12 C           0.4115    1.5787   21.0456 C.ar    1  UNL1        0.0725
     13 C           1.7986    1.9829   21.4489 C.ar    1  UNL1        0.1033
     14 N           2.9370    1.0193   21.2886 N.ar    1  UNL1       -0.2437
     15 C          -0.7268    2.5422   21.2059 C.2     1  UNL1        0.2474
     16 O          -1.5860    2.8908   20.0268 O.2     1  UNL1       -0.2701
     17 N          -1.0061    3.1571   22.5452 N.am    1  UNL1       -0.3008
     18 H          -0.4422    2.9283   23.3191 H       1  UNL1        0.1497
     19 C          -2.1445    4.1206   22.7055 C.3     1  UNL1        0.0896
     20 C          -3.4292    3.6661   23.3324 C.3     1  UNL1        0.0181
     21 C          -2.6933    3.3277   24.5950 C.3     1  UNL1        0.0017
     22 C          -4.1650    4.0044   22.0698 C.3     1  UNL1        0.0017
     23 C          -4.7138    3.2116   23.9593 C.3     1  UNL1        0.0017
     24 C           6.0421   -3.7355   22.7938 C.2     1  UNL1        0.2459
     25 O           5.4114   -3.5384   24.1403 O.2     1  UNL1       -0.2701
     26 N           7.2113   -4.6627   22.6418 N.am    1  UNL1       -0.3025
     27 H           7.6253   -4.7922   21.7580 H       1  UNL1        0.1497
     28 C           7.7498   -5.3928   23.8365 C.3     1  UNL1        0.0720
     29 C           8.0360   -6.6795   24.5522 C.3     1  UNL1        0.0213
     30 C           8.3964   -5.3704   25.1897 C.3     1  UNL1        0.0213
@<TRIPOS>BOND
     1     1     2    1
     2     2     3   ar
     3     3     4    1
     4     3     5   ar
     5     5     6   ar
     6     6    24    1
     7    24    25    2
     8    24    26   am
     9    26    28    1
    10    28    29    1
    11    29    30    1
    12     6     7   ar
    13     7     8   ar
    14     8     9    1
    15     9    10   ar
    16    10    11   ar
    17    11    12   ar
    18    12    15    1
    19    15    16    2
    20    15    17   am
    21    17    19    1
    22    19    20    1
    23    20    21    1
    24    20    22    1
    25    20    23    1
    26    12    13   ar
    27    13    14   ar
    28     8     2   ar
    29    14     9   ar
    30    30    28    1
    31    26    27    1
    32    17    18    1
@<TRIPOS>MOLECULE
*****
 30 32 0 0 0
SMALL
GASTEIGER

@<TRIPOS>ATOM
      1 C           3.2151   -1.1303   18.7449 C.3     1  UNL1        0.0334
      2 C           2.5355   -0.4417   19.8912 C.ar    1  UNL1        0.0071
      3 C           1.3852    0.4857   19.6336 C.ar    1  UNL1        0.1363
      4 F           0.9143    0.7246   18.2295 F       1  UNL1       -0.2045
      5 C           0.7056    1.1743   20.7799 C.ar    1  UNL1        0.0338
      6 C           1.1764    0.9355   22.1839 C.ar    1  UNL1        0.0556
      7 C           2.3268    0.0080   22.4416 C.ar    1  UNL1        0.0058
      8 C           3.0063   -0.6806   21.2952 C.ar    1  UNL1        0.0160
      9 C           4.1567   -1.6081   21.5530 C.ar    1  UNL1        0.0811
     10 C           3.9016   -2.9970   22.0589 C.ar    1  UNL1        0.0193
     11 C           5.0519   -3.9244   22.3166 C.ar    1  UNL1        0.0076
     12 C           6.4575   -3.4631   22.0684 C.ar    1  UNL1        0.0725
     13 C           6.7127   -2.0742   21.5625 C.ar    1  UNL1        0.1033
     14 N           5.5622   -1.1467   21.3048 N.ar    1  UNL1       -0.2437
     15 C           7.6078   -4.3906   22.3262 C.2     1  UNL1        0.2474
     16 O           8.1911   -5.1927   21.2009 O.2     1  UNL1       -0.2701
     17 N           8.1749   -4.5159   23.7092 N.am    1  UNL1       -0.3008
     18 H           7.7920   -3.9894   24.4477 H       1  UNL1        0.1497
     19 C           9.3252   -5.4434   23.9669 C.3     1  UNL1        0.0896
     20 C           9.1113   -6.7034   24.7522 C.3     1  UNL1        0.0181
     21 C           9.5360   -7.5156   23.5648 C.3     1  UNL1        0.0017
     22 C           8.6867   -5.8912   25.9397 C.3     1  UNL1        0.0017
     23 C           8.8975   -7.9634   25.5375 C.3     1  UNL1        0.0017
     24 C           0.4969    1.6241   23.3302 C.2     1  UNL1        0.2459
     25 O          -0.0465    3.0113   23.1562 O.2     1  UNL1       -0.2701
     26 N           0.3607    0.9255   24.6506 N.am    1  UNL1       -0.3025
     27 H           0.7174    0.0150   24.7648 H       1  UNL1        0.1497
     28 C          -0.3188    1.6141   25.7969 C.3     1  UNL1        0.0720
     29 C          -0.4569    1.8531   27.2712 C.3     1  UNL1        0.0213
     30 C          -1.3577    2.5677   26.3080 C.3     1  UNL1        0.0213
@<TRIPOS>BOND
     1     1     2    1
     2     2     3   ar
     3     3     4    1
     4     3     5   ar
     5     5     6   ar
     6     6    24    1
     7    24    25    2
     8    24    26   am
     9    26    28    1
    10    28    29    1
    11    29    30    1
    12     6     7   ar
    13     7     8   ar
    14     8     9    1
    15     9    10   ar
    16    10    11   ar
    17    11    12   ar
    18    12    15    1
    19    15    16    2
    20    15    17   am
    21    17    19    1
    22    19    20    1
    23    20    21    1
    24    20    22    1
    25    20    23    1
    26    12    13   ar
    27    13    14   ar
    28     8     2   ar
    29    14     9   ar
    30    30    28    1
    31    26    27    1
    32    17    18    1
