@<TRIPOS>MOLECULE
*****
 31 35 0 0 0
SMALL
GASTEIGER

@<TRIPOS>ATOM
      1 C           4.4540   -1.4863   26.1881 C.ar    1  UNL1        0.1070
      2 C           5.8033   -1.6415   26.8247 C.ar    1  UNL1        0.0818
      3 C           5.9763   -1.3737   28.2904 C.ar    1  UNL1        0.2675
      4 O           7.3256   -1.5289   28.9271 O.2     1  UNL1       -0.2665
      5 N           4.7999   -0.9508   29.1196 N.ar    1  UNL1       -0.2583
      6 C           4.9730   -0.6831   30.5853 C.ar    1  UNL1        0.0800
      7 C           3.7967   -0.2601   31.4144 C.ar    1  UNL1       -0.0050
      8 C           2.4473   -0.1050   30.7778 C.ar    1  UNL1       -0.0041
      9 C           2.2744   -0.3727   29.3121 C.ar    1  UNL1        0.0124
     10 C           0.9251   -0.2175   28.6755 C.3     1  UNL1        0.0342
     11 C           3.4507   -0.7956   28.4830 C.ar    1  UNL1        0.1459
     12 N           3.2777   -1.0634   27.0173 N.ar    1  UNL1       -0.2265
     13 C           2.9535   -1.2115   21.0884 C.ar    1  UNL1        0.0763
     14 N           3.2593   -2.0365   19.8735 N.ar    1  UNL1       -0.2509
     15 C           4.1706   -3.2229   19.9826 C.ar    1  UNL1        0.0781
     16 C           4.4764   -4.0479   18.7678 C.3     1  UNL1        0.0537
     17 C           4.7762   -3.5843   21.3066 C.ar    1  UNL1        0.1150
     18 N           4.4704   -2.7592   22.5214 N.ar    1  UNL1       -0.2258
     19 N           4.9165   -2.8712   23.9491 N.ar    1  UNL1       -0.1634
     20 C           4.2810   -1.7541   24.7224 C.ar    1  UNL1        0.1206
     21 C           3.4419   -0.9516   23.7725 C.ar    1  UNL1        0.0427
     22 C           3.5590   -1.5728   22.4123 C.ar    1  UNL1        0.0979
     23 C           0.6458   -0.1972   20.4588 C.3     1  UNL1        0.0067
     24 C           2.0421   -0.0251   20.9793 C.3     1  UNL1        0.0474
     25 C           3.9696    0.0076   32.8802 C.3     1  UNL1        0.0266
     26 C           3.4978    1.3052   33.4664 C.3     1  UNL1        0.0218
     27 C           3.6707    1.5730   34.9321 C.3     1  UNL1        0.0725
     28 N           4.3156    0.5432   35.8116 N.3     1  UNL1       -0.2715
     29 C           4.4886    0.8109   37.2774 C.3     1  UNL1        0.0896
     30 C           4.7875   -0.7544   35.2255 C.3     1  UNL1        0.0725
     31 C           4.6145   -1.0222   33.7597 C.3     1  UNL1        0.0218
@<TRIPOS>BOND
     1    23    24    1
     2    24    13    1
     3    13    14   ar
     4    14    15   ar
     5    15    16    1
     6    15    17   ar
     7    17    18   ar
     8    18    19   ar
     9    19    20   ar
    10    20     1    1
    11     1     2   ar
    12     2     3   ar
    13     3     4    2
    14     3     5   ar
    15     5     6   ar
    16     6     7   ar
    17     7    25    1
    18    25    26    1
    19    26    27    1
    20    27    28    1
    21    28    29    1
    22    28    30    1
    23    30    31    1
    24     7     8   ar
    25     8     9   ar
    26     9    10    1
    27     9    11   ar
    28    11    12   ar
    29    20    21   ar
    30    21    22   ar
    31    22    13   ar
    32    22    18   ar
    33    12     1   ar
    34    11     5   ar
    35    31    25    1
@<TRIPOS>MOLECULE
*****
 31 35 0 0 0
SMALL
GASTEIGER

@<TRIPOS>ATOM
      1 C           2.0391    0.1936   23.6391 C.ar    1  UNL1        0.1070
      2 C           1.3505    1.0323   22.6036 C.ar    1  UNL1        0.0818
      3 C           0.2921    2.0124   23.0150 C.ar    1  UNL1        0.2675
      4 O          -0.3965    2.8512   21.9794 O.2     1  UNL1       -0.2665
      5 N          -0.0776    2.1538   24.4618 N.ar    1  UNL1       -0.2583
      6 C          -1.1360    3.1340   24.8731 C.ar    1  UNL1        0.0800
      7 C          -1.5057    3.2754   26.3199 C.ar    1  UNL1       -0.0050
      8 C          -0.8170    2.4366   27.3554 C.ar    1  UNL1       -0.0041
      9 C           0.2413    1.4565   26.9441 C.ar    1  UNL1        0.0124
     10 C           0.9299    0.6178   27.9796 C.3     1  UNL1        0.0342
     11 C           0.6110    1.3151   25.4973 C.ar    1  UNL1        0.1459
     12 N           1.6694    0.3350   25.0859 N.ar    1  UNL1       -0.2265
     13 C           4.9846   -3.2920   20.8989 C.ar    1  UNL1        0.0763
     14 N           6.2302   -4.0667   21.2125 N.ar    1  UNL1       -0.2509
     15 C           6.8883   -3.9184   22.5522 C.ar    1  UNL1        0.0781
     16 C           8.1339   -4.6930   22.8659 C.3     1  UNL1        0.0537
     17 C           6.3008   -2.9953   23.5784 C.ar    1  UNL1        0.1150
     18 N           5.0552   -2.2207   23.2647 N.ar    1  UNL1       -0.2258
     19 N           4.2520   -1.2427   24.0699 N.ar    1  UNL1       -0.1634
     20 C           3.0975   -0.7866   23.2278 C.ar    1  UNL1        0.1206
     21 C           3.1872   -1.4827   21.9021 C.ar    1  UNL1        0.0427
     22 C           4.3971   -2.3690   21.9249 C.ar    1  UNL1        0.0979
     23 C           4.1016   -4.8062   18.9811 C.3     1  UNL1        0.0067
     24 C           4.3266   -3.4404   19.5591 C.3     1  UNL1        0.0474
     25 C          -2.5640    4.2555   26.7313 C.3     1  UNL1        0.0266
     26 C          -2.1782    5.5310   27.4201 C.3     1  UNL1        0.0218
     27 C          -3.2365    6.5111   27.8314 C.3     1  UNL1        0.0725
     28 N          -4.6807    6.2158   27.5540 N.3     1  UNL1       -0.2715
     29 C          -5.7391    7.1959   27.9653 C.3     1  UNL1        0.0896
     30 C          -5.0667    4.9405   26.8652 C.3     1  UNL1        0.0725
     31 C          -4.0083    3.9603   26.4539 C.3     1  UNL1        0.0218
@<TRIPOS>BOND
     1    23    24    1
     2    24    13    1
     3    13    14   ar
     4    14    15   ar
     5    15    16    1
     6    15    17   ar
     7    17    18   ar
     8    18    19   ar
     9    19    20   ar
    10    20     1    1
    11     1     2   ar
    12     2     3   ar
    13     3     4    2
    14     3     5   ar
    15     5     6   ar
    16     6     7   ar
    17     7    25    1
    18    25    26    1
    19    26    27    1
    20    27    28    1
    21    28    29    1
    22    28    30    1
    23    30    31    1
    24     7     8   ar
    25     8     9   ar
    26     9    10    1
    27     9    11   ar
    28    11    12   ar
    29    20    21   ar
    30    21    22   ar
    31    22    13   ar
    32    22    18   ar
    33    12     1   ar
    34    11     5   ar
    35    31    25    1
@<TRIPOS>MOLECULE
*****
 31 35 0 0 0
SMALL
GASTEIGER

@<TRIPOS>ATOM
      1 C           4.1310   -1.2890   25.8869 C.ar    1  UNL1        0.1070
      2 C           3.2672   -0.2052   26.4608 C.ar    1  UNL1        0.0818
      3 C           3.3681    0.1423   27.9165 C.ar    1  UNL1        0.2675
      4 O           2.5043    1.2261   28.4904 O.2     1  UNL1       -0.2665
      5 N           4.3327   -0.5939   28.7982 N.ar    1  UNL1       -0.2583
      6 C           4.4336   -0.2463   30.2539 C.ar    1  UNL1        0.0800
      7 C           5.3982   -0.9825   31.1357 C.ar    1  UNL1       -0.0050
      8 C           6.2620   -2.0662   30.5617 C.ar    1  UNL1       -0.0041
      9 C           6.1611   -2.4138   29.1061 C.ar    1  UNL1        0.0124
     10 C           7.0249   -3.4975   28.5322 C.3     1  UNL1        0.0342
     11 C           5.1965   -1.6776   28.2243 C.ar    1  UNL1        0.1459
     12 N           5.0956   -2.0251   26.7687 N.ar    1  UNL1       -0.2265
     13 C           2.9252   -1.2664   20.7023 C.ar    1  UNL1        0.0763
     14 N           3.2690   -2.1704   19.5557 N.ar    1  UNL1       -0.2509
     15 C           4.1313   -3.3764   19.7839 C.ar    1  UNL1        0.0781
     16 C           4.4751   -4.2803   18.6373 C.3     1  UNL1        0.0537
     17 C           4.6498   -3.6784   21.1586 C.ar    1  UNL1        0.1150
     18 N           4.3060   -2.7744   22.3052 N.ar    1  UNL1       -0.2258
     19 N           4.6684   -2.8165   23.7602 N.ar    1  UNL1       -0.1634
     20 C           4.0301   -1.6366   24.4312 C.ar    1  UNL1        0.1206
     21 C           3.2732   -0.8652   23.3909 C.ar    1  UNL1        0.0427
     22 C           3.4437   -1.5684   22.0770 C.ar    1  UNL1        0.0979
     23 C           0.5689   -0.1944   20.4819 C.3     1  UNL1        0.0067
     24 C           2.0629   -0.0605   20.4741 C.3     1  UNL1        0.0474
     25 C           5.4991   -0.6349   32.5914 C.3     1  UNL1        0.0266
     26 C           4.5598   -1.2615   33.5789 C.3     1  UNL1        0.0218
     27 C           4.6607   -0.9140   35.0346 C.3     1  UNL1        0.0725
     28 N           5.7009    0.0602   35.5028 N.3     1  UNL1       -0.2715
     29 C           5.8018    0.4077   36.9584 C.3     1  UNL1        0.0896
     30 C           6.6401    0.6868   34.5153 C.3     1  UNL1        0.0725
     31 C           6.5393    0.3392   33.0595 C.3     1  UNL1        0.0218
@<TRIPOS>BOND
     1    23    24    1
     2    24    13    1
     3    13    14   ar
     4    14    15   ar
     5    15    16    1
     6    15    17   ar
     7    17    18   ar
     8    18    19   ar
     9    19    20   ar
    10    20     1    1
    11     1     2   ar
    12     2     3   ar
    13     3     4    2
    14     3     5   ar
    15     5     6   ar
    16     6     7   ar
    17     7    25    1
    18    25    26    1
    19    26    27    1
    20    27    28    1
    21    28    29    1
    22    28    30    1
    23    30    31    1
    24     7     8   ar
    25     8     9   ar
    26     9    10    1
    27     9    11   ar
    28    11    12   ar
    29    20    21   ar
    30    21    22   ar
    31    22    13   ar
    32    22    18   ar
    33    12     1   ar
    34    11     5   ar
    35    31    25    1
@<TRIPOS>MOLECULE
*****
 31 35 0 0 0
SMALL
GASTEIGER

@<TRIPOS>ATOM
      1 C           1.4131    1.2873   21.4933 C.ar    1  UNL1        0.1070
      2 C           0.5241    2.0287   20.5394 C.ar    1  UNL1        0.0818
      3 C          -0.6542    2.7991   21.0570 C.ar    1  UNL1        0.2675
      4 O          -1.5432    3.5406   20.1030 O.2     1  UNL1       -0.2665
      5 N          -0.9435    2.8282   22.5285 N.ar    1  UNL1       -0.2583
      6 C          -2.1219    3.5987   23.0461 C.ar    1  UNL1        0.0800
      7 C          -2.4112    3.6278   24.5177 C.ar    1  UNL1       -0.0050
      8 C          -1.5222    2.8863   25.4716 C.ar    1  UNL1       -0.0041
      9 C          -0.3439    2.1159   24.9540 C.ar    1  UNL1        0.0124
     10 C           0.5451    1.3745   25.9079 C.3     1  UNL1        0.0342
     11 C          -0.0545    2.0868   23.4825 C.ar    1  UNL1        0.1459
     12 N           1.1238    1.3164   22.9649 N.ar    1  UNL1       -0.2265
     13 C           4.5373   -2.5159   19.4660 C.ar    1  UNL1        0.0763
     14 N           6.0017   -2.5933   19.1503 N.ar    1  UNL1       -0.2509
     15 C           6.8894   -1.4137   19.4152 C.ar    1  UNL1        0.0781
     16 C           8.3538   -1.4911   19.0994 C.3     1  UNL1        0.0537
     17 C           6.3129   -0.1565   19.9959 C.ar    1  UNL1        0.1150
     18 N           4.8486   -0.0791   20.3117 N.ar    1  UNL1       -0.2258
     19 N           4.0023    1.0183   20.8858 N.ar    1  UNL1       -0.1634
     20 C           2.5914    0.5168   20.9757 C.ar    1  UNL1        0.1206
     21 C           2.5658   -0.8905   20.4571 C.ar    1  UNL1        0.0427
     22 C           3.9608   -1.2588   20.0467 C.ar    1  UNL1        0.0979
     23 C           4.2525   -5.0408   18.9242 C.3     1  UNL1        0.0067
     24 C           3.6495   -3.6955   19.2011 C.3     1  UNL1        0.0474
     25 C          -3.5895    4.3982   25.0353 C.3     1  UNL1        0.0266
     26 C          -4.3946    5.2538   24.1026 C.3     1  UNL1        0.0218
     27 C          -5.5729    6.0242   24.6202 C.3     1  UNL1        0.0725
     28 N          -5.9462    5.9392   26.0705 N.3     1  UNL1       -0.2715
     29 C          -7.1245    6.7097   26.5881 C.3     1  UNL1        0.0896
     30 C          -5.1411    5.0837   27.0032 C.3     1  UNL1        0.0725
     31 C          -3.9627    4.3132   26.4856 C.3     1  UNL1        0.0218
@<TRIPOS>BOND
     1    23    24    1
     2    24    13    1
     3    13    14   ar
     4    14    15   ar
     5    15    16    1
     6    15    17   ar
     7    17    18   ar
     8    18    19   ar
     9    19    20   ar
    10    20     1    1
    11     1     2   ar
    12     2     3   ar
    13     3     4    2
    14     3     5   ar
    15     5     6   ar
    16     6     7   ar
    17     7    25    1
    18    25    26    1
    19    26    27    1
    20    27    28    1
    21    28    29    1
    22    28    30    1
    23    30    31    1
    24     7     8   ar
    25     8     9   ar
    26     9    10    1
    27     9    11   ar
    28    11    12   ar
    29    20    21   ar
    30    21    22   ar
    31    22    13   ar
    32    22    18   ar
    33    12     1   ar
    34    11     5   ar
    35    31    25    1
@<TRIPOS>MOLECULE
*****
 31 35 0 0 0
SMALL
GASTEIGER

@<TRIPOS>ATOM
      1 C           4.0248   -0.8738   24.7227 C.ar    1  UNL1        0.1070
      2 C           2.9975    0.0201   25.3515 C.ar    1  UNL1        0.0818
      3 C           2.9647    0.1930   26.8412 C.ar    1  UNL1        0.2675
      4 O           1.9373    1.0870   27.4700 O.2     1  UNL1       -0.2665
      5 N           3.9592   -0.5281   27.7020 N.ar    1  UNL1       -0.2583
      6 C           3.9264   -0.3552   29.1917 C.ar    1  UNL1        0.0800
      7 C           4.9209   -1.0762   30.0525 C.ar    1  UNL1       -0.0050
      8 C           5.9482   -1.9702   29.4236 C.ar    1  UNL1       -0.0041
      9 C           5.9810   -2.1431   27.9340 C.ar    1  UNL1        0.0124
     10 C           7.0083   -3.0371   27.3052 C.3     1  UNL1        0.0342
     11 C           4.9865   -1.4220   27.0732 C.ar    1  UNL1        0.1459
     12 N           5.0193   -1.5949   25.5835 N.ar    1  UNL1       -0.2265
     13 C           4.0913   -2.9521   19.8226 C.ar    1  UNL1        0.0763
     14 N           4.1423   -2.3572   18.4466 N.ar    1  UNL1       -0.2509
     15 C           4.1876   -0.8678   18.2746 C.ar    1  UNL1        0.0781
     16 C           4.2386   -0.2728   16.8986 C.3     1  UNL1        0.0537
     17 C           4.1818    0.0268   19.4788 C.ar    1  UNL1        0.1150
     18 N           4.1307   -0.5682   20.8548 N.ar    1  UNL1       -0.2258
     19 N           4.1135    0.0565   22.2184 N.ar    1  UNL1       -0.1634
     20 C           4.0576   -1.0468   23.2330 C.ar    1  UNL1        0.1206
     21 C           4.0403   -2.3534   22.4965 C.ar    1  UNL1        0.0427
     22 C           4.0855   -2.0577   21.0267 C.ar    1  UNL1        0.0979
     23 C           4.4650   -5.3396   18.8685 C.3     1  UNL1        0.0067
     24 C           4.0460   -4.4415   19.9945 C.3     1  UNL1        0.0474
     25 C           4.8881   -0.9034   31.5421 C.3     1  UNL1        0.0266
     26 C           4.4414   -2.0356   32.4189 C.3     1  UNL1        0.0218
     27 C           4.4087   -1.8627   33.9085 C.3     1  UNL1        0.0725
     28 N           4.8225   -0.5576   34.5214 N.3     1  UNL1       -0.2715
     29 C           4.7897   -0.3848   36.0110 C.3     1  UNL1        0.0896
     30 C           5.2691    0.5745   33.6447 C.3     1  UNL1        0.0725
     31 C           5.3019    0.4017   32.1550 C.3     1  UNL1        0.0218
@<TRIPOS>BOND
     1    23    24    1
     2    24    13    1
     3    13    14   ar
     4    14    15   ar
     5    15    16    1
     6    15    17   ar
     7    17    18   ar
     8    18    19   ar
     9    19    20   ar
    10    20     1    1
    11     1     2   ar
    12     2     3   ar
    13     3     4    2
    14     3     5   ar
    15     5     6   ar
    16     6     7   ar
    17     7    25    1
    18    25    26    1
    19    26    27    1
    20    27    28    1
    21    28    29    1
    22    28    30    1
    23    30    31    1
    24     7     8   ar
    25     8     9   ar
    26     9    10    1
    27     9    11   ar
    28    11    12   ar
    29    20    21   ar
    30    21    22   ar
    31    22    13   ar
    32    22    18   ar
    33    12     1   ar
    34    11     5   ar
    35    31    25    1
@<TRIPOS>MOLECULE
*****
 31 35 0 0 0
SMALL
GASTEIGER

@<TRIPOS>ATOM
      1 C           1.0117    1.3648   22.5916 C.ar    1  UNL1        0.1070
      2 C           0.2533    2.3528   21.7558 C.ar    1  UNL1        0.0818
      3 C          -0.7688    3.2463   22.3936 C.ar    1  UNL1        0.2675
      4 O          -1.5273    4.2344   21.5578 O.2     1  UNL1       -0.2665
      5 N          -1.0325    3.1519   23.8673 N.ar    1  UNL1       -0.2583
      6 C          -2.0546    4.0455   24.5051 C.ar    1  UNL1        0.0800
      7 C          -2.3183    3.9510   25.9787 C.ar    1  UNL1       -0.0050
      8 C          -1.5598    2.9630   26.8145 C.ar    1  UNL1       -0.0041
      9 C          -0.5377    2.0694   26.1767 C.ar    1  UNL1        0.0124
     10 C           0.2207    1.0815   27.0125 C.3     1  UNL1        0.0342
     11 C          -0.2740    2.1639   24.7031 C.ar    1  UNL1        0.1459
     12 N           0.7480    1.2703   24.0652 N.ar    1  UNL1       -0.2265
     13 C           4.5852   -2.4754   21.6870 C.ar    1  UNL1        0.0763
     14 N           5.4237   -2.8505   20.5012 N.ar    1  UNL1       -0.2509
     15 C           5.3305   -2.0530   19.2343 C.ar    1  UNL1        0.0781
     16 C           6.1690   -2.4281   18.0485 C.3     1  UNL1        0.0537
     17 C           4.3986   -0.8803   19.1531 C.ar    1  UNL1        0.1150
     18 N           3.5601   -0.5052   20.3389 N.ar    1  UNL1       -0.2258
     19 N           2.5592    0.5911   20.5539 N.ar    1  UNL1       -0.1634
     20 C           2.0338    0.4712   21.9538 C.ar    1  UNL1        0.1206
     21 C           2.7101   -0.6993   22.6039 C.ar    1  UNL1        0.0427
     22 C           3.6534   -1.3028   21.6059 C.ar    1  UNL1        0.0979
     23 C           5.3860   -2.7040   24.1480 C.3     1  UNL1        0.0067
     24 C           4.6784   -3.2729   22.9540 C.3     1  UNL1        0.0474
     25 C          -3.3404    4.8446   26.6165 C.3     1  UNL1        0.0266
     26 C          -2.9040    5.9460   27.5366 C.3     1  UNL1        0.0218
     27 C          -3.9261    6.8395   28.1745 C.3     1  UNL1        0.0725
     28 N          -5.3846    6.6318   27.8922 N.3     1  UNL1       -0.2715
     29 C          -6.4066    7.5253   28.5300 C.3     1  UNL1        0.0896
     30 C          -5.8210    5.5304   26.9721 C.3     1  UNL1        0.0725
     31 C          -4.7988    4.6368   26.3343 C.3     1  UNL1        0.0218
@<TRIPOS>BOND
     1    23    24    1
     2    24    13    1
     3    13    14   ar
     4    14    15   ar
     5    15    16    1
     6    15    17   ar
     7    17    18   ar
     8    18    19   ar
     9    19    20   ar
    10    20     1    1
    11     1     2   ar
    12     2     3   ar
    13     3     4    2
    14     3     5   ar
    15     5     6   ar
    16     6     7   ar
    17     7    25    1
    18    25    26    1
    19    26    27    1
    20    27    28    1
    21    28    29    1
    22    28    30    1
    23    30    31    1
    24     7     8   ar
    25     8     9   ar
    26     9    10    1
    27     9    11   ar
    28    11    12   ar
    29    20    21   ar
    30    21    22   ar
    31    22    13   ar
    32    22    18   ar
    33    12     1   ar
    34    11     5   ar
    35    31    25    1
@<TRIPOS>MOLECULE
*****
 31 35 0 0 0
SMALL
GASTEIGER

@<TRIPOS>ATOM
      1 C           4.3484   -1.2535   25.1778 C.ar    1  UNL1        0.1070
      2 C           5.4943   -1.9788   25.8186 C.ar    1  UNL1        0.0818
      3 C           5.6771   -1.9264   27.3065 C.ar    1  UNL1        0.2675
      4 O           6.8230   -2.6517   27.9474 O.2     1  UNL1       -0.2665
      5 N           4.7139   -1.1487   28.1535 N.ar    1  UNL1       -0.2583
      6 C           4.8967   -1.0962   29.6415 C.ar    1  UNL1        0.0800
      7 C           3.9335   -0.3185   30.4885 C.ar    1  UNL1       -0.0050
      8 C           2.7875    0.4068   29.8475 C.ar    1  UNL1       -0.0041
      9 C           2.6048    0.3544   28.3596 C.ar    1  UNL1        0.0124
     10 C           1.4588    1.0797   27.7188 C.3     1  UNL1        0.0342
     11 C           3.5679   -0.4234   27.5126 C.ar    1  UNL1        0.1459
     12 N           3.3852   -0.4758   26.0248 N.ar    1  UNL1       -0.2265
     13 C           3.9622   -2.9132   20.1348 C.ar    1  UNL1        0.0763
     14 N           3.6858   -2.2180   18.8347 N.ar    1  UNL1       -0.2509
     15 C           3.4496   -0.7369   18.8115 C.ar    1  UNL1        0.0781
     16 C           3.1732   -0.0418   17.5113 C.3     1  UNL1        0.0537
     17 C           3.4898    0.0491   20.0884 C.ar    1  UNL1        0.1150
     18 N           3.7662   -0.6461   21.3886 N.ar    1  UNL1       -0.2258
     19 N           3.8671   -0.1385   22.7965 N.ar    1  UNL1       -0.1634
     20 C           4.1656   -1.3059   23.6898 C.ar    1  UNL1        0.1206
     21 C           4.2492   -2.5350   22.8340 C.ar    1  UNL1        0.0427
     22 C           4.0024   -2.1272   21.4117 C.ar    1  UNL1        0.0979
     23 C           4.4600   -5.1322   18.8785 C.3     1  UNL1        0.0067
     24 C           4.1984   -4.3942   20.1580 C.3     1  UNL1        0.0474
     25 C           4.1162   -0.2661   31.9763 C.3     1  UNL1        0.0266
     26 C           3.5466    0.8777   32.7621 C.3     1  UNL1        0.0218
     27 C           3.7293    0.9301   34.2500 C.3     1  UNL1        0.0725
     28 N           4.4817   -0.1612   34.9522 N.3     1  UNL1       -0.2715
     29 C           4.6644   -0.1087   36.4400 C.3     1  UNL1        0.0896
     30 C           5.0513   -1.3049   34.1665 C.3     1  UNL1        0.0725
     31 C           4.8686   -1.3574   32.6785 C.3     1  UNL1        0.0218
@<TRIPOS>BOND
     1    23    24    1
     2    24    13    1
     3    13    14   ar
     4    14    15   ar
     5    15    16    1
     6    15    17   ar
     7    17    18   ar
     8    18    19   ar
     9    19    20   ar
    10    20     1    1
    11     1     2   ar
    12     2     3   ar
    13     3     4    2
    14     3     5   ar
    15     5     6   ar
    16     6     7   ar
    17     7    25    1
    18    25    26    1
    19    26    27    1
    20    27    28    1
    21    28    29    1
    22    28    30    1
    23    30    31    1
    24     7     8   ar
    25     8     9   ar
    26     9    10    1
    27     9    11   ar
    28    11    12   ar
    29    20    21   ar
    30    21    22   ar
    31    22    13   ar
    32    22    18   ar
    33    12     1   ar
    34    11     5   ar
    35    31    25    1
@<TRIPOS>MOLECULE
*****
 31 35 0 0 0
SMALL
GASTEIGER

@<TRIPOS>ATOM
      1 C           3.2358    0.0054   25.8795 C.ar    1  UNL1        0.1070
      2 C           4.5030    0.1024   26.6763 C.ar    1  UNL1        0.0818
      3 C           4.4681    0.6323   28.0791 C.ar    1  UNL1        0.2675
      4 O           5.7353    0.7293   28.8759 O.2     1  UNL1       -0.2665
      5 N           3.1660    1.0651   28.6852 N.ar    1  UNL1       -0.2583
      6 C           3.1312    1.5950   30.0881 C.ar    1  UNL1        0.0800
      7 C           1.8291    2.0278   30.6942 C.ar    1  UNL1       -0.0050
      8 C           0.5619    1.9307   29.8974 C.ar    1  UNL1       -0.0041
      9 C           0.5968    1.4009   28.4945 C.ar    1  UNL1        0.0124
     10 C          -0.6703    1.3039   27.6978 C.3     1  UNL1        0.0342
     11 C           1.8989    0.9681   27.8884 C.ar    1  UNL1        0.1459
     12 N           1.9338    0.4382   26.4856 N.ar    1  UNL1       -0.2265
     13 C           2.2152   -0.8954   20.7335 C.ar    1  UNL1        0.0763
     14 N           2.8149   -1.8058   19.7032 N.ar    1  UNL1       -0.2509
     15 C           3.9541   -2.7091   20.0726 C.ar    1  UNL1        0.0781
     16 C           4.5538   -3.6195   19.0424 C.3     1  UNL1        0.0537
     17 C           4.4935   -2.7019   21.4723 C.ar    1  UNL1        0.1150
     18 N           3.8938   -1.7914   22.5025 N.ar    1  UNL1       -0.2258
     19 N           4.2127   -1.5666   23.9509 N.ar    1  UNL1       -0.1634
     20 C           3.2706   -0.5245   24.4766 C.ar    1  UNL1        0.1206
     21 C           2.3695   -0.1052   23.3531 C.ar    1  UNL1        0.0427
     22 C           2.7546   -0.8881   22.1331 C.ar    1  UNL1        0.0979
     23 C           1.1843    0.8983   19.1618 C.3     1  UNL1        0.0067
     24 C           1.0761    0.0078   20.3641 C.3     1  UNL1        0.0474
     25 C           1.7942    2.5576   32.0970 C.3     1  UNL1        0.0266
     26 C           2.4886    1.8119   33.1979 C.3     1  UNL1        0.0218
     27 C           2.4537    2.3417   34.6008 C.3     1  UNL1        0.0725
     28 N           1.7245    3.6173   34.9028 N.3     1  UNL1       -0.2715
     29 C           1.6896    4.1471   36.3056 C.3     1  UNL1        0.0896
     30 C           1.0302    4.3630   33.8020 C.3     1  UNL1        0.0725
     31 C           1.0651    3.8332   32.3991 C.3     1  UNL1        0.0218
@<TRIPOS>BOND
     1    23    24    1
     2    24    13    1
     3    13    14   ar
     4    14    15   ar
     5    15    16    1
     6    15    17   ar
     7    17    18   ar
     8    18    19   ar
     9    19    20   ar
    10    20     1    1
    11     1     2   ar
    12     2     3   ar
    13     3     4    2
    14     3     5   ar
    15     5     6   ar
    16     6     7   ar
    17     7    25    1
    18    25    26    1
    19    26    27    1
    20    27    28    1
    21    28    29    1
    22    28    30    1
    23    30    31    1
    24     7     8   ar
    25     8     9   ar
    26     9    10    1
    27     9    11   ar
    28    11    12   ar
    29    20    21   ar
    30    21    22   ar
    31    22    13   ar
    32    22    18   ar
    33    12     1   ar
    34    11     5   ar
    35    31    25    1
@<TRIPOS>MOLECULE
*****
 31 35 0 0 0
SMALL
GASTEIGER

@<TRIPOS>ATOM
      1 C           0.6147    1.6998   21.8758 C.ar    1  UNL1        0.1070
      2 C          -0.2527    2.6947   21.1633 C.ar    1  UNL1        0.0818
      3 C          -1.2138    3.5442   21.9408 C.ar    1  UNL1        0.2675
      4 O          -2.0813    4.5392   21.2282 O.2     1  UNL1       -0.2665
      5 N          -1.3076    3.3988   23.4307 N.ar    1  UNL1       -0.2583
      6 C          -2.2687    4.2484   24.2082 C.ar    1  UNL1        0.0800
      7 C          -2.3625    4.1030   25.6982 C.ar    1  UNL1       -0.0050
      8 C          -1.4950    3.1080   26.4107 C.ar    1  UNL1       -0.0041
      9 C          -0.5339    2.2585   25.6333 C.ar    1  UNL1        0.0124
     10 C           0.3335    1.2636   26.3458 C.3     1  UNL1        0.0342
     11 C          -0.4402    2.4039   24.1433 C.ar    1  UNL1        0.1459
     12 N           0.5209    1.5544   23.3658 N.ar    1  UNL1       -0.2265
     13 C           4.4650    0.0389   18.5969 C.ar    1  UNL1        0.0763
     14 N           5.0085   -1.3127   18.2395 N.ar    1  UNL1       -0.2509
     15 C           4.4309   -2.5444   18.8712 C.ar    1  UNL1        0.0781
     16 C           4.9745   -3.8960   18.5138 C.3     1  UNL1        0.0537
     17 C           3.3096   -2.4246   19.8604 C.ar    1  UNL1        0.1150
     18 N           2.7661   -1.0730   20.2178 N.ar    1  UNL1       -0.2258
     19 N           1.6735   -0.6457   21.1525 N.ar    1  UNL1       -0.1634
     20 C           1.5759    0.8502   21.0983 C.ar    1  UNL1        0.1206
     21 C           2.6082    1.3473   20.1302 C.ar    1  UNL1        0.0427
     22 C           3.3438    0.1587   19.5860 C.ar    1  UNL1        0.0979
     23 C           6.0930    1.1458   16.9015 C.3     1  UNL1        0.0067
     24 C           5.0426    1.2706   17.9651 C.3     1  UNL1        0.0474
     25 C          -3.3236    4.9526   26.4757 C.3     1  UNL1        0.0266
     26 C          -2.8078    6.0299   27.3832 C.3     1  UNL1        0.0218
     27 C          -3.7689    6.8794   28.1607 C.3     1  UNL1        0.0725
     28 N          -5.2458    6.6517   28.0307 N.3     1  UNL1       -0.2715
     29 C          -6.2069    7.5012   28.8082 C.3     1  UNL1        0.0896
     30 C          -5.7616    5.5745   27.1233 C.3     1  UNL1        0.0725
     31 C          -4.8005    4.7249   26.3457 C.3     1  UNL1        0.0218
@<TRIPOS>BOND
     1    23    24    1
     2    24    13    1
     3    13    14   ar
     4    14    15   ar
     5    15    16    1
     6    15    17   ar
     7    17    18   ar
     8    18    19   ar
     9    19    20   ar
    10    20     1    1
    11     1     2   ar
    12     2     3   ar
    13     3     4    2
    14     3     5   ar
    15     5     6   ar
    16     6     7   ar
    17     7    25    1
    18    25    26    1
    19    26    27    1
    20    27    28    1
    21    28    29    1
    22    28    30    1
    23    30    31    1
    24     7     8   ar
    25     8     9   ar
    26     9    10    1
    27     9    11   ar
    28    11    12   ar
    29    20    21   ar
    30    21    22   ar
    31    22    13   ar
    32    22    18   ar
    33    12     1   ar
    34    11     5   ar
    35    31    25    1
