@<TRIPOS>MOLECULE
*****
 29 32 0 0 0
SMALL
GASTEIGER

@<TRIPOS>ATOM
      1 C          -9.5552  -18.9625   21.2174 C.ar    1  UNL1        0.2172
      2 N          -8.7530  -19.5681   22.3308 N.ar    1  UNL1       -0.2126
      3 C          -7.4185  -20.1889   22.0419 C.ar    1  UNL1        0.0994
      4 C          -6.8861  -20.2042   20.6396 C.ar    1  UNL1        0.0207
      5 C          -7.6883  -19.5986   19.5262 C.ar    1  UNL1        0.0994
      6 N          -9.0229  -18.9778   19.8151 N.ar    1  UNL1       -0.2126
      7 N         -10.8898  -18.3417   21.5062 N.pl3   1  UNL1       -0.2990
      8 H         -11.7167  -18.8118   21.2522 H       1  UNL1        0.1500
      9 C         -10.9646  -17.0047   22.1821 C.3     1  UNL1        0.1180
     10 C          -7.3125  -15.2783   24.1647 C.ar    1  UNL1        0.2250
     11 C          -8.3693  -15.9479   24.9922 C.ar    1  UNL1        0.0574
     12 C          -9.5867  -16.5233   24.3313 C.ar    1  UNL1        0.0037
     13 C          -9.7472  -16.4292   22.8429 C.ar    1  UNL1        0.0168
     14 C          -8.6904  -15.7596   22.0154 C.ar    1  UNL1        0.0994
     15 N          -7.4731  -15.1841   22.6763 N.ar    1  UNL1       -0.2104
     16 C          -5.7792  -15.0516   26.2498 C.3     1  UNL1        0.2542
     17 O          -6.0951  -14.7028   24.8255 O.3     1  UNL1       -0.4561
     18 C          -5.5514  -20.8251   20.3508 C.3     1  UNL1        0.0575
     19 C          -4.3304  -19.9608   20.2402 C.ar    1  UNL1        0.0044
     20 C          -3.4473  -19.8325   19.0345 C.ar    1  UNL1        0.0966
     21 N          -2.3492  -18.8656   19.3651 N.ar    1  UNL1       -0.2273
     22 C          -2.5537  -18.3963   20.7751 C.ar    1  UNL1        0.1403
     23 N          -1.7831  -17.4401   21.6364 N.ar    1  UNL1       -0.3367
     24 C          -2.2370  -17.1608   23.0385 C.ar    1  UNL1        0.0850
     25 C          -3.4615  -17.8377   23.5793 C.ar    1  UNL1        0.0747
     26 CL         -3.9154  -17.5584   24.9815 Cl      1  UNL1       -0.0807
     27 C          -4.2320  -18.7939   22.7180 C.ar    1  UNL1        0.0156
     28 C          -3.7782  -19.0732   21.3159 C.ar    1  UNL1        0.0327
     29 H          -0.9795  -16.9958   21.2814 H       1  UNL1        0.1674
@<TRIPOS>BOND
     1    16    17    1
     2    17    10    1
     3    10    11   ar
     4    11    12   ar
     5    12    13   ar
     6    13     9    1
     7     9     7    1
     8     7     1    1
     9     1     2   ar
    10     2     3   ar
    11     3     4   ar
    12     4    18    1
    13    18    19    1
    14    19    20   ar
    15    20    21   ar
    16    21    22   ar
    17    22    23   ar
    18    23    24   ar
    19    24    25   ar
    20    25    26    1
    21    25    27   ar
    22    27    28   ar
    23     4     5   ar
    24     5     6   ar
    25    13    14   ar
    26    14    15   ar
    27    15    10   ar
    28     6     1   ar
    29    28    19   ar
    30    28    22    1
    31     7     8    1
    32    23    29    1
@<TRIPOS>MOLECULE
*****
 29 32 0 0 0
SMALL
GASTEIGER

@<TRIPOS>ATOM
      1 C          -9.2900  -19.0236   21.2441 C.ar    1  UNL1        0.2172
      2 N          -8.5103  -19.6547   22.3594 N.ar    1  UNL1       -0.2126
      3 C          -7.1121  -20.1399   22.1159 C.ar    1  UNL1        0.0994
      4 C          -6.4935  -19.9942   20.7572 C.ar    1  UNL1        0.0207
      5 C          -7.2732  -19.3631   19.6419 C.ar    1  UNL1        0.0994
      6 N          -8.6714  -18.8778   19.8854 N.ar    1  UNL1       -0.2126
      7 N         -10.6883  -18.5383   21.4875 N.pl3   1  UNL1       -0.2990
      8 H         -11.4544  -19.0508   21.1416 H       1  UNL1        0.1500
      9 C         -10.9194  -17.2722   22.2580 C.3     1  UNL1        0.1180
     10 C          -7.4636  -15.1855   24.2462 C.ar    1  UNL1        0.2250
     11 C          -8.4945  -15.8886   25.0785 C.ar    1  UNL1        0.0574
     12 C          -9.6464  -16.5842   24.4158 C.ar    1  UNL1        0.0037
     13 C          -9.7674  -16.5766   22.9207 C.ar    1  UNL1        0.0168
     14 C          -8.7365  -15.8735   22.0883 C.ar    1  UNL1        0.0994
     15 N          -7.5846  -15.1779   22.7511 N.ar    1  UNL1       -0.2104
     16 C          -5.5377  -15.1843   25.9900 C.3     1  UNL1        0.2542
     17 O          -6.3116  -14.4899   24.9088 O.3     1  UNL1       -0.4561
     18 C          -5.0951  -20.4795   20.5138 C.3     1  UNL1        0.0575
     19 C          -3.9306  -19.7346   21.0962 C.ar    1  UNL1        0.0044
     20 C          -3.5942  -19.6249   22.5539 C.ar    1  UNL1        0.0966
     21 N          -2.3538  -18.7912   22.6817 N.ar    1  UNL1       -0.2273
     22 C          -1.9237  -18.3857   21.3031 C.ar    1  UNL1        0.1403
     23 N          -0.7705  -17.5608   20.8135 N.ar    1  UNL1       -0.3367
     24 C          -0.5919  -17.3190   19.3440 C.ar    1  UNL1        0.0850
     25 C          -1.5665  -17.9021   18.3640 C.ar    1  UNL1        0.0747
     26 CL         -1.3878  -17.6602   16.8944 Cl      1  UNL1       -0.0807
     27 C          -2.7196  -18.7270   18.8537 C.ar    1  UNL1        0.0156
     28 C          -2.8982  -18.9687   20.3232 C.ar    1  UNL1        0.0327
     29 H          -0.1309  -17.1781   21.4567 H       1  UNL1        0.1674
@<TRIPOS>BOND
     1    16    17    1
     2    17    10    1
     3    10    11   ar
     4    11    12   ar
     5    12    13   ar
     6    13     9    1
     7     9     7    1
     8     7     1    1
     9     1     2   ar
    10     2     3   ar
    11     3     4   ar
    12     4    18    1
    13    18    19    1
    14    19    20   ar
    15    20    21   ar
    16    21    22   ar
    17    22    23   ar
    18    23    24   ar
    19    24    25   ar
    20    25    26    1
    21    25    27   ar
    22    27    28   ar
    23     4     5   ar
    24     5     6   ar
    25    13    14   ar
    26    14    15   ar
    27    15    10   ar
    28     6     1   ar
    29    28    19   ar
    30    28    22    1
    31     7     8    1
    32    23    29    1
@<TRIPOS>MOLECULE
*****
 29 32 0 0 0
SMALL
GASTEIGER

@<TRIPOS>ATOM
      1 C          -8.5301  -15.9633   26.1436 C.ar    1  UNL1        0.2172
      2 N          -9.0115  -15.4687   24.8118 N.ar    1  UNL1       -0.2126
      3 C          -9.8290  -16.3652   23.9298 C.ar    1  UNL1        0.0994
      4 C         -10.1650  -17.7562   24.3794 C.ar    1  UNL1        0.0207
      5 C          -9.6835  -18.2508   25.7111 C.ar    1  UNL1        0.0994
      6 N          -8.8661  -17.3543   26.5932 N.ar    1  UNL1       -0.2126
      7 N          -7.7126  -15.0669   27.0258 N.pl3   1  UNL1       -0.2990
      8 H          -8.1568  -14.3935   27.5900 H       1  UNL1        0.1500
      9 C          -6.2184  -15.1965   27.0482 C.3     1  UNL1        0.1180
     10 C          -4.0269  -16.6085   23.3804 C.ar    1  UNL1        0.2250
     11 C          -3.9295  -17.3875   24.6586 C.ar    1  UNL1        0.0574
     12 C          -4.6600  -16.9168   25.8812 C.ar    1  UNL1        0.0037
     13 C          -5.4879  -15.6671   25.8256 C.ar    1  UNL1        0.0168
     14 C          -5.5853  -14.8882   24.5474 C.ar    1  UNL1        0.0994
     15 N          -4.8547  -15.3589   23.3248 N.ar    1  UNL1       -0.2104
     16 C          -2.1033  -16.3196   21.6581 C.3     1  UNL1        0.2542
     17 O          -3.2964  -17.0792   22.1578 O.3     1  UNL1       -0.4561
     18 C         -10.9825  -18.6527   23.4972 C.3     1  UNL1        0.0575
     19 C         -10.6152  -18.8209   22.0526 C.ar    1  UNL1        0.0044
     20 C         -11.5550  -18.7267   20.8872 C.ar    1  UNL1        0.0966
     21 N         -10.7643  -18.9605   19.6342 N.ar    1  UNL1       -0.2273
     22 C          -9.3359  -19.1992   20.0251 C.ar    1  UNL1        0.1403
     23 N          -8.1073  -19.4840   19.2132 N.ar    1  UNL1       -0.3367
     24 C          -6.7865  -19.6825   19.8959 C.ar    1  UNL1        0.0850
     25 C          -6.6944  -19.5962   21.3906 C.ar    1  UNL1        0.0747
     26 CL         -5.3736  -19.7948   22.0733 Cl      1  UNL1       -0.0807
     27 C          -7.9231  -19.3115   22.2025 C.ar    1  UNL1        0.0156
     28 C          -9.2438  -19.1130   21.5198 C.ar    1  UNL1        0.0327
     29 H          -8.1677  -19.5407   18.2322 H       1  UNL1        0.1674
@<TRIPOS>BOND
     1    16    17    1
     2    17    10    1
     3    10    11   ar
     4    11    12   ar
     5    12    13   ar
     6    13     9    1
     7     9     7    1
     8     7     1    1
     9     1     2   ar
    10     2     3   ar
    11     3     4   ar
    12     4    18    1
    13    18    19    1
    14    19    20   ar
    15    20    21   ar
    16    21    22   ar
    17    22    23   ar
    18    23    24   ar
    19    24    25   ar
    20    25    26    1
    21    25    27   ar
    22    27    28   ar
    23     4     5   ar
    24     5     6   ar
    25    13    14   ar
    26    14    15   ar
    27    15    10   ar
    28     6     1   ar
    29    28    19   ar
    30    28    22    1
    31     7     8    1
    32    23    29    1
@<TRIPOS>MOLECULE
*****
 29 32 0 0 0
SMALL
GASTEIGER

@<TRIPOS>ATOM
      1 C          -9.8831  -18.6485   20.0585 C.ar    1  UNL1        0.2172
      2 N          -8.8488  -17.9857   20.9192 N.ar    1  UNL1       -0.2126
      3 C          -7.4576  -18.5429   20.9833 C.ar    1  UNL1        0.0994
      4 C          -7.1007  -19.7627   20.1867 C.ar    1  UNL1        0.0207
      5 C          -8.1351  -20.4255   19.3260 C.ar    1  UNL1        0.0994
      6 N          -9.5262  -19.8683   19.2619 N.ar    1  UNL1       -0.2126
      7 N         -11.2743  -18.0914   19.9943 N.pl3   1  UNL1       -0.2990
      8 H         -11.7418  -18.0330   19.1299 H       1  UNL1        0.1500
      9 C         -11.9534  -17.6233   21.2473 C.3     1  UNL1        0.1180
     10 C          -9.8020  -17.8533   25.1929 C.ar    1  UNL1        0.2250
     11 C          -9.6888  -16.6193   24.3477 C.ar    1  UNL1        0.0574
     12 C         -10.4059  -16.5426   23.0325 C.ar    1  UNL1        0.0037
     13 C         -11.2363  -17.7000   22.5625 C.ar    1  UNL1        0.0168
     14 C         -11.3496  -18.9340   23.4077 C.ar    1  UNL1        0.0994
     15 N         -10.6325  -19.0106   24.7229 N.ar    1  UNL1       -0.2104
     16 C          -8.5048  -16.6891   27.1196 C.3     1  UNL1        0.2542
     17 O          -9.0849  -17.9300   26.5081 O.3     1  UNL1       -0.4561
     18 C          -5.7094  -20.3199   20.2508 C.3     1  UNL1        0.0575
     19 C          -4.6511  -19.6056   21.0381 C.ar    1  UNL1        0.0044
     20 C          -4.5895  -19.4924   22.5326 C.ar    1  UNL1        0.0966
     21 N          -3.3689  -18.6960   22.8872 N.ar    1  UNL1       -0.2273
     22 C          -2.6760  -18.3171   21.6119 C.ar    1  UNL1        0.1403
     23 N          -1.4259  -17.5327   21.3436 N.ar    1  UNL1       -0.3367
     24 C          -0.9682  -17.3106   19.9326 C.ar    1  UNL1        0.0850
     25 C          -1.7607  -17.8727   18.7898 C.ar    1  UNL1        0.0747
     26 CL         -1.3030  -17.6505   17.3786 Cl      1  UNL1       -0.0807
     27 C          -3.0108  -18.6571   19.0580 C.ar    1  UNL1        0.0156
     28 C          -3.4684  -18.8792   20.4691 C.ar    1  UNL1        0.0327
     29 H          -0.9058  -17.1637   22.0937 H       1  UNL1        0.1674
@<TRIPOS>BOND
     1    16    17    1
     2    17    10    1
     3    10    11   ar
     4    11    12   ar
     5    12    13   ar
     6    13     9    1
     7     9     7    1
     8     7     1    1
     9     1     2   ar
    10     2     3   ar
    11     3     4   ar
    12     4    18    1
    13    18    19    1
    14    19    20   ar
    15    20    21   ar
    16    21    22   ar
    17    22    23   ar
    18    23    24   ar
    19    24    25   ar
    20    25    26    1
    21    25    27   ar
    22    27    28   ar
    23     4     5   ar
    24     5     6   ar
    25    13    14   ar
    26    14    15   ar
    27    15    10   ar
    28     6     1   ar
    29    28    19   ar
    30    28    22    1
    31     7     8    1
    32    23    29    1
@<TRIPOS>MOLECULE
*****
 29 32 0 0 0
SMALL
GASTEIGER

@<TRIPOS>ATOM
      1 C          -3.9809  -19.7492   20.1792 C.ar    1  UNL1        0.2172
      2 N          -4.8238  -18.5598   19.8257 N.ar    1  UNL1       -0.2126
      3 C          -6.3191  -18.6781   19.8112 C.ar    1  UNL1        0.0994
      4 C          -6.9714  -19.9855   20.1502 C.ar    1  UNL1        0.0207
      5 C          -6.1285  -21.1749   20.5038 C.ar    1  UNL1        0.0994
      6 N          -4.6333  -21.0566   20.5182 N.ar    1  UNL1       -0.2126
      7 N          -2.4857  -19.6310   20.1937 N.pl3   1  UNL1       -0.2990
      8 H          -1.9440  -20.1603   19.5646 H       1  UNL1        0.1500
      9 C          -1.8157  -18.7066   21.1667 C.3     1  UNL1        0.1180
     10 C          -4.2783  -15.8319   23.6000 C.ar    1  UNL1        0.2250
     11 C          -4.3016  -17.2971   23.9203 C.ar    1  UNL1        0.0574
     12 C          -3.4807  -18.2553   23.1092 C.ar    1  UNL1        0.0037
     13 C          -2.6365  -17.7483   21.9777 C.ar    1  UNL1        0.0168
     14 C          -2.6132  -16.2831   21.6573 C.ar    1  UNL1        0.0994
     15 N          -3.4341  -15.3249   22.4685 N.ar    1  UNL1       -0.2104
     16 C          -5.5462  -15.2515   25.7921 C.3     1  UNL1        0.2542
     17 O          -5.0992  -14.8736   24.4110 O.3     1  UNL1       -0.4561
     18 C          -8.4668  -20.1037   20.1357 C.3     1  UNL1        0.0575
     19 C          -9.2742  -19.5456   21.2700 C.ar    1  UNL1        0.0044
     20 C          -9.2549  -20.0318   22.6889 C.ar    1  UNL1        0.0966
     21 N         -10.2115  -19.1901   23.4803 N.ar    1  UNL1       -0.2273
     22 C         -10.8221  -18.1837   22.5505 C.ar    1  UNL1        0.1403
     23 N         -11.8306  -17.0956   22.7714 N.ar    1  UNL1       -0.3367
     24 C         -12.2599  -16.2272   21.6261 C.ar    1  UNL1        0.0850
     25 C         -11.6806  -16.4470   20.2600 C.ar    1  UNL1        0.0747
     26 CL        -12.1099  -15.5786   19.1147 Cl      1  UNL1       -0.0807
     27 C         -10.6720  -17.5351   20.0392 C.ar    1  UNL1        0.0156
     28 C         -10.2428  -18.4034   21.1845 C.ar    1  UNL1        0.0327
     29 H         -12.2108  -16.9513   23.6679 H       1  UNL1        0.1674
@<TRIPOS>BOND
     1    16    17    1
     2    17    10    1
     3    10    11   ar
     4    11    12   ar
     5    12    13   ar
     6    13     9    1
     7     9     7    1
     8     7     1    1
     9     1     2   ar
    10     2     3   ar
    11     3     4   ar
    12     4    18    1
    13    18    19    1
    14    19    20   ar
    15    20    21   ar
    16    21    22   ar
    17    22    23   ar
    18    23    24   ar
    19    24    25   ar
    20    25    26    1
    21    25    27   ar
    22    27    28   ar
    23     4     5   ar
    24     5     6   ar
    25    13    14   ar
    26    14    15   ar
    27    15    10   ar
    28     6     1   ar
    29    28    19   ar
    30    28    22    1
    31     7     8    1
    32    23    29    1
@<TRIPOS>MOLECULE
*****
 29 32 0 0 0
SMALL
GASTEIGER

@<TRIPOS>ATOM
      1 C          -8.3764  -15.9502   23.8976 C.ar    1  UNL1        0.2172
      2 N          -7.4357  -15.1765   24.7731 N.ar    1  UNL1       -0.2126
      3 C          -5.9707  -15.4985   24.7683 C.ar    1  UNL1        0.0994
      4 C          -5.4464  -16.5941   23.8880 C.ar    1  UNL1        0.0207
      5 C          -6.3872  -17.3677   23.0126 C.ar    1  UNL1        0.0994
      6 N          -7.8522  -17.0457   23.0174 N.ar    1  UNL1       -0.2126
      7 N          -9.8415  -15.6282   23.9024 N.pl3   1  UNL1       -0.2990
      8 H         -10.1433  -14.7112   24.0952 H       1  UNL1        0.1500
      9 C         -10.8467  -16.7035   23.6135 C.3     1  UNL1        0.1180
     10 C         -10.4805  -19.1799   19.8741 C.ar    1  UNL1        0.2250
     11 C         -10.5965  -19.8517   21.2102 C.ar    1  UNL1        0.0574
     12 C         -10.7186  -19.0262   22.4567 C.ar    1  UNL1        0.0037
     13 C         -10.7246  -17.5289   22.3670 C.ar    1  UNL1        0.0168
     14 C         -10.6087  -16.8571   21.0309 C.ar    1  UNL1        0.0994
     15 N         -10.4866  -17.6826   19.7844 N.ar    1  UNL1       -0.2104
     16 C          -9.0530  -20.6610   18.2871 C.3     1  UNL1        0.2542
     17 O         -10.3585  -20.0053   18.6276 O.3     1  UNL1       -0.4561
     18 C          -3.9813  -16.9160   23.8832 C.3     1  UNL1        0.0575
     19 C          -3.2642  -17.1277   22.5829 C.ar    1  UNL1        0.0044
     20 C          -2.1441  -16.2864   22.0466 C.ar    1  UNL1        0.0966
     21 N          -1.7289  -16.8566   20.7228 N.ar    1  UNL1       -0.2273
     22 C          -2.5924  -18.0503   20.4409 C.ar    1  UNL1        0.1403
     23 N          -2.6373  -19.0063   19.2859 N.ar    1  UNL1       -0.3367
     24 C          -3.6309  -20.1299   19.2806 C.ar    1  UNL1        0.0850
     25 C          -4.5798  -20.2975   20.4302 C.ar    1  UNL1        0.0747
     26 CL         -5.5735  -21.4212   20.4249 Cl      1  UNL1       -0.0807
     27 C          -4.5349  -19.3415   21.5852 C.ar    1  UNL1        0.0156
     28 C          -3.5413  -18.2179   21.5905 C.ar    1  UNL1        0.0327
     29 H          -2.0145  -18.8963   18.5314 H       1  UNL1        0.1674
@<TRIPOS>BOND
     1    16    17    1
     2    17    10    1
     3    10    11   ar
     4    11    12   ar
     5    12    13   ar
     6    13     9    1
     7     9     7    1
     8     7     1    1
     9     1     2   ar
    10     2     3   ar
    11     3     4   ar
    12     4    18    1
    13    18    19    1
    14    19    20   ar
    15    20    21   ar
    16    21    22   ar
    17    22    23   ar
    18    23    24   ar
    19    24    25   ar
    20    25    26    1
    21    25    27   ar
    22    27    28   ar
    23     4     5   ar
    24     5     6   ar
    25    13    14   ar
    26    14    15   ar
    27    15    10   ar
    28     6     1   ar
    29    28    19   ar
    30    28    22    1
    31     7     8    1
    32    23    29    1
@<TRIPOS>MOLECULE
*****
 29 32 0 0 0
SMALL
GASTEIGER

@<TRIPOS>ATOM
      1 C          -6.2909  -15.8376   24.5010 C.ar    1  UNL1        0.2172
      2 N          -6.6991  -15.4526   23.1099 N.ar    1  UNL1       -0.2126
      3 C          -8.1410  -15.5277   22.7036 C.ar    1  UNL1        0.0994
      4 C          -9.1748  -15.9877   23.6883 C.ar    1  UNL1        0.0207
      5 C          -8.7666  -16.3728   25.0794 C.ar    1  UNL1        0.0994
      6 N          -7.3247  -16.2977   25.4857 N.ar    1  UNL1       -0.2126
      7 N          -4.8490  -15.7626   24.9074 N.pl3   1  UNL1       -0.2990
      8 H          -4.4912  -14.9345   25.3017 H       1  UNL1        0.1500
      9 C          -3.9521  -16.9491   24.7130 C.3     1  UNL1        0.1180
     10 C          -2.8622  -18.2889   20.5577 C.ar    1  UNL1        0.2250
     11 C          -3.6224  -19.2083   21.4669 C.ar    1  UNL1        0.0574
     12 C          -3.9857  -18.7617   22.8520 C.ar    1  UNL1        0.0037
     13 C          -3.5888  -17.3957   23.3279 C.ar    1  UNL1        0.0168
     14 C          -2.8286  -16.4762   22.4186 C.ar    1  UNL1        0.0994
     15 N          -2.4653  -16.9229   21.0335 N.ar    1  UNL1       -0.2104
     16 C          -1.7540  -17.8094   18.2572 C.3     1  UNL1        0.2542
     17 O          -2.4988  -18.7354   19.1726 O.3     1  UNL1       -0.4561
     18 C         -10.6168  -16.0628   23.2820 C.3     1  UNL1        0.0575
     19 C         -10.9959  -16.6950   21.9756 C.ar    1  UNL1        0.0044
     20 C         -12.2289  -16.3948   21.1757 C.ar    1  UNL1        0.0966
     21 N         -12.2035  -17.2526   19.9455 N.ar    1  UNL1       -0.2273
     22 C         -10.9550  -18.0831   19.9851 C.ar    1  UNL1        0.1403
     23 N         -10.4013  -19.1085   19.0407 N.ar    1  UNL1       -0.3367
     24 C          -9.1013  -19.7893   19.3510 C.ar    1  UNL1        0.0850
     25 C          -8.3549  -19.4447   20.6057 C.ar    1  UNL1        0.0747
     26 CL         -7.0548  -20.1255   20.9160 Cl      1  UNL1       -0.0807
     27 C          -8.9086  -18.4192   21.5500 C.ar    1  UNL1        0.0156
     28 C         -10.2087  -17.7384   21.2397 C.ar    1  UNL1        0.0327
     29 H         -10.8912  -19.3347   18.2173 H       1  UNL1        0.1674
@<TRIPOS>BOND
     1    16    17    1
     2    17    10    1
     3    10    11   ar
     4    11    12   ar
     5    12    13   ar
     6    13     9    1
     7     9     7    1
     8     7     1    1
     9     1     2   ar
    10     2     3   ar
    11     3     4   ar
    12     4    18    1
    13    18    19    1
    14    19    20   ar
    15    20    21   ar
    16    21    22   ar
    17    22    23   ar
    18    23    24   ar
    19    24    25   ar
    20    25    26    1
    21    25    27   ar
    22    27    28   ar
    23     4     5   ar
    24     5     6   ar
    25    13    14   ar
    26    14    15   ar
    27    15    10   ar
    28     6     1   ar
    29    28    19   ar
    30    28    22    1
    31     7     8    1
    32    23    29    1
@<TRIPOS>MOLECULE
*****
 29 32 0 0 0
SMALL
GASTEIGER

@<TRIPOS>ATOM
      1 C          -5.5275  -15.5223   25.5069 C.ar    1  UNL1        0.2172
      2 N          -5.2889  -15.0689   24.0971 N.ar    1  UNL1       -0.2126
      3 C          -4.3083  -15.8008   23.2297 C.ar    1  UNL1        0.0994
      4 C          -3.5661  -16.9862   23.7720 C.ar    1  UNL1        0.0207
      5 C          -3.8046  -17.4397   25.1818 C.ar    1  UNL1        0.0994
      6 N          -4.7853  -16.7077   26.0492 N.ar    1  UNL1       -0.2126
      7 N          -6.5081  -14.7904   26.3744 N.pl3   1  UNL1       -0.2990
      8 H          -6.3484  -13.8482   26.6111 H       1  UNL1        0.1500
      9 C          -7.7321  -15.4939   26.8812 C.3     1  UNL1        0.1180
     10 C         -10.3878  -17.7325   24.0202 C.ar    1  UNL1        0.2250
     11 C          -9.9504  -18.3801   25.3005 C.ar    1  UNL1        0.0574
     12 C          -9.0652  -17.6339   26.2542 C.ar    1  UNL1        0.0037
     13 C          -8.6173  -16.2401   25.9275 C.ar    1  UNL1        0.0168
     14 C          -9.0547  -15.5925   24.6472 C.ar    1  UNL1        0.0994
     15 N          -9.9399  -16.3387   23.6935 N.ar    1  UNL1       -0.2104
     16 C         -12.5979  -17.9012   22.6648 C.3     1  UNL1        0.2542
     17 O         -11.2730  -18.4786   23.0664 O.3     1  UNL1       -0.4561
     18 C          -2.5854  -17.7182   22.9044 C.3     1  UNL1        0.0575
     19 C          -3.0501  -18.3815   21.6419 C.ar    1  UNL1        0.0044
     20 C          -2.2574  -18.5214   20.3761 C.ar    1  UNL1        0.0966
     21 N          -3.1066  -19.2477   19.3754 N.ar    1  UNL1       -0.2273
     22 C          -4.4240  -19.5566   20.0226 C.ar    1  UNL1        0.1403
     23 N          -5.6509  -20.2561   19.5174 N.ar    1  UNL1       -0.3367
     24 C          -6.8429  -20.4203   20.4130 C.ar    1  UNL1        0.0850
     25 C          -6.8081  -19.8849   21.8138 C.ar    1  UNL1        0.0747
     26 CL         -8.0002  -20.0492   22.7093 Cl      1  UNL1       -0.0807
     27 C          -5.5812  -19.1854   22.3190 C.ar    1  UNL1        0.0156
     28 C          -4.3891  -19.0212   21.4234 C.ar    1  UNL1        0.0327
     29 H          -5.6738  -20.6075   18.5980 H       1  UNL1        0.1674
@<TRIPOS>BOND
     1    16    17    1
     2    17    10    1
     3    10    11   ar
     4    11    12   ar
     5    12    13   ar
     6    13     9    1
     7     9     7    1
     8     7     1    1
     9     1     2   ar
    10     2     3   ar
    11     3     4   ar
    12     4    18    1
    13    18    19    1
    14    19    20   ar
    15    20    21   ar
    16    21    22   ar
    17    22    23   ar
    18    23    24   ar
    19    24    25   ar
    20    25    26    1
    21    25    27   ar
    22    27    28   ar
    23     4     5   ar
    24     5     6   ar
    25    13    14   ar
    26    14    15   ar
    27    15    10   ar
    28     6     1   ar
    29    28    19   ar
    30    28    22    1
    31     7     8    1
    32    23    29    1
@<TRIPOS>MOLECULE
*****
 29 32 0 0 0
SMALL
GASTEIGER

@<TRIPOS>ATOM
      1 C          -9.7145  -18.7491   19.8851 C.ar    1  UNL1        0.2172
      2 N          -8.6991  -18.1760   20.8287 N.ar    1  UNL1       -0.2126
      3 C          -7.3585  -18.8323   20.9768 C.ar    1  UNL1        0.0994
      4 C          -7.0333  -20.0616   20.1813 C.ar    1  UNL1        0.0207
      5 C          -8.0487  -20.6348   19.2376 C.ar    1  UNL1        0.0994
      6 N          -9.3893  -19.9785   19.0895 N.ar    1  UNL1       -0.2126
      7 N         -11.0552  -18.0929   19.7369 N.pl3   1  UNL1       -0.2990
      8 H         -11.4719  -18.0198   18.8480 H       1  UNL1        0.1500
      9 C         -11.7610  -17.5480   20.9432 C.3     1  UNL1        0.1180
     10 C          -9.8909  -17.9486   25.0165 C.ar    1  UNL1        0.2250
     11 C          -9.7397  -16.6717   24.2441 C.ar    1  UNL1        0.0574
     12 C         -10.3631  -16.5382   22.8863 C.ar    1  UNL1        0.0037
     13 C         -11.1377  -17.6816   22.3009 C.ar    1  UNL1        0.0168
     14 C         -11.2888  -18.9585   23.0733 C.ar    1  UNL1        0.0994
     15 N         -10.6654  -19.0920   24.4311 N.ar    1  UNL1       -0.2104
     16 C          -8.6318  -16.8913   27.0281 C.3     1  UNL1        0.2542
     17 O          -9.2675  -18.0822   26.3742 O.3     1  UNL1       -0.4561
     18 C          -5.6925  -20.7179   20.3294 C.3     1  UNL1        0.0575
     19 C          -4.4411  -19.8958   20.2399 C.ar    1  UNL1        0.0044
     20 C          -3.4725  -19.8861   19.0945 C.ar    1  UNL1        0.0966
     21 N          -2.3714  -18.9233   19.4269 N.ar    1  UNL1       -0.2273
     22 C          -2.6593  -18.3379   20.7776 C.ar    1  UNL1        0.1403
     23 N          -1.9221  -17.3353   21.6148 N.ar    1  UNL1       -0.3367
     24 C          -2.4639  -16.9337   22.9546 C.ar    1  UNL1        0.0850
     25 C          -3.7431  -17.5347   23.4571 C.ar    1  UNL1        0.0747
     26 CL         -4.2850  -17.1330   24.7969 Cl      1  UNL1       -0.0807
     27 C          -4.4804  -18.5373   22.6198 C.ar    1  UNL1        0.0156
     28 C          -3.9385  -18.9390   21.2801 C.ar    1  UNL1        0.0327
     29 H          -1.0825  -16.9408   21.2850 H       1  UNL1        0.1674
@<TRIPOS>BOND
     1    16    17    1
     2    17    10    1
     3    10    11   ar
     4    11    12   ar
     5    12    13   ar
     6    13     9    1
     7     9     7    1
     8     7     1    1
     9     1     2   ar
    10     2     3   ar
    11     3     4   ar
    12     4    18    1
    13    18    19    1
    14    19    20   ar
    15    20    21   ar
    16    21    22   ar
    17    22    23   ar
    18    23    24   ar
    19    24    25   ar
    20    25    26    1
    21    25    27   ar
    22    27    28   ar
    23     4     5   ar
    24     5     6   ar
    25    13    14   ar
    26    14    15   ar
    27    15    10   ar
    28     6     1   ar
    29    28    19   ar
    30    28    22    1
    31     7     8    1
    32    23    29    1
