@<TRIPOS>MOLECULE
*****
 17 19 0 0 0
SMALL
GASTEIGER

@<TRIPOS>ATOM
      1 C          -9.7759  -17.6431   22.6445 C.3     1  UNL1        0.0347
      2 C          -9.4265  -18.5849   23.7585 C.3     1  UNL1        0.0054
      3 C         -10.2382  -19.8338   23.5813 C.3     1  UNL1        0.0004
      4 C         -11.0891  -19.6639   22.3578 C.3     1  UNL1        0.0017
      5 C         -10.8034  -18.3100   21.7788 C.3     1  UNL1        0.0208
      6 C         -11.1528  -17.3682   20.6648 C.3     1  UNL1        0.0689
      7 N         -10.3411  -16.1192   20.8420 N.3     1  UNL1       -0.2972
      8 C          -9.4901  -16.2892   22.0656 C.3     1  UNL1        0.0726
      9 H         -10.9607  -15.3175   20.9599 H       1  UNL1        0.1233
     10 CL         -5.6656  -14.9755   26.1070 Cl      1  UNL1       -0.0814
     11 C          -6.6931  -15.6423   25.2415 C.ar    1  UNL1        0.0682
     12 C          -6.3215  -16.1207   23.8692 C.ar    1  UNL1        0.0119
     13 C          -7.3491  -16.7877   23.0036 C.ar    1  UNL1       -0.0033
     14 C          -8.7483  -16.9762   23.5102 C.ar    1  UNL1       -0.0206
     15 C          -9.1199  -16.4978   24.8825 C.ar    1  UNL1        0.0080
     16 C          -8.0924  -15.8309   25.7480 C.ar    1  UNL1        0.0679
     17 CL         -8.4640  -15.3525   27.1203 Cl      1  UNL1       -0.0814
@<TRIPOS>BOND
     1    10    11    1
     2    11    12   ar
     3    12    13   ar
     4    13    14   ar
     5     1    14    1
     6     1     2    1
     7     2     3    1
     8     3     4    1
     9     5     4    1
    10     5     6    1
    11     6     7    1
    12     7     8    1
    13    14    15   ar
    14    15    16   ar
    15    16    17    1
    16    16    11   ar
    17     5     1    1
    18     8     1    1
    19     7     9    1
@<TRIPOS>MOLECULE
*****
 17 19 0 0 0
SMALL
GASTEIGER

@<TRIPOS>ATOM
      1 C          -7.6613  -16.1440   25.0307 C.3     1  UNL1        0.0347
      2 C          -8.6083  -16.1782   26.1935 C.3     1  UNL1        0.0054
      3 C          -7.8933  -15.6238   27.3900 C.3     1  UNL1        0.0004
      4 C          -6.5045  -15.2470   26.9666 C.3     1  UNL1        0.0017
      5 C          -6.3611  -15.5685   25.5085 C.3     1  UNL1        0.0208
      6 C          -5.4142  -15.5344   24.3457 C.3     1  UNL1        0.0689
      7 N          -6.1291  -16.0888   23.1492 N.3     1  UNL1       -0.2972
      8 C          -7.5180  -16.4656   23.5726 C.3     1  UNL1        0.0726
      9 H          -5.6373  -16.9126   22.8030 H       1  UNL1        0.1233
     10 CL        -12.8620  -18.4462   23.1196 Cl      1  UNL1       -0.0814
     11 C         -11.5619  -17.8707   23.5973 C.ar    1  UNL1        0.0682
     12 C         -10.7508  -18.6019   24.6256 C.ar    1  UNL1        0.0119
     13 C          -9.4506  -18.0263   25.1034 C.ar    1  UNL1       -0.0033
     14 C          -8.9616  -16.7195   24.5529 C.ar    1  UNL1       -0.0206
     15 C          -9.7727  -15.9883   23.5246 C.ar    1  UNL1        0.0080
     16 C         -11.0728  -16.5638   23.0468 C.ar    1  UNL1        0.0679
     17 CL        -11.8839  -15.8326   22.0185 Cl      1  UNL1       -0.0814
@<TRIPOS>BOND
     1    10    11    1
     2    11    12   ar
     3    12    13   ar
     4    13    14   ar
     5     1    14    1
     6     1     2    1
     7     2     3    1
     8     3     4    1
     9     5     4    1
    10     5     6    1
    11     6     7    1
    12     7     8    1
    13    14    15   ar
    14    15    16   ar
    15    16    17    1
    16    16    11   ar
    17     5     1    1
    18     8     1    1
    19     7     9    1
@<TRIPOS>MOLECULE
*****
 17 19 0 0 0
SMALL
GASTEIGER

@<TRIPOS>ATOM
      1 C         -10.1748  -17.8044   23.1213 C.3     1  UNL1        0.0347
      2 C         -10.5088  -16.3425   23.1561 C.3     1  UNL1        0.0054
      3 C         -11.8484  -16.1575   22.5070 C.3     1  UNL1        0.0004
      4 C         -12.3424  -17.5052   22.0712 C.3     1  UNL1        0.0017
      5 C         -11.3080  -18.5230   22.4508 C.3     1  UNL1        0.0208
      6 C         -10.9740  -19.9849   22.4161 C.3     1  UNL1        0.0689
      7 N          -9.6343  -20.1699   23.0651 N.3     1  UNL1       -0.2972
      8 C          -9.1405  -18.8222   23.5010 C.3     1  UNL1        0.0726
      9 H          -8.9801  -20.5792   22.3982 H       1  UNL1        0.1233
     10 CL         -5.6419  -14.9303   25.8032 Cl      1  UNL1       -0.0814
     11 C          -6.7751  -15.6488   25.1327 C.ar    1  UNL1        0.0682
     12 C          -6.6746  -16.0203   23.6830 C.ar    1  UNL1        0.0119
     13 C          -7.8079  -16.7388   23.0125 C.ar    1  UNL1       -0.0033
     14 C          -9.0416  -17.0859   23.7919 C.ar    1  UNL1       -0.0206
     15 C          -9.1421  -16.7144   25.2416 C.ar    1  UNL1        0.0080
     16 C          -8.0090  -15.9959   25.9121 C.ar    1  UNL1        0.0679
     17 CL         -8.1095  -15.6244   27.3618 Cl      1  UNL1       -0.0814
@<TRIPOS>BOND
     1    10    11    1
     2    11    12   ar
     3    12    13   ar
     4    13    14   ar
     5     1    14    1
     6     1     2    1
     7     2     3    1
     8     3     4    1
     9     5     4    1
    10     5     6    1
    11     6     7    1
    12     7     8    1
    13    14    15   ar
    14    15    16   ar
    15    16    17    1
    16    16    11   ar
    17     5     1    1
    18     8     1    1
    19     7     9    1
@<TRIPOS>MOLECULE
*****
 17 19 0 0 0
SMALL
GASTEIGER

@<TRIPOS>ATOM
      1 C          -8.4084  -19.5943   21.2894 C.3     1  UNL1        0.0347
      2 C          -7.9559  -19.9678   22.6699 C.3     1  UNL1        0.0054
      3 C          -9.1756  -20.1530   23.5231 C.3     1  UNL1        0.0004
      4 C         -10.3819  -19.8940   22.6700 C.3     1  UNL1        0.0017
      5 C          -9.9077  -19.5487   21.2894 C.3     1  UNL1        0.0208
      6 C         -10.3601  -19.1752   19.9089 C.3     1  UNL1        0.0689
      7 N          -9.1404  -18.9900   19.0556 N.3     1  UNL1       -0.2972
      8 C          -7.9342  -19.2490   19.9089 C.3     1  UNL1        0.0726
      9 H          -9.1114  -18.0361   18.6956 H       1  UNL1        0.1233
     10 CL         -2.4112  -19.7769   21.2887 Cl      1  UNL1       -0.0814
     11 C          -3.9104  -19.7313   21.2889 C.ar    1  UNL1        0.0682
     12 C          -4.6880  -20.6240   20.3679 C.ar    1  UNL1        0.0119
     13 C          -6.1874  -20.5783   20.3681 C.ar    1  UNL1       -0.0033
     14 C          -6.9090  -19.6399   21.2893 C.ar    1  UNL1       -0.0206
     15 C          -6.1314  -18.7472   22.2103 C.ar    1  UNL1        0.0080
     16 C          -4.6321  -18.7929   22.2101 C.ar    1  UNL1        0.0679
     17 CL         -3.8545  -17.9002   23.1312 Cl      1  UNL1       -0.0814
@<TRIPOS>BOND
     1    10    11    1
     2    11    12   ar
     3    12    13   ar
     4    13    14   ar
     5     1    14    1
     6     1     2    1
     7     2     3    1
     8     3     4    1
     9     5     4    1
    10     5     6    1
    11     6     7    1
    12     7     8    1
    13    14    15   ar
    14    15    16   ar
    15    16    17    1
    16    16    11   ar
    17     5     1    1
    18     8     1    1
    19     7     9    1
@<TRIPOS>MOLECULE
*****
 17 19 0 0 0
SMALL
GASTEIGER

@<TRIPOS>ATOM
      1 C         -10.1835  -17.6268   24.2715 C.3     1  UNL1        0.0347
      2 C         -10.1190  -16.2783   23.6178 C.3     1  UNL1        0.0054
      3 C         -11.2761  -16.1669   22.6699 C.3     1  UNL1        0.0004
      4 C         -12.0558  -17.4465   22.7378 C.3     1  UNL1        0.0017
      5 C         -11.3805  -18.3488   23.7277 C.3     1  UNL1        0.0208
      6 C         -11.4451  -19.6973   24.3814 C.3     1  UNL1        0.0689
      7 N         -10.2879  -19.8087   25.3294 N.3     1  UNL1       -0.2972
      8 C          -9.5082  -18.5290   25.2614 C.3     1  UNL1        0.0726
      9 H          -9.6926  -20.5915   25.0586 H       1  UNL1        0.1233
     10 CL         -5.3954  -14.7389   26.4474 Cl      1  UNL1       -0.0814
     11 C          -6.5924  -15.4609   25.9034 C.ar    1  UNL1        0.0682
     12 C          -7.6945  -15.8877   26.8270 C.ar    1  UNL1        0.0119
     13 C          -8.8915  -16.6096   26.2831 C.ar    1  UNL1       -0.0033
     14 C          -8.9864  -16.9048   24.8155 C.ar    1  UNL1       -0.0206
     15 C          -7.8843  -16.4780   23.8918 C.ar    1  UNL1        0.0080
     16 C          -6.6873  -15.7561   24.4358 C.ar    1  UNL1        0.0679
     17 CL         -5.5852  -15.3292   23.5122 Cl      1  UNL1       -0.0814
@<TRIPOS>BOND
     1    10    11    1
     2    11    12   ar
     3    12    13   ar
     4    13    14   ar
     5     1    14    1
     6     1     2    1
     7     2     3    1
     8     3     4    1
     9     5     4    1
    10     5     6    1
    11     6     7    1
    12     7     8    1
    13    14    15   ar
    14    15    16   ar
    15    16    17    1
    16    16    11   ar
    17     5     1    1
    18     8     1    1
    19     7     9    1
@<TRIPOS>MOLECULE
*****
 17 19 0 0 0
SMALL
GASTEIGER

@<TRIPOS>ATOM
      1 C          -8.7898  -19.0597   20.9319 C.3     1  UNL1        0.0347
      2 C         -10.0300  -19.5297   20.2313 C.3     1  UNL1        0.0054
      3 C          -9.6287  -20.0687   18.8903 C.3     1  UNL1        0.0004
      4 C          -8.1405  -19.9318   18.7621 C.3     1  UNL1        0.0017
      5 C          -7.6220  -19.3082   20.0239 C.3     1  UNL1        0.0208
      6 C          -6.3817  -18.8382   20.7245 C.3     1  UNL1        0.0689
      7 N          -6.7830  -18.2992   22.0657 N.3     1  UNL1       -0.2972
      8 C          -8.2712  -18.4361   22.1938 C.3     1  UNL1        0.0726
      9 H          -6.5183  -17.3167   22.1371 H       1  UNL1        0.1233
     10 CL        -13.4606  -18.0657   24.5644 Cl      1  UNL1       -0.0814
     11 C         -12.2930  -18.3142   23.6563 C.ar    1  UNL1        0.0682
     12 C         -11.5212  -19.5962   23.7607 C.ar    1  UNL1        0.0119
     13 C         -10.3535  -19.8446   22.8525 C.ar    1  UNL1       -0.0033
     14 C          -9.9575  -18.8111   21.8400 C.ar    1  UNL1       -0.0206
     15 C         -10.7293  -17.5292   21.7357 C.ar    1  UNL1        0.0080
     16 C         -11.8970  -17.2807   22.6438 C.ar    1  UNL1        0.0679
     17 CL        -12.6687  -15.9987   22.5394 Cl      1  UNL1       -0.0814
@<TRIPOS>BOND
     1    10    11    1
     2    11    12   ar
     3    12    13   ar
     4    13    14   ar
     5     1    14    1
     6     1     2    1
     7     2     3    1
     8     3     4    1
     9     5     4    1
    10     5     6    1
    11     6     7    1
    12     7     8    1
    13    14    15   ar
    14    15    16   ar
    15    16    17    1
    16    16    11   ar
    17     5     1    1
    18     8     1    1
    19     7     9    1
@<TRIPOS>MOLECULE
*****
 17 19 0 0 0
SMALL
GASTEIGER

@<TRIPOS>ATOM
      1 C          -6.9995  -16.6699   23.3872 C.3     1  UNL1        0.0347
      2 C          -7.1734  -17.9374   22.6041 C.3     1  UNL1        0.0054
      3 C          -5.8141  -18.5253   22.3661 C.3     1  UNL1        0.0004
      4 C          -4.8001  -17.6212   23.0021 C.3     1  UNL1        0.0017
      5 C          -5.5328  -16.4745   23.6332 C.3     1  UNL1        0.0208
      6 C          -5.3589  -15.2070   24.4163 C.3     1  UNL1        0.0689
      7 N          -6.7183  -14.6190   24.6544 N.3     1  UNL1       -0.2972
      8 C          -7.7322  -15.5232   24.0184 C.3     1  UNL1        0.0726
      9 H          -6.7719  -13.6904   24.2360 H       1  UNL1        0.1233
     10 CL        -12.8665  -17.4516   22.4039 Cl      1  UNL1       -0.0814
     11 C         -11.3999  -17.2562   22.6497 C.ar    1  UNL1        0.0682
     12 C         -10.7741  -17.7793   23.9086 C.ar    1  UNL1        0.0119
     13 C          -9.3074  -17.5838   24.1544 C.ar    1  UNL1       -0.0033
     14 C          -8.4663  -16.8653   23.1413 C.ar    1  UNL1       -0.0206
     15 C          -9.0920  -16.3422   21.8825 C.ar    1  UNL1        0.0080
     16 C         -10.5587  -16.5376   21.6366 C.ar    1  UNL1        0.0679
     17 CL        -11.1844  -16.0145   20.3777 Cl      1  UNL1       -0.0814
@<TRIPOS>BOND
     1    10    11    1
     2    11    12   ar
     3    12    13   ar
     4    13    14   ar
     5     1    14    1
     6     1     2    1
     7     2     3    1
     8     3     4    1
     9     5     4    1
    10     5     6    1
    11     6     7    1
    12     7     8    1
    13    14    15   ar
    14    15    16   ar
    15    16    17    1
    16    16    11   ar
    17     5     1    1
    18     8     1    1
    19     7     9    1
@<TRIPOS>MOLECULE
*****
 17 19 0 0 0
SMALL
GASTEIGER

@<TRIPOS>ATOM
      1 C         -10.6019  -18.2266   22.6850 C.3     1  UNL1        0.0347
      2 C         -10.1981  -17.8423   21.2924 C.3     1  UNL1        0.0054
      3 C         -11.4453  -17.5473   20.5130 C.3     1  UNL1        0.0004
      4 C         -12.6199  -17.7492   21.4238 C.3     1  UNL1        0.0017
      5 C         -12.0986  -18.1690   22.7662 C.3     1  UNL1        0.0208
      6 C         -12.5024  -18.5533   24.1588 C.3     1  UNL1        0.0689
      7 N         -11.2552  -18.8484   24.9383 N.3     1  UNL1       -0.2972
      8 C         -10.0807  -18.6464   24.0274 C.3     1  UNL1        0.0726
      9 H         -11.2743  -19.8128   25.2699 H       1  UNL1        0.1233
     10 CL         -4.6151  -18.4567   22.3605 Cl      1  UNL1       -0.0814
     11 C          -6.1118  -18.3991   22.4416 C.ar    1  UNL1        0.0682
     12 C          -6.7862  -17.1829   23.0036 C.ar    1  UNL1        0.0119
     13 C          -8.2829  -17.1254   23.0847 C.ar    1  UNL1       -0.0033
     14 C          -9.1052  -18.2842   22.6038 C.ar    1  UNL1       -0.0206
     15 C          -8.4307  -19.5004   22.0418 C.ar    1  UNL1        0.0080
     16 C          -6.9341  -19.5579   21.9607 C.ar    1  UNL1        0.0679
     17 CL         -6.2596  -20.7741   21.3986 Cl      1  UNL1       -0.0814
@<TRIPOS>BOND
     1    10    11    1
     2    11    12   ar
     3    12    13   ar
     4    13    14   ar
     5     1    14    1
     6     1     2    1
     7     2     3    1
     8     3     4    1
     9     5     4    1
    10     5     6    1
    11     6     7    1
    12     7     8    1
    13    14    15   ar
    14    15    16   ar
    15    16    17    1
    16    16    11   ar
    17     5     1    1
    18     8     1    1
    19     7     9    1
@<TRIPOS>MOLECULE
*****
 17 19 0 0 0
SMALL
GASTEIGER

@<TRIPOS>ATOM
      1 C          -8.4579  -16.5923   24.1954 C.3     1  UNL1        0.0347
      2 C          -9.3707  -17.6902   24.6550 C.3     1  UNL1        0.0054
      3 C          -9.4144  -17.6596   26.1540 C.3     1  UNL1        0.0004
      4 C          -8.5286  -16.5427   26.6209 C.3     1  UNL1        0.0017
      5 C          -7.9374  -15.8831   25.4103 C.3     1  UNL1        0.0208
      6 C          -7.0245  -14.7852   24.9507 C.3     1  UNL1        0.0689
      7 N          -6.9808  -14.8158   23.4516 N.3     1  UNL1       -0.2972
      8 C          -7.8667  -15.9327   22.9848 C.3     1  UNL1        0.0726
      9 H          -6.0243  -14.9778   23.1364 H       1  UNL1        0.1233
     10 CL        -10.5394  -19.4291   19.3354 Cl      1  UNL1       -0.0814
     11 C         -10.0191  -18.7200   20.5503 C.ar    1  UNL1        0.0682
     12 C          -8.9362  -19.3463   21.3781 C.ar    1  UNL1        0.0119
     13 C          -8.4159  -18.6370   22.5931 C.ar    1  UNL1       -0.0033
     14 C          -8.9783  -17.3015   22.9803 C.ar    1  UNL1       -0.0206
     15 C         -10.0612  -16.6752   22.1526 C.ar    1  UNL1        0.0080
     16 C         -10.5815  -17.3844   20.9377 C.ar    1  UNL1        0.0679
     17 CL        -11.6644  -16.7581   20.1099 Cl      1  UNL1       -0.0814
@<TRIPOS>BOND
     1    10    11    1
     2    11    12   ar
     3    12    13   ar
     4    13    14   ar
     5     1    14    1
     6     1     2    1
     7     2     3    1
     8     3     4    1
     9     5     4    1
    10     5     6    1
    11     6     7    1
    12     7     8    1
    13    14    15   ar
    14    15    16   ar
    15    16    17    1
    16    16    11   ar
    17     5     1    1
    18     8     1    1
    19     7     9    1
