@<TRIPOS>MOLECULE
*****
 25 28 0 0 0
SMALL
GASTEIGER

@<TRIPOS>ATOM
      1 C         -10.7681  -18.6248   23.4711 C.3     1  UNL1        0.0622
      2 C         -10.4066  -19.7455   22.5421 C.3     1  UNL1        0.0291
      3 C          -9.0045  -19.8667   22.0230 C.3     1  UNL1        0.0954
      4 N          -7.9640  -18.8670   22.4329 N.am    1  UNL1       -0.2642
      5 C          -6.5619  -18.9882   21.9138 C.2     1  UNL1        0.3039
      6 O          -5.5214  -17.9886   22.3238 O.2     1  UNL1       -0.2526
      7 N          -6.2003  -20.1089   20.9848 N.am    1  UNL1       -0.2901
      8 C          -8.3256  -17.7463   23.3620 C.3     1  UNL1        0.0954
      9 C          -9.7276  -17.6252   23.8811 C.3     1  UNL1        0.0291
     10 H          -6.8833  -20.7650   20.7157 H       1  UNL1        0.1509
     11 C         -13.3413  -17.5080   21.8034 C.3     1  UNL1        0.1333
     12 N         -13.3530  -17.9903   23.2237 N.ar    1  UNL1       -0.2943
     13 C         -14.5495  -18.0440   24.1268 C.ar    1  UNL1        0.2025
     14 N         -14.1062  -18.5905   25.4515 N.ar    1  UNL1       -0.1259
     15 N         -12.6358  -18.8745   25.3671 N.ar    1  UNL1       -0.1333
     16 C         -12.1703  -18.5036   23.9903 C.ar    1  UNL1        0.1430
     17 C          -4.7982  -20.2301   20.4656 C.3     1  UNL1        0.0774
     18 C          -3.7374  -21.0240   19.7626 C.3     1  UNL1        0.0259
     19 C          -3.4305  -19.6461   20.2695 C.3     1  UNL1        0.0420
     20 C          -2.4638  -18.5133   20.4490 C.ar    1  UNL1       -0.0208
     21 C          -1.1651  -18.5096   19.6986 C.ar    1  UNL1       -0.0042
     22 C          -0.1983  -17.3769   19.8781 C.ar    1  UNL1       -0.0003
     23 C          -0.5304  -16.2477   20.8081 C.ar    1  UNL1       -0.0000
     24 C          -1.8292  -16.2514   21.5585 C.ar    1  UNL1       -0.0003
     25 C          -2.7959  -17.3842   21.3790 C.ar    1  UNL1       -0.0042
@<TRIPOS>BOND
     1    11    12    1
     2    12    13   ar
     3    13    14   ar
     4    14    15   ar
     5    15    16   ar
     6    16     1    1
     7     1     2    1
     8     2     3    1
     9     3     4    1
    10     4     5   am
    11     5     6    2
    12     5     7   am
    13     7    17    1
    14    17    18    1
    15    18    19    1
    16    19    20    1
    17    20    21   ar
    18    21    22   ar
    19    22    23   ar
    20    23    24   ar
    21    24    25   ar
    22     4     8    1
    23     8     9    1
    24    16    12   ar
    25     9     1    1
    26    19    17    1
    27    25    20   ar
    28     7    10    1
@<TRIPOS>MOLECULE
*****
 25 28 0 0 0
SMALL
GASTEIGER

@<TRIPOS>ATOM
      1 C          -2.9577  -18.6299   20.4928 C.3     1  UNL1        0.0622
      2 C          -3.8777  -18.4091   19.3288 C.3     1  UNL1        0.0291
      3 C          -5.3543  -18.6181   19.4899 C.3     1  UNL1        0.0954
      4 N          -5.9109  -19.0480   20.8148 N.am    1  UNL1       -0.2642
      5 C          -7.3876  -19.2570   20.9758 C.2     1  UNL1        0.3039
      6 O          -7.9441  -19.6869   22.3007 O.2     1  UNL1       -0.2526
      7 N          -8.3076  -19.0362   19.8118 N.am    1  UNL1       -0.2901
      8 C          -4.9909  -19.2688   21.9787 C.3     1  UNL1        0.0954
      9 C          -3.5143  -19.0597   21.8177 C.3     1  UNL1        0.0291
     10 H          -7.9423  -18.7541   18.9422 H       1  UNL1        0.1509
     11 C          -1.2990  -15.9441   21.3206 C.3     1  UNL1        0.1333
     12 N          -0.7187  -17.1863   20.7123 N.ar    1  UNL1       -0.2943
     13 C           0.7260  -17.4122   20.3777 C.ar    1  UNL1        0.2025
     14 N           0.8565  -18.7863   19.7904 N.ar    1  UNL1       -0.1259
     15 N          -0.5076  -19.4096   19.7620 N.ar    1  UNL1       -0.1333
     16 C          -1.4811  -18.4208   20.3318 C.ar    1  UNL1        0.1430
     17 C          -9.7842  -19.2452   19.9728 C.3     1  UNL1        0.0774
     18 C         -11.1083  -19.6549   19.3994 C.3     1  UNL1        0.0259
     19 C         -11.0177  -19.1977   20.8251 C.3     1  UNL1        0.0420
     20 C         -11.6775  -18.9062   22.1402 C.ar    1  UNL1       -0.0208
     21 C         -11.0816  -19.4341   23.4115 C.ar    1  UNL1       -0.0042
     22 C         -11.7414  -19.1427   24.7267 C.ar    1  UNL1       -0.0003
     23 C         -12.9971  -18.3232   24.7706 C.ar    1  UNL1       -0.0000
     24 C         -13.5929  -17.7953   23.4993 C.ar    1  UNL1       -0.0003
     25 C         -12.9331  -18.0868   22.1841 C.ar    1  UNL1       -0.0042
@<TRIPOS>BOND
     1    11    12    1
     2    12    13   ar
     3    13    14   ar
     4    14    15   ar
     5    15    16   ar
     6    16     1    1
     7     1     2    1
     8     2     3    1
     9     3     4    1
    10     4     5   am
    11     5     6    2
    12     5     7   am
    13     7    17    1
    14    17    18    1
    15    18    19    1
    16    19    20    1
    17    20    21   ar
    18    21    22   ar
    19    22    23   ar
    20    23    24   ar
    21    24    25   ar
    22     4     8    1
    23     8     9    1
    24    16    12   ar
    25     9     1    1
    26    19    17    1
    27    25    20   ar
    28     7    10    1
@<TRIPOS>MOLECULE
*****
 25 28 0 0 0
SMALL
GASTEIGER

@<TRIPOS>ATOM
      1 C         -11.9747   -4.8663   18.9358 C.3     1  UNL1        0.0622
      2 C         -13.2465   -5.0560   19.7080 C.3     1  UNL1        0.0291
      3 C         -14.2093   -3.9158   19.8593 C.3     1  UNL1        0.0954
      4 N         -13.9001   -2.5858   19.2383 N.am    1  UNL1       -0.2642
      5 C         -14.8629   -1.4455   19.3897 C.2     1  UNL1        0.3039
      6 O         -14.5538   -0.1155   18.7688 O.2     1  UNL1       -0.2526
      7 N         -16.1348   -1.6352   20.1619 N.am    1  UNL1       -0.2901
      8 C         -12.6283   -2.3960   18.4661 C.3     1  UNL1        0.0954
      9 C         -11.6656   -3.5363   18.3149 C.3     1  UNL1        0.0291
     10 H         -16.3377   -2.5082   20.5694 H       1  UNL1        0.1509
     11 C         -12.5018   -7.6113   17.2515 C.3     1  UNL1        0.1333
     12 N         -11.2542   -7.2683   18.0103 N.ar    1  UNL1       -0.2943
     13 C         -10.0298   -8.1268   18.1281 C.ar    1  UNL1        0.2025
     14 N          -9.0308   -7.3956   18.9751 N.ar    1  UNL1       -0.1259
     15 N          -9.6378   -6.0853   19.3808 N.ar    1  UNL1       -0.1333
     16 C         -11.0119   -6.0066   18.7844 C.ar    1  UNL1        0.1430
     17 C         -17.0976   -0.4949   20.3132 C.3     1  UNL1        0.0774
     18 C         -18.4467    0.1088   20.0573 C.3     1  UNL1        0.0259
     19 C         -17.4161    0.8763   20.8311 C.3     1  UNL1        0.0420
     20 C         -17.0050    2.1111   21.5769 C.ar    1  UNL1       -0.0208
     21 C         -16.2830    3.2140   20.8613 C.ar    1  UNL1       -0.0042
     22 C         -15.8719    4.4488   21.6070 C.ar    1  UNL1       -0.0003
     23 C         -16.1827    4.5807   23.0686 C.ar    1  UNL1       -0.0000
     24 C         -16.9047    3.4777   23.7843 C.ar    1  UNL1       -0.0003
     25 C         -17.3159    2.2429   23.0384 C.ar    1  UNL1       -0.0042
@<TRIPOS>BOND
     1    11    12    1
     2    12    13   ar
     3    13    14   ar
     4    14    15   ar
     5    15    16   ar
     6    16     1    1
     7     1     2    1
     8     2     3    1
     9     3     4    1
    10     4     5   am
    11     5     6    2
    12     5     7   am
    13     7    17    1
    14    17    18    1
    15    18    19    1
    16    19    20    1
    17    20    21   ar
    18    21    22   ar
    19    22    23   ar
    20    23    24   ar
    21    24    25   ar
    22     4     8    1
    23     8     9    1
    24    16    12   ar
    25     9     1    1
    26    19    17    1
    27    25    20   ar
    28     7    10    1
@<TRIPOS>MOLECULE
*****
 25 28 0 0 0
SMALL
GASTEIGER

@<TRIPOS>ATOM
      1 C           3.4549   -1.4956   20.9824 C.3     1  UNL1        0.0622
      2 C           3.4221   -1.2204   22.4565 C.3     1  UNL1        0.0291
      3 C           4.2685   -2.0338   23.3903 C.3     1  UNL1        0.0954
      4 N           5.1477   -3.1224   22.8499 N.am    1  UNL1       -0.2642
      5 C           5.9941   -3.9358   23.7837 C.2     1  UNL1        0.3039
      6 O           6.8733   -5.0244   23.2433 O.2     1  UNL1       -0.2526
      7 N           5.9613   -3.6607   25.2578 N.am    1  UNL1       -0.2901
      8 C           5.1805   -3.3976   21.3757 C.3     1  UNL1        0.0954
      9 C           4.3341   -2.5842   20.4420 C.3     1  UNL1        0.0291
     10 H           5.3843   -2.9462   25.6125 H       1  UNL1        0.1509
     11 C           4.5479    0.3988   18.5603 C.3     1  UNL1        0.1333
     12 N           3.1109    0.1885   18.9353 N.ar    1  UNL1       -0.2943
     13 C           1.9239    0.8121   18.2628 C.ar    1  UNL1        0.2025
     14 N           0.6879    0.3268   18.9604 N.ar    1  UNL1       -0.1259
     15 N           1.1109   -0.5967   20.0641 N.ar    1  UNL1       -0.1333
     16 C           2.6084   -0.6822   20.0485 C.ar    1  UNL1        0.1430
     17 C           6.8077   -4.4741   26.1917 C.3     1  UNL1        0.0774
     18 C           7.8727   -5.5069   26.4135 C.3     1  UNL1        0.0259
     19 C           7.2088   -4.8501   27.5873 C.3     1  UNL1        0.0420
     20 C           7.0571   -4.6881   29.0707 C.ar    1  UNL1       -0.0208
     21 C           7.2420   -5.8689   29.9770 C.ar    1  UNL1       -0.0042
     22 C           7.0902   -5.7069   31.4605 C.ar    1  UNL1       -0.0003
     23 C           6.7536   -4.3639   32.0377 C.ar    1  UNL1       -0.0000
     24 C           6.5687   -3.1830   31.1314 C.ar    1  UNL1       -0.0003
     25 C           6.7204   -3.3451   29.6479 C.ar    1  UNL1       -0.0042
@<TRIPOS>BOND
     1    11    12    1
     2    12    13   ar
     3    13    14   ar
     4    14    15   ar
     5    15    16   ar
     6    16     1    1
     7     1     2    1
     8     2     3    1
     9     3     4    1
    10     4     5   am
    11     5     6    2
    12     5     7   am
    13     7    17    1
    14    17    18    1
    15    18    19    1
    16    19    20    1
    17    20    21   ar
    18    21    22   ar
    19    22    23   ar
    20    23    24   ar
    21    24    25   ar
    22     4     8    1
    23     8     9    1
    24    16    12   ar
    25     9     1    1
    26    19    17    1
    27    25    20   ar
    28     7    10    1
@<TRIPOS>MOLECULE
*****
 25 28 0 0 0
SMALL
GASTEIGER

@<TRIPOS>ATOM
      1 C           4.0645   -0.8861   30.4694 C.3     1  UNL1        0.0622
      2 C           2.7652   -0.5676   29.7910 C.3     1  UNL1        0.0291
      3 C           2.7110   -0.4376   28.2977 C.3     1  UNL1        0.0954
      4 N           3.9561   -0.6261   27.4827 N.am    1  UNL1       -0.2642
      5 C           3.9018   -0.4960   25.9893 C.2     1  UNL1        0.3039
      6 O           5.1470   -0.6845   25.1743 O.2     1  UNL1       -0.2526
      7 N           2.6025   -0.1776   25.3109 N.am    1  UNL1       -0.2901
      8 C           5.2554   -0.9445   28.1611 C.3     1  UNL1        0.0954
      9 C           5.3096   -1.0745   29.6544 C.3     1  UNL1        0.0291
     10 H           1.7853   -0.0539   25.8458 H       1  UNL1        0.1509
     11 C           4.7953    1.4959   32.5770 C.3     1  UNL1        0.1333
     12 N           4.4546    0.0788   32.9315 N.ar    1  UNL1       -0.2943
     13 C           4.3901   -0.4923   34.3171 C.ar    1  UNL1        0.2025
     14 N           4.0143   -1.9401   34.2047 N.ar    1  UNL1       -0.1259
     15 N           3.8466   -2.2638   32.7497 N.ar    1  UNL1       -0.1333
     16 C           4.1188   -1.0161   31.9628 C.ar    1  UNL1        0.1430
     17 C           2.5482   -0.0476   23.8175 C.3     1  UNL1        0.0774
     18 C           2.1667    0.7325   22.5945 C.3     1  UNL1        0.0259
     19 C           2.8358   -0.6025   22.4539 C.3     1  UNL1        0.0420
     20 C           3.3882   -1.6937   21.5855 C.ar    1  UNL1       -0.0208
     21 C           3.0447   -1.7371   20.1260 C.ar    1  UNL1       -0.0042
     22 C           3.5970   -2.8283   19.2576 C.ar    1  UNL1       -0.0003
     23 C           4.4930   -3.8762   19.8487 C.ar    1  UNL1       -0.0000
     24 C           4.8365   -3.8328   21.3082 C.ar    1  UNL1       -0.0003
     25 C           4.2841   -2.7415   22.1766 C.ar    1  UNL1       -0.0042
@<TRIPOS>BOND
     1    11    12    1
     2    12    13   ar
     3    13    14   ar
     4    14    15   ar
     5    15    16   ar
     6    16     1    1
     7     1     2    1
     8     2     3    1
     9     3     4    1
    10     4     5   am
    11     5     6    2
    12     5     7   am
    13     7    17    1
    14    17    18    1
    15    18    19    1
    16    19    20    1
    17    20    21   ar
    18    21    22   ar
    19    22    23   ar
    20    23    24   ar
    21    24    25   ar
    22     4     8    1
    23     8     9    1
    24    16    12   ar
    25     9     1    1
    26    19    17    1
    27    25    20   ar
    28     7    10    1
@<TRIPOS>MOLECULE
*****
 25 28 0 0 0
SMALL
GASTEIGER

@<TRIPOS>ATOM
      1 C          -2.1718    3.6009   25.9297 C.3     1  UNL1        0.0622
      2 C          -1.5113    2.5783   26.8062 C.3     1  UNL1        0.0291
      3 C          -0.3346    1.8007   26.2957 C.3     1  UNL1        0.0954
      4 N           0.1816    2.0456   24.9088 N.am    1  UNL1       -0.2642
      5 C           1.3584    1.2679   24.3984 C.2     1  UNL1        0.3039
      6 O           1.8747    1.5128   23.0115 O.2     1  UNL1       -0.2526
      7 N           2.0189    0.2454   25.2748 N.am    1  UNL1       -0.2901
      8 C          -0.4788    3.0681   24.0324 C.3     1  UNL1        0.0954
      9 C          -1.6555    3.8458   24.5428 C.3     1  UNL1        0.0291
     10 H           1.6800    0.0846   26.1851 H       1  UNL1        0.1509
     11 C          -5.2053    3.4973   24.7311 C.3     1  UNL1        0.1333
     12 N          -4.7429    4.3309   25.8892 N.ar    1  UNL1       -0.2943
     13 C          -5.5936    5.2633   26.6997 C.ar    1  UNL1        0.2025
     14 N          -4.7250    5.8872   27.7516 N.ar    1  UNL1       -0.1259
     15 N          -3.3375    5.3404   27.5911 N.ar    1  UNL1       -0.1333
     16 C          -3.3485    4.3785   26.4401 C.ar    1  UNL1        0.1430
     17 C           3.1956   -0.5323   24.7644 C.3     1  UNL1        0.0774
     18 C           4.5832   -1.0672   24.9607 C.3     1  UNL1        0.0259
     19 C           3.8462   -1.3445   23.6840 C.3     1  UNL1        0.0420
     20 C           3.7964   -1.9734   22.3232 C.ar    1  UNL1       -0.0208
     21 C           4.4453   -3.3052   22.0883 C.ar    1  UNL1       -0.0042
     22 C           4.3954   -3.9342   20.7274 C.ar    1  UNL1       -0.0003
     23 C           3.6966   -3.2313   19.6015 C.ar    1  UNL1       -0.0000
     24 C           3.0476   -1.8995   19.8364 C.ar    1  UNL1       -0.0003
     25 C           3.0976   -1.2705   21.1974 C.ar    1  UNL1       -0.0042
@<TRIPOS>BOND
     1    11    12    1
     2    12    13   ar
     3    13    14   ar
     4    14    15   ar
     5    15    16   ar
     6    16     1    1
     7     1     2    1
     8     2     3    1
     9     3     4    1
    10     4     5   am
    11     5     6    2
    12     5     7   am
    13     7    17    1
    14    17    18    1
    15    18    19    1
    16    19    20    1
    17    20    21   ar
    18    21    22   ar
    19    22    23   ar
    20    23    24   ar
    21    24    25   ar
    22     4     8    1
    23     8     9    1
    24    16    12   ar
    25     9     1    1
    26    19    17    1
    27    25    20   ar
    28     7    10    1
@<TRIPOS>MOLECULE
*****
 25 28 0 0 0
SMALL
GASTEIGER

@<TRIPOS>ATOM
      1 C           3.0276   -0.0645   18.9737 C.3     1  UNL1        0.0622
      2 C           1.8060   -0.5591   19.6899 C.3     1  UNL1        0.0291
      3 C           0.6782    0.3839   19.9882 C.3     1  UNL1        0.0954
      4 N           0.7721    1.8214   19.5702 N.am    1  UNL1       -0.2642
      5 C          -0.3558    2.7644   19.8685 C.2     1  UNL1        0.3039
      6 O          -0.2619    4.2019   19.4505 O.2     1  UNL1       -0.2526
      7 N          -1.5774    2.2698   20.5847 N.am    1  UNL1       -0.2901
      8 C           1.9937    2.3160   18.8540 C.3     1  UNL1        0.0954
      9 C           3.1214    1.3731   18.5557 C.3     1  UNL1        0.0291
     10 H          -1.6390    1.3263   20.8590 H       1  UNL1        0.1509
     11 C           4.9951   -1.4583   21.1727 C.3     1  UNL1        0.1333
     12 N           5.0598   -1.6481   19.6862 N.ar    1  UNL1       -0.2943
     13 C           6.0401   -2.5118   18.9495 C.ar    1  UNL1        0.2025
     14 N           5.7417   -2.4050   17.4833 N.ar    1  UNL1       -0.1259
     15 N           4.5768   -1.4753   17.3140 N.ar    1  UNL1       -0.1333
     16 C           4.1554   -1.0074   18.6754 C.ar    1  UNL1        0.1430
     17 C          -2.7052    3.2127   20.8830 C.3     1  UNL1        0.0774
     18 C          -3.7280    4.2044   20.4134 C.3     1  UNL1        0.0259
     19 C          -3.6358    3.8543   21.8691 C.3     1  UNL1        0.0420
     20 C          -4.1198    4.0226   23.2788 C.ar    1  UNL1       -0.0208
     21 C          -3.1814    3.7933   24.4264 C.ar    1  UNL1       -0.0042
     22 C          -3.6654    3.9616   25.8361 C.ar    1  UNL1       -0.0003
     23 C          -5.0878    4.3592   26.0983 C.ar    1  UNL1       -0.0000
     24 C          -6.0262    4.5885   24.9508 C.ar    1  UNL1       -0.0003
     25 C          -5.5421    4.4202   23.5410 C.ar    1  UNL1       -0.0042
@<TRIPOS>BOND
     1    11    12    1
     2    12    13   ar
     3    13    14   ar
     4    14    15   ar
     5    15    16   ar
     6    16     1    1
     7     1     2    1
     8     2     3    1
     9     3     4    1
    10     4     5   am
    11     5     6    2
    12     5     7   am
    13     7    17    1
    14    17    18    1
    15    18    19    1
    16    19    20    1
    17    20    21   ar
    18    21    22   ar
    19    22    23   ar
    20    23    24   ar
    21    24    25   ar
    22     4     8    1
    23     8     9    1
    24    16    12   ar
    25     9     1    1
    26    19    17    1
    27    25    20   ar
    28     7    10    1
@<TRIPOS>MOLECULE
*****
 25 28 0 0 0
SMALL
GASTEIGER

@<TRIPOS>ATOM
      1 C         -11.8706   -4.7739   18.8791 C.3     1  UNL1        0.0622
      2 C         -11.5416   -3.4798   18.1958 C.3     1  UNL1        0.0291
      3 C         -12.4628   -2.3040   18.3328 C.3     1  UNL1        0.0954
      4 N         -13.7130   -2.4223   19.1532 N.am    1  UNL1       -0.2642
      5 C         -14.6342   -1.2464   19.2902 C.2     1  UNL1        0.3039
      6 O         -15.8844   -1.3647   20.1105 O.2     1  UNL1       -0.2526
      7 N         -14.3052    0.0477   18.6068 N.am    1  UNL1       -0.2901
      8 C         -14.0420   -3.7164   19.8365 C.3     1  UNL1        0.0954
      9 C         -13.1208   -4.8922   19.6995 C.3     1  UNL1        0.0291
     10 H         -13.4847    0.1253   18.0684 H       1  UNL1        0.1509
     11 C         -12.4775   -7.4998   17.1907 C.3     1  UNL1        0.1333
     12 N         -11.2283   -7.2027   17.9660 N.ar    1  UNL1       -0.2943
     13 C         -10.0388   -8.1064   18.1014 C.ar    1  UNL1        0.2025
     14 N          -9.0246   -7.4120   18.9612 N.ar    1  UNL1       -0.1259
     15 N          -9.5873   -6.0792   19.3572 N.ar    1  UNL1       -0.1333
     16 C         -10.9493   -5.9498   18.7421 C.ar    1  UNL1        0.1430
     17 C         -15.2264    1.2236   18.7438 C.3     1  UNL1        0.0774
     18 C         -16.0843    2.2817   18.1160 C.3     1  UNL1        0.0259
     19 C         -15.9641    2.2020   19.6090 C.3     1  UNL1        0.0420
     20 C         -16.3205    2.7209   20.9704 C.ar    1  UNL1       -0.0208
     21 C         -17.2545    1.9424   21.8489 C.ar    1  UNL1       -0.0042
     22 C         -17.6109    2.4613   23.2104 C.ar    1  UNL1       -0.0003
     23 C         -17.0334    3.7587   23.6935 C.ar    1  UNL1       -0.0000
     24 C         -16.0995    4.5372   22.8150 C.ar    1  UNL1       -0.0003
     25 C         -15.7431    4.0183   21.4534 C.ar    1  UNL1       -0.0042
@<TRIPOS>BOND
     1    11    12    1
     2    12    13   ar
     3    13    14   ar
     4    14    15   ar
     5    15    16   ar
     6    16     1    1
     7     1     2    1
     8     2     3    1
     9     3     4    1
    10     4     5   am
    11     5     6    2
    12     5     7   am
    13     7    17    1
    14    17    18    1
    15    18    19    1
    16    19    20    1
    17    20    21   ar
    18    21    22   ar
    19    22    23   ar
    20    23    24   ar
    21    24    25   ar
    22     4     8    1
    23     8     9    1
    24    16    12   ar
    25     9     1    1
    26    19    17    1
    27    25    20   ar
    28     7    10    1
@<TRIPOS>MOLECULE
*****
 25 28 0 0 0
SMALL
GASTEIGER

@<TRIPOS>ATOM
      1 C         -12.9517    0.1972   17.4329 C.3     1  UNL1        0.0622
      2 C         -13.4340   -0.7258   16.3534 C.3     1  UNL1        0.0291
      3 C         -13.3895   -2.2107   16.5612 C.3     1  UNL1        0.0954
      4 N         -12.8627   -2.7724   17.8484 N.am    1  UNL1       -0.2642
      5 C         -12.8182   -4.2574   18.0561 C.2     1  UNL1        0.3039
      6 O         -12.2914   -4.8191   19.3434 O.2     1  UNL1       -0.2526
      7 N         -13.3006   -5.1804   16.9767 N.am    1  UNL1       -0.2901
      8 C         -12.3804   -1.8494   18.9279 C.3     1  UNL1        0.0954
      9 C         -12.4249   -0.3645   18.7201 C.3     1  UNL1        0.0291
     10 H         -13.6463   -4.8117   16.1319 H       1  UNL1        0.1509
     11 C         -15.6422    1.9958   17.0136 C.3     1  UNL1        0.1333
     12 N         -14.2328    2.5089   17.0324 N.ar    1  UNL1       -0.2943
     13 C         -13.8127    3.9387   16.8619 C.ar    1  UNL1        0.2025
     14 N         -12.3163    3.9957   16.9491 N.ar    1  UNL1       -0.1259
     15 N         -11.8117    2.6011   17.1737 N.ar    1  UNL1       -0.1333
     16 C         -12.9961    1.6822   17.2252 C.ar    1  UNL1        0.1430
     17 C         -13.2561   -6.6654   17.1844 C.3     1  UNL1        0.0774
     18 C         -12.5344   -7.9740   17.0557 C.3     1  UNL1        0.0259
     19 C         -13.9007   -7.9286   17.6729 C.3     1  UNL1        0.0420
     20 C         -15.0618   -8.6317   18.3114 C.ar    1  UNL1       -0.0208
     21 C         -15.8483   -7.9514   19.3923 C.ar    1  UNL1       -0.0042
     22 C         -17.0094   -8.6545   20.0307 C.ar    1  UNL1       -0.0003
     23 C         -17.3839  -10.0380   19.5882 C.ar    1  UNL1       -0.0000
     24 C         -16.5973  -10.7183   18.5073 C.ar    1  UNL1       -0.0003
     25 C         -15.4362  -10.0151   17.8689 C.ar    1  UNL1       -0.0042
@<TRIPOS>BOND
     1    11    12    1
     2    12    13   ar
     3    13    14   ar
     4    14    15   ar
     5    15    16   ar
     6    16     1    1
     7     1     2    1
     8     2     3    1
     9     3     4    1
    10     4     5   am
    11     5     6    2
    12     5     7   am
    13     7    17    1
    14    17    18    1
    15    18    19    1
    16    19    20    1
    17    20    21   ar
    18    21    22   ar
    19    22    23   ar
    20    23    24   ar
    21    24    25   ar
    22     4     8    1
    23     8     9    1
    24    16    12   ar
    25     9     1    1
    26    19    17    1
    27    25    20   ar
    28     7    10    1
