@<TRIPOS>MOLECULE
*****
 27 30 0 0 0
SMALL
GASTEIGER

@<TRIPOS>ATOM
      1 C          -6.9622  -18.9287   22.5281 C.ar    1  UNL1        0.0866
      2 C          -7.6108  -17.6750   23.0356 C.ar    1  UNL1        0.0106
      3 C          -8.9418  -17.7448   23.7236 C.ar    1  UNL1        0.0372
      4 C          -9.6243  -19.0683   23.9042 C.ar    1  UNL1        0.1391
      5 C          -8.9757  -20.3220   23.3967 C.ar    1  UNL1        0.0372
      6 C          -7.6446  -20.2522   22.7087 C.ar    1  UNL1        0.0106
      7 O          -3.5959  -20.8004   19.0403 O.2     1  UNL1       -0.2376
      8 C          -3.9480  -19.7948   20.0962 C.2     1  UNL1        0.3788
      9 N          -5.2790  -19.8645   20.7842 N.am    1  UNL1        0.0364
     10 C          -5.6311  -18.8589   21.8400 C.2     1  UNL1        0.3688
     11 N          -4.6521  -17.7836   22.2078 N.2     1  UNL1       -0.0400
     12 C          -3.3210  -17.7138   21.5197 C.2     1  UNL1        0.1818
     13 C          -2.3421  -16.6385   21.8875 C.3     1  UNL1        0.1000
     14 C          -1.0111  -16.5688   21.1994 C.2     1  UNL1       -0.0174
     15 C          -0.6590  -17.5744   20.1436 C.2     1  UNL1       -0.0038
     16 C          -1.6379  -18.6497   19.7759 C.2     1  UNL1        0.0101
     17 C          -2.9689  -18.7194   20.4639 C.2     1  UNL1        0.1209
     18 O         -10.9554  -19.1380   24.5922 O.3     1  UNL1       -0.4706
     19 C         -12.1999  -18.7303   23.8610 C.3     1  UNL1        0.2342
     20 C         -12.0991  -17.9176   22.6043 C.ar    1  UNL1        0.0488
     21 C         -12.4050  -16.4494   22.6339 C.ar    1  UNL1        0.0039
     22 C         -12.3042  -15.6367   21.3772 C.ar    1  UNL1        0.0296
     23 C         -11.8975  -16.2922   20.0908 C.ar    1  UNL1        0.1424
     24 F         -11.7967  -15.4795   18.8340 F       1  UNL1       -0.2041
     25 C         -11.5917  -17.7604   20.0610 C.ar    1  UNL1        0.0590
     26 C         -11.6924  -18.5731   21.3178 C.ar    1  UNL1        0.1418
     27 F         -11.3866  -20.0413   21.2881 F       1  UNL1       -0.2043
@<TRIPOS>BOND
     1     7     8    2
     2     8     9    1
     3     9    10    2
     4    10     1    1
     5     1     2   ar
     6     2     3   ar
     7     3     4   ar
     8     4    18    1
     9    18    19    1
    10    19    20    1
    11    20    21   ar
    12    21    22   ar
    13    22    23   ar
    14    23    24    1
    15    23    25   ar
    16    25    26   ar
    17    26    27    1
    18     4     5   ar
    19     5     6   ar
    20    10    11    1
    21    11    12    2
    22    12    13    1
    23    13    14    1
    24    14    15    2
    25    15    16    1
    26    16    17    2
    27    17     8    1
    28     6     1   ar
    29    17    12    1
    30    26    20   ar
@<TRIPOS>MOLECULE
*****
 27 30 0 0 0
SMALL
GASTEIGER

@<TRIPOS>ATOM
      1 C          -8.1725  -19.4127   21.1044 C.ar    1  UNL1        0.0866
      2 C          -7.7644  -19.3077   19.6648 C.ar    1  UNL1        0.0106
      3 C          -6.4205  -19.8104   19.2277 C.ar    1  UNL1        0.0372
      4 C          -5.4846  -20.4181   20.2301 C.ar    1  UNL1        0.1391
      5 C          -5.8927  -20.5231   21.6697 C.ar    1  UNL1        0.0372
      6 C          -7.2366  -20.0204   22.1068 C.ar    1  UNL1        0.0106
      7 O         -12.4676  -16.6456   20.1586 O.2     1  UNL1       -0.2376
      8 C         -11.6640  -17.5265   21.0687 C.2     1  UNL1        0.3788
      9 N         -10.3201  -18.0292   20.6315 N.am    1  UNL1        0.0364
     10 C          -9.5165  -18.9100   21.5416 C.2     1  UNL1        0.3688
     11 N         -10.0567  -19.2882   22.8888 N.2     1  UNL1       -0.0400
     12 C         -11.4007  -18.7855   23.3260 C.2     1  UNL1        0.1818
     13 C         -11.9410  -19.1637   24.6732 C.3     1  UNL1        0.1000
     14 C         -13.2849  -18.6611   25.1104 C.2     1  UNL1       -0.0174
     15 C         -14.0886  -17.7802   24.2003 C.2     1  UNL1       -0.0038
     16 C         -13.5483  -17.4020   22.8531 C.2     1  UNL1        0.0101
     17 C         -12.2044  -17.9047   22.4159 C.2     1  UNL1        0.1209
     18 O          -4.1406  -20.9208   19.7929 O.3     1  UNL1       -0.4706
     19 C          -2.9195  -20.5973   20.6016 C.3     1  UNL1        0.2342
     20 C          -2.6085  -19.1726   20.9532 C.ar    1  UNL1        0.0488
     21 C          -2.7767  -18.6947   22.3651 C.ar    1  UNL1        0.0039
     22 C          -2.4658  -17.2701   22.7167 C.ar    1  UNL1        0.0296
     23 C          -1.9867  -16.3233   21.6565 C.ar    1  UNL1        0.1424
     24 F          -1.6758  -14.8986   22.0082 F       1  UNL1       -0.2041
     25 C          -1.8185  -16.8011   20.2447 C.ar    1  UNL1        0.0590
     26 C          -2.1295  -18.2259   19.8930 C.ar    1  UNL1        0.1418
     27 F          -1.9613  -18.7037   18.4812 F       1  UNL1       -0.2043
@<TRIPOS>BOND
     1     7     8    2
     2     8     9    1
     3     9    10    2
     4    10     1    1
     5     1     2   ar
     6     2     3   ar
     7     3     4   ar
     8     4    18    1
     9    18    19    1
    10    19    20    1
    11    20    21   ar
    12    21    22   ar
    13    22    23   ar
    14    23    24    1
    15    23    25   ar
    16    25    26   ar
    17    26    27    1
    18     4     5   ar
    19     5     6   ar
    20    10    11    1
    21    11    12    2
    22    12    13    1
    23    13    14    1
    24    14    15    2
    25    15    16    1
    26    16    17    2
    27    17     8    1
    28     6     1   ar
    29    17    12    1
    30    26    20   ar
@<TRIPOS>MOLECULE
*****
 27 30 0 0 0
SMALL
GASTEIGER

@<TRIPOS>ATOM
      1 C          -6.9078  -18.6824   22.7074 C.ar    1  UNL1        0.0866
      2 C          -7.5545  -20.0314   22.5982 C.ar    1  UNL1        0.0106
      3 C          -8.9597  -20.2309   23.0835 C.ar    1  UNL1        0.0372
      4 C          -9.7182  -19.0815   23.6780 C.ar    1  UNL1        0.1391
      5 C          -9.0715  -17.7325   23.7873 C.ar    1  UNL1        0.0372
      6 C          -7.6663  -17.5330   23.3020 C.ar    1  UNL1        0.0106
      7 O          -1.8926  -17.7552   23.7018 O.2     1  UNL1       -0.2376
      8 C          -2.9950  -18.0192   22.7193 C.2     1  UNL1        0.3788
      9 N          -4.4002  -18.2188   23.2046 N.am    1  UNL1        0.0364
     10 C          -5.5025  -18.4829   22.2221 C.2     1  UNL1        0.3688
     11 N          -5.1996  -18.5473   20.7545 N.2     1  UNL1       -0.0400
     12 C          -3.7943  -18.3477   20.2692 C.2     1  UNL1        0.1818
     13 C          -3.4915  -18.4122   18.8015 C.3     1  UNL1        0.1000
     14 C          -2.0862  -18.2126   18.3163 C.2     1  UNL1       -0.0174
     15 C          -0.9839  -17.9486   19.2987 C.2     1  UNL1       -0.0038
     16 C          -1.2868  -17.8841   20.7664 C.2     1  UNL1        0.0101
     17 C          -2.6920  -18.0837   21.2516 C.2     1  UNL1        0.1209
     18 O         -11.1234  -19.2811   24.1633 O.3     1  UNL1       -0.4706
     19 C         -12.2751  -18.7400   23.3692 C.3     1  UNL1        0.2342
     20 C         -12.0192  -17.8714   22.1733 C.ar    1  UNL1        0.0488
     21 C         -12.2175  -16.3876   22.2678 C.ar    1  UNL1        0.0039
     22 C         -11.9615  -15.5190   21.0720 C.ar    1  UNL1        0.0296
     23 C         -11.5073  -16.1343   19.7816 C.ar    1  UNL1        0.1424
     24 F         -11.2513  -15.2656   18.5857 F       1  UNL1       -0.2041
     25 C         -11.3090  -17.6181   19.6870 C.ar    1  UNL1        0.0590
     26 C         -11.5650  -18.4867   20.8829 C.ar    1  UNL1        0.1418
     27 F         -11.3667  -19.9705   20.7884 F       1  UNL1       -0.2043
@<TRIPOS>BOND
     1     7     8    2
     2     8     9    1
     3     9    10    2
     4    10     1    1
     5     1     2   ar
     6     2     3   ar
     7     3     4   ar
     8     4    18    1
     9    18    19    1
    10    19    20    1
    11    20    21   ar
    12    21    22   ar
    13    22    23   ar
    14    23    24    1
    15    23    25   ar
    16    25    26   ar
    17    26    27    1
    18     4     5   ar
    19     5     6   ar
    20    10    11    1
    21    11    12    2
    22    12    13    1
    23    13    14    1
    24    14    15    2
    25    15    16    1
    26    16    17    2
    27    17     8    1
    28     6     1   ar
    29    17    12    1
    30    26    20   ar
@<TRIPOS>MOLECULE
*****
 27 30 0 0 0
SMALL
GASTEIGER

@<TRIPOS>ATOM
      1 C          -6.7998  -17.6458   22.8455 C.ar    1  UNL1        0.0866
      2 C          -6.1114  -18.8877   22.3622 C.ar    1  UNL1        0.0106
      3 C          -4.6220  -19.0160   22.4859 C.ar    1  UNL1        0.0372
      4 C          -3.8211  -17.9025   23.0929 C.ar    1  UNL1        0.1391
      5 C          -4.5096  -16.6605   23.5762 C.ar    1  UNL1        0.0372
      6 C          -5.9989  -16.5322   23.4525 C.ar    1  UNL1        0.0106
      7 O         -10.9669  -15.8551   20.3099 O.2     1  UNL1       -0.2376
      8 C         -10.3727  -16.6220   21.4540 C.2     1  UNL1        0.3788
      9 N          -8.8834  -16.7505   21.5777 N.am    1  UNL1        0.0364
     10 C          -8.2892  -17.5174   22.7217 C.2     1  UNL1        0.3688
     11 N          -9.1844  -18.1559   23.7420 N.2     1  UNL1       -0.0400
     12 C         -10.6738  -18.0275   23.6183 C.2     1  UNL1        0.1818
     13 C         -11.5689  -18.6659   24.6385 C.3     1  UNL1        0.1000
     14 C         -13.0583  -18.5375   24.5148 C.2     1  UNL1       -0.0174
     15 C         -13.6524  -17.7706   23.3708 C.2     1  UNL1       -0.0038
     16 C         -12.7573  -17.1321   22.3505 C.2     1  UNL1        0.0101
     17 C         -11.2680  -17.2605   22.4743 C.2     1  UNL1        0.1209
     18 O          -2.3317  -18.0308   23.2167 O.3     1  UNL1       -0.4706
     19 C          -1.5539  -18.7761   22.1729 C.3     1  UNL1        0.2342
     20 C          -1.6461  -18.3653   20.7332 C.ar    1  UNL1        0.0488
     21 C          -2.9773  -18.3478   20.0420 C.ar    1  UNL1        0.0039
     22 C          -3.0695  -17.9370   18.6023 C.ar    1  UNL1        0.0296
     23 C          -1.8305  -17.5438   17.8538 C.ar    1  UNL1        0.1424
     24 F          -1.9227  -17.1330   16.4140 F       1  UNL1       -0.2041
     25 C          -0.4993  -17.5613   18.5449 C.ar    1  UNL1        0.0590
     26 C          -0.4071  -17.9721   19.9846 C.ar    1  UNL1        0.1418
     27 F           0.9240  -17.9896   20.6758 F       1  UNL1       -0.2043
@<TRIPOS>BOND
     1     7     8    2
     2     8     9    1
     3     9    10    2
     4    10     1    1
     5     1     2   ar
     6     2     3   ar
     7     3     4   ar
     8     4    18    1
     9    18    19    1
    10    19    20    1
    11    20    21   ar
    12    21    22   ar
    13    22    23   ar
    14    23    24    1
    15    23    25   ar
    16    25    26   ar
    17    26    27    1
    18     4     5   ar
    19     5     6   ar
    20    10    11    1
    21    11    12    2
    22    12    13    1
    23    13    14    1
    24    14    15    2
    25    15    16    1
    26    16    17    2
    27    17     8    1
    28     6     1   ar
    29    17    12    1
    30    26    20   ar
@<TRIPOS>MOLECULE
*****
 27 30 0 0 0
SMALL
GASTEIGER

@<TRIPOS>ATOM
      1 C           6.9876   -3.2876   21.2044 C.ar    1  UNL1        0.0866
      2 C           5.8648   -3.6531   20.2793 C.ar    1  UNL1        0.0106
      3 C           5.7694   -3.0129   18.9262 C.ar    1  UNL1        0.0372
      4 C           6.7967   -2.0073   18.4981 C.ar    1  UNL1        0.1391
      5 C           7.9195   -1.6418   19.4231 C.ar    1  UNL1        0.0372
      6 C           8.0149   -2.2820   20.7763 C.ar    1  UNL1        0.0106
      7 O           6.1862   -3.1058   26.3351 O.2     1  UNL1       -0.2376
      8 C           6.6824   -3.8368   25.1229 C.2     1  UNL1        0.3788
      9 N           6.5869   -3.1967   23.7698 N.am    1  UNL1        0.0364
     10 C           7.0830   -3.9278   22.5576 C.2     1  UNL1        0.3688
     11 N           7.6746   -5.2989   22.6986 N.2     1  UNL1       -0.0400
     12 C           7.7701   -5.9391   24.0518 C.2     1  UNL1        0.1818
     13 C           8.3616   -7.3103   24.1928 C.3     1  UNL1        0.1000
     14 C           8.4571   -7.9504   25.5459 C.2     1  UNL1       -0.0174
     15 C           7.9610   -7.2193   26.7581 C.2     1  UNL1       -0.0038
     16 C           7.3694   -5.8481   26.6172 C.2     1  UNL1        0.0101
     17 C           7.2740   -5.2080   25.2640 C.2     1  UNL1        0.1209
     18 O           6.7012   -1.3671   17.1449 O.3     1  UNL1       -0.4706
     19 C           6.2017    0.0413   17.0150 C.3     1  UNL1        0.2342
     20 C           4.9807    0.4765   17.7698 C.ar    1  UNL1        0.0488
     21 C           5.0995    1.4940   18.8656 C.ar    1  UNL1        0.0039
     22 C           3.8786    1.9293   19.6204 C.ar    1  UNL1        0.0296
     23 C           2.5389    1.3471   19.2796 C.ar    1  UNL1        0.1424
     24 F           1.3179    1.7824   20.0345 F       1  UNL1       -0.2041
     25 C           2.4201    0.3296   18.1839 C.ar    1  UNL1        0.0590
     26 C           3.6410   -0.1057   17.4290 C.ar    1  UNL1        0.1418
     27 F           3.5222   -1.1232   16.3333 F       1  UNL1       -0.2043
@<TRIPOS>BOND
     1     7     8    2
     2     8     9    1
     3     9    10    2
     4    10     1    1
     5     1     2   ar
     6     2     3   ar
     7     3     4   ar
     8     4    18    1
     9    18    19    1
    10    19    20    1
    11    20    21   ar
    12    21    22   ar
    13    22    23   ar
    14    23    24    1
    15    23    25   ar
    16    25    26   ar
    17    26    27    1
    18     4     5   ar
    19     5     6   ar
    20    10    11    1
    21    11    12    2
    22    12    13    1
    23    13    14    1
    24    14    15    2
    25    15    16    1
    26    16    17    2
    27    17     8    1
    28     6     1   ar
    29    17    12    1
    30    26    20   ar
@<TRIPOS>MOLECULE
*****
 27 30 0 0 0
SMALL
GASTEIGER

@<TRIPOS>ATOM
      1 C         -13.9460   -1.5492   18.9647 C.ar    1  UNL1        0.0866
      2 C         -15.2821   -1.2845   19.5928 C.ar    1  UNL1        0.0106
      3 C         -15.8433    0.1065   19.6038 C.ar    1  UNL1        0.0372
      4 C         -15.0683    1.2328   18.9866 C.ar    1  UNL1        0.1391
      5 C         -13.7321    0.9681   18.3585 C.ar    1  UNL1        0.0372
      6 C         -13.1710   -0.4229   18.3475 C.ar    1  UNL1        0.0106
      7 O         -14.6718   -6.6942   18.9132 O.2     1  UNL1       -0.2376
      8 C         -13.7477   -5.5127   18.9280 C.2     1  UNL1        0.3788
      9 N         -14.3089   -4.1217   18.9389 N.am    1  UNL1        0.0364
     10 C         -13.3848   -2.9403   18.9537 C.2     1  UNL1        0.3688
     11 N         -11.8995   -3.1498   18.9575 N.2     1  UNL1       -0.0400
     12 C         -11.3383   -4.5409   18.9465 C.2     1  UNL1        0.1818
     13 C          -9.8530   -4.7504   18.9503 C.3     1  UNL1        0.1000
     14 C          -9.2919   -6.1414   18.9393 C.2     1  UNL1       -0.0174
     15 C         -10.2160   -7.3229   18.9245 C.2     1  UNL1       -0.0038
     16 C         -11.7012   -7.1133   18.9207 C.2     1  UNL1        0.0101
     17 C         -12.2624   -5.7223   18.9317 C.2     1  UNL1        0.1209
     18 O         -15.6295    2.6239   18.9976 O.3     1  UNL1       -0.4706
     19 C         -16.7661    2.9668   19.9143 C.3     1  UNL1        0.2342
     20 C         -16.4893    3.3872   21.3273 C.ar    1  UNL1        0.0488
     21 C         -15.4432    4.4244   21.6100 C.ar    1  UNL1        0.0039
     22 C         -15.1664    4.8448   23.0230 C.ar    1  UNL1        0.0296
     23 C         -15.9357    4.2281   24.1534 C.ar    1  UNL1        0.1424
     24 F         -15.6588    4.6485   25.5664 F       1  UNL1       -0.2041
     25 C         -16.9818    3.1909   23.8708 C.ar    1  UNL1        0.0590
     26 C         -17.2587    2.7705   22.4577 C.ar    1  UNL1        0.1418
     27 F         -18.3048    1.7333   22.1751 F       1  UNL1       -0.2043
@<TRIPOS>BOND
     1     7     8    2
     2     8     9    1
     3     9    10    2
     4    10     1    1
     5     1     2   ar
     6     2     3   ar
     7     3     4   ar
     8     4    18    1
     9    18    19    1
    10    19    20    1
    11    20    21   ar
    12    21    22   ar
    13    22    23   ar
    14    23    24    1
    15    23    25   ar
    16    25    26   ar
    17    26    27    1
    18     4     5   ar
    19     5     6   ar
    20    10    11    1
    21    11    12    2
    22    12    13    1
    23    13    14    1
    24    14    15    2
    25    15    16    1
    26    16    17    2
    27    17     8    1
    28     6     1   ar
    29    17    12    1
    30    26    20   ar
@<TRIPOS>MOLECULE
*****
 27 30 0 0 0
SMALL
GASTEIGER

@<TRIPOS>ATOM
      1 C           0.9064    1.4124   19.3521 C.ar    1  UNL1        0.0866
      2 C           0.1460    1.4484   20.6445 C.ar    1  UNL1        0.0106
      3 C          -0.8884    2.5095   20.8768 C.ar    1  UNL1        0.0372
      4 C          -1.1623    3.5347   19.8166 C.ar    1  UNL1        0.1391
      5 C          -0.4018    3.4988   18.5242 C.ar    1  UNL1        0.0372
      6 C           0.6325    2.4376   18.2920 C.ar    1  UNL1        0.0106
      7 O           4.2004   -1.0408   16.1692 O.2     1  UNL1       -0.2376
      8 C           3.5878   -0.8754   17.5283 C.2     1  UNL1        0.3788
      9 N           2.5535    0.1857   17.7607 N.am    1  UNL1        0.0364
     10 C           1.9409    0.3512   19.1198 C.2     1  UNL1        0.3688
     11 N           2.3627   -0.5445   20.2467 N.2     1  UNL1       -0.0400
     12 C           3.3971   -1.6057   20.0144 C.2     1  UNL1        0.1818
     13 C           3.8189   -2.5013   21.1412 C.3     1  UNL1        0.1000
     14 C           4.8533   -3.5625   20.9089 C.2     1  UNL1       -0.0174
     15 C           5.4659   -3.7279   19.5497 C.2     1  UNL1       -0.0038
     16 C           5.0441   -2.8322   18.4229 C.2     1  UNL1        0.0101
     17 C           4.0097   -1.7711   18.6552 C.2     1  UNL1        0.1209
     18 O          -2.1967    4.5959   20.0489 O.3     1  UNL1       -0.4706
     19 C          -3.6193    4.3597   19.6361 C.3     1  UNL1        0.2342
     20 C          -4.7033    4.3155   20.6719 C.ar    1  UNL1        0.0488
     21 C          -4.5202    3.4955   21.9146 C.ar    1  UNL1        0.0039
     22 C          -5.6042    3.4513   22.9504 C.ar    1  UNL1        0.0296
     23 C          -6.8713    4.2271   22.7436 C.ar    1  UNL1        0.1424
     24 F          -7.9553    4.1829   23.7795 F       1  UNL1       -0.2041
     25 C          -7.0544    5.0471   21.5010 C.ar    1  UNL1        0.0590
     26 C          -5.9703    5.0913   20.4651 C.ar    1  UNL1        0.1418
     27 F          -6.1534    5.9113   19.2226 F       1  UNL1       -0.2043
@<TRIPOS>BOND
     1     7     8    2
     2     8     9    1
     3     9    10    2
     4    10     1    1
     5     1     2   ar
     6     2     3   ar
     7     3     4   ar
     8     4    18    1
     9    18    19    1
    10    19    20    1
    11    20    21   ar
    12    21    22   ar
    13    22    23   ar
    14    23    24    1
    15    23    25   ar
    16    25    26   ar
    17    26    27    1
    18     4     5   ar
    19     5     6   ar
    20    10    11    1
    21    11    12    2
    22    12    13    1
    23    13    14    1
    24    14    15    2
    25    15    16    1
    26    16    17    2
    27    17     8    1
    28     6     1   ar
    29    17    12    1
    30    26    20   ar
@<TRIPOS>MOLECULE
*****
 27 30 0 0 0
SMALL
GASTEIGER

@<TRIPOS>ATOM
      1 C           5.9434   -2.3962   24.2740 C.ar    1  UNL1        0.0866
      2 C           4.4951   -2.0106   24.2136 C.ar    1  UNL1        0.0106
      3 C           4.0346   -0.9775   23.2284 C.ar    1  UNL1        0.0372
      4 C           5.0224   -0.3301   22.3037 C.ar    1  UNL1        0.1391
      5 C           6.4707   -0.7157   22.3641 C.ar    1  UNL1        0.0372
      6 C           6.9312   -1.7488   23.3493 C.ar    1  UNL1        0.0106
      7 O           6.7761   -3.8753   29.1852 O.2     1  UNL1       -0.2376
      8 C           6.8203   -4.1688   27.7148 C.2     1  UNL1        0.3788
      9 N           6.3598   -3.1358   26.7296 N.am    1  UNL1        0.0364
     10 C           6.4040   -3.4293   25.2593 C.2     1  UNL1        0.3688
     11 N           6.9087   -4.7559   24.7742 N.2     1  UNL1       -0.0400
     12 C           7.3693   -5.7890   25.7594 C.2     1  UNL1        0.1818
     13 C           7.8741   -7.1156   25.2743 C.3     1  UNL1        0.1000
     14 C           8.3346   -8.1486   26.2595 C.2     1  UNL1       -0.0174
     15 C           8.2904   -7.8551   27.7298 C.2     1  UNL1       -0.0038
     16 C           7.7857   -6.5285   28.2149 C.2     1  UNL1        0.0101
     17 C           7.3251   -5.4955   27.2297 C.2     1  UNL1        0.1209
     18 O           4.5618    0.7030   21.3184 O.3     1  UNL1       -0.4706
     19 C           4.3056    0.3172   19.8918 C.3     1  UNL1        0.2342
     20 C           4.4096   -1.1193   19.4731 C.ar    1  UNL1        0.0488
     21 C           5.6515   -1.6143   18.7927 C.ar    1  UNL1        0.0039
     22 C           5.7555   -3.0509   18.3740 C.ar    1  UNL1        0.0296
     23 C           4.6177   -3.9926   18.6357 C.ar    1  UNL1        0.1424
     24 F           4.7217   -5.4293   18.2170 F       1  UNL1       -0.2041
     25 C           3.3758   -3.4977   19.3160 C.ar    1  UNL1        0.0590
     26 C           3.2718   -2.0611   19.7347 C.ar    1  UNL1        0.1418
     27 F           2.0299   -1.5662   20.4151 F       1  UNL1       -0.2043
@<TRIPOS>BOND
     1     7     8    2
     2     8     9    1
     3     9    10    2
     4    10     1    1
     5     1     2   ar
     6     2     3   ar
     7     3     4   ar
     8     4    18    1
     9    18    19    1
    10    19    20    1
    11    20    21   ar
    12    21    22   ar
    13    22    23   ar
    14    23    24    1
    15    23    25   ar
    16    25    26   ar
    17    26    27    1
    18     4     5   ar
    19     5     6   ar
    20    10    11    1
    21    11    12    2
    22    12    13    1
    23    13    14    1
    24    14    15    2
    25    15    16    1
    26    16    17    2
    27    17     8    1
    28     6     1   ar
    29    17    12    1
    30    26    20   ar
@<TRIPOS>MOLECULE
*****
 27 30 0 0 0
SMALL
GASTEIGER

@<TRIPOS>ATOM
      1 C          -7.4289  -19.7781   21.4288 C.ar    1  UNL1        0.0866
      2 C          -6.8633  -18.8229   20.4200 C.ar    1  UNL1        0.0106
      3 C          -5.5869  -19.1553   19.7058 C.ar    1  UNL1        0.0372
      4 C          -4.8760  -20.4429   20.0003 C.ar    1  UNL1        0.1391
      5 C          -5.4416  -21.3981   21.0091 C.ar    1  UNL1        0.0372
      6 C          -6.7180  -21.0657   21.7233 C.ar    1  UNL1        0.0106
      7 O         -10.2830  -19.7622   25.7709 O.2     1  UNL1       -0.2376
      8 C         -10.1324  -19.4378   24.3141 C.2     1  UNL1        0.3788
      9 N          -8.8560  -19.7701   23.5998 N.am    1  UNL1        0.0364
     10 C          -8.7054  -19.4457   22.1431 C.2     1  UNL1        0.3688
     11 N          -9.8312  -18.7889   21.4007 N.2     1  UNL1       -0.0400
     12 C         -11.1077  -18.4566   22.1150 C.2     1  UNL1        0.1818
     13 C         -12.2334  -17.7998   21.3726 C.3     1  UNL1        0.1000
     14 C         -13.5098  -17.4674   22.0869 C.2     1  UNL1       -0.0174
     15 C         -13.6605  -17.7919   23.5436 C.2     1  UNL1       -0.0038
     16 C         -12.5347  -18.4486   24.2860 C.2     1  UNL1        0.0101
     17 C         -11.2583  -18.7810   23.5717 C.2     1  UNL1        0.1209
     18 O          -3.5995  -20.7752   19.2860 O.3     1  UNL1       -0.4706
     19 C          -2.2806  -20.3971   19.8921 C.3     1  UNL1        0.2342
     20 C          -2.0788  -19.0193   20.4495 C.ar    1  UNL1        0.0488
     21 C          -1.3446  -17.9858   19.6476 C.ar    1  UNL1        0.0039
     22 C          -1.1429  -16.6080   20.2050 C.ar    1  UNL1        0.0296
     23 C          -1.6753  -16.2635   21.5644 C.ar    1  UNL1        0.1424
     24 F          -1.4736  -14.8856   22.1218 F       1  UNL1       -0.2041
     25 C          -2.4095  -17.2969   22.3663 C.ar    1  UNL1        0.0590
     26 C          -2.6113  -18.6748   21.8089 C.ar    1  UNL1        0.1418
     27 F          -3.3455  -19.7082   22.6108 F       1  UNL1       -0.2043
@<TRIPOS>BOND
     1     7     8    2
     2     8     9    1
     3     9    10    2
     4    10     1    1
     5     1     2   ar
     6     2     3   ar
     7     3     4   ar
     8     4    18    1
     9    18    19    1
    10    19    20    1
    11    20    21   ar
    12    21    22   ar
    13    22    23   ar
    14    23    24    1
    15    23    25   ar
    16    25    26   ar
    17    26    27    1
    18     4     5   ar
    19     5     6   ar
    20    10    11    1
    21    11    12    2
    22    12    13    1
    23    13    14    1
    24    14    15    2
    25    15    16    1
    26    16    17    2
    27    17     8    1
    28     6     1   ar
    29    17    12    1
    30    26    20   ar
