@<TRIPOS>MOLECULE
*****
 16 17 0 0 0
SMALL
GASTEIGER

@<TRIPOS>ATOM
      1 C         -10.0294  -20.0423   24.6190 C.3     1  UNL1        0.0899
      2 N          -9.7725  -19.8712   23.1511 N.3     1  UNL1       -0.2674
      3 C         -10.9923  -19.7951   22.2813 C.3     1  UNL1        0.0986
      4 C         -11.0706  -19.6279   20.7928 C.2     1  UNL1       -0.0134
      5 C          -9.9485  -19.4953   19.8062 C.2     1  UNL1       -0.0289
      6 C          -8.4709  -19.4973   20.0646 C.3     1  UNL1        0.0315
      7 C          -7.7505  -19.6324   21.3734 C.3     1  UNL1        0.0427
      8 C          -8.3297  -19.7988   22.7469 C.3     1  UNL1        0.0771
      9 C          -6.2528  -19.5963   21.2986 C.ar    1  UNL1       -0.0199
     10 C          -5.5344  -20.3983   20.2542 C.ar    1  UNL1       -0.0033
     11 C          -4.0367  -20.3621   20.1794 C.ar    1  UNL1        0.0119
     12 C          -3.2574  -19.5240   21.1490 C.ar    1  UNL1        0.0682
     13 CL         -1.7597  -19.4879   21.0743 Cl      1  UNL1       -0.0814
     14 C          -3.9757  -18.7220   22.1935 C.ar    1  UNL1        0.0679
     15 CL         -3.1965  -17.8840   23.1631 Cl      1  UNL1       -0.0814
     16 C          -5.4735  -18.7581   22.2683 C.ar    1  UNL1        0.0080
@<TRIPOS>BOND
     1     1     2    1
     2     2     3    1
     3     3     4    1
     4     4     5    2
     5     5     6    1
     6     6     7    1
     7     7     9    1
     8     9    10   ar
     9    10    11   ar
    10    11    12   ar
    11    12    13    1
    12    12    14   ar
    13    14    15    1
    14    14    16   ar
    15     7     8    1
    16     8     2    1
    17    16     9   ar
@<TRIPOS>MOLECULE
*****
 16 17 0 0 0
SMALL
GASTEIGER

@<TRIPOS>ATOM
      1 C         -11.2295  -15.5689   19.4447 C.3     1  UNL1        0.0899
      2 N         -11.3534  -16.3151   20.7400 N.3     1  UNL1       -0.2674
      3 C         -12.5786  -17.1683   20.8851 C.3     1  UNL1        0.0986
      4 C         -12.9886  -18.0264   22.0449 C.2     1  UNL1       -0.0134
      5 C         -12.2748  -18.2434   23.3463 C.2     1  UNL1       -0.0289
      6 C         -10.9746  -17.6558   23.8091 C.3     1  UNL1        0.0315
      7 C         -10.0671  -16.7061   23.0848 C.3     1  UNL1        0.0427
      8 C         -10.2356  -16.1094   21.7191 C.3     1  UNL1        0.0771
      9 C          -8.8271  -16.2992   23.8243 C.ar    1  UNL1       -0.0199
     10 C          -7.5176  -16.2059   23.0985 C.ar    1  UNL1       -0.0033
     11 C          -6.2776  -15.7991   23.8380 C.ar    1  UNL1        0.0119
     12 C          -6.3470  -15.4855   25.3032 C.ar    1  UNL1        0.0682
     13 CL         -5.1069  -15.0787   26.0427 Cl      1  UNL1       -0.0814
     14 C          -7.6564  -15.5788   26.0290 C.ar    1  UNL1        0.0679
     15 CL         -7.7258  -15.2653   27.4941 Cl      1  UNL1       -0.0814
     16 C          -8.8965  -15.9857   25.2896 C.ar    1  UNL1        0.0080
@<TRIPOS>BOND
     1     1     2    1
     2     2     3    1
     3     3     4    1
     4     4     5    2
     5     5     6    1
     6     6     7    1
     7     7     9    1
     8     9    10   ar
     9    10    11   ar
    10    11    12   ar
    11    12    13    1
    12    12    14   ar
    13    14    15    1
    14    14    16   ar
    15     7     8    1
    16     8     2    1
    17    16     9   ar
@<TRIPOS>MOLECULE
*****
 16 17 0 0 0
SMALL
GASTEIGER

@<TRIPOS>ATOM
      1 C          -4.8029  -15.2725   23.5281 C.3     1  UNL1        0.0899
      2 N          -5.8767  -15.5337   24.5423 N.3     1  UNL1       -0.2674
      3 C          -5.4935  -15.2933   25.9726 C.3     1  UNL1        0.0986
      4 C          -6.3306  -15.4606   27.2058 C.2     1  UNL1       -0.0134
      5 C          -7.7578  -15.9096   27.3137 C.2     1  UNL1       -0.0289
      6 C          -8.7003  -16.3022   26.2148 C.3     1  UNL1        0.0315
      7 C          -8.4483  -16.3428   24.7367 C.3     1  UNL1        0.0427
      8 C          -7.1918  -16.0008   23.9923 C.3     1  UNL1        0.0771
      9 C          -9.6061  -16.7837   23.8910 C.ar    1  UNL1       -0.0199
     10 C         -10.5473  -17.8361   24.3978 C.ar    1  UNL1       -0.0033
     11 C         -11.7051  -18.2770   23.5522 C.ar    1  UNL1        0.0119
     12 C         -11.9217  -17.6655   22.1997 C.ar    1  UNL1        0.0682
     13 CL        -13.0795  -18.1064   21.3541 Cl      1  UNL1       -0.0814
     14 C         -10.9806  -16.6131   21.6929 C.ar    1  UNL1        0.0679
     15 CL        -11.1973  -16.0017   20.3405 Cl      1  UNL1       -0.0814
     16 C          -9.8228  -16.1722   22.5385 C.ar    1  UNL1        0.0080
@<TRIPOS>BOND
     1     1     2    1
     2     2     3    1
     3     3     4    1
     4     4     5    2
     5     5     6    1
     6     6     7    1
     7     7     9    1
     8     9    10   ar
     9    10    11   ar
    10    11    12   ar
    11    12    13    1
    12    12    14   ar
    13    14    15    1
    14    14    16   ar
    15     7     8    1
    16     8     2    1
    17    16     9   ar
@<TRIPOS>MOLECULE
*****
 16 17 0 0 0
SMALL
GASTEIGER

@<TRIPOS>ATOM
      1 C          -3.4364  -17.3803   22.9112 C.3     1  UNL1        0.0899
      2 N          -4.2322  -18.3908   22.1395 N.3     1  UNL1       -0.2674
      3 C          -3.4495  -19.2472   21.1886 C.3     1  UNL1        0.0986
      4 C          -3.9468  -20.3355   20.2841 C.2     1  UNL1       -0.0134
      5 C          -5.3495  -20.8364   20.1070 C.2     1  UNL1       -0.0289
      6 C          -6.6015  -20.3726   20.7907 C.3     1  UNL1        0.0315
      7 C          -6.7598  -19.2933   21.8203 C.3     1  UNL1        0.0427
      8 C          -5.7055  -18.4114   22.4206 C.3     1  UNL1        0.0771
      9 C          -8.1575  -19.0660   22.3152 C.ar    1  UNL1       -0.0199
     10 C          -8.8392  -20.1136   23.1447 C.ar    1  UNL1       -0.0033
     11 C         -10.2369  -19.8862   23.6395 C.ar    1  UNL1        0.0119
     12 C         -10.9529  -18.6114   23.3048 C.ar    1  UNL1        0.0682
     13 CL        -12.3506  -18.3840   23.7996 Cl      1  UNL1       -0.0814
     14 C         -10.2713  -17.5638   22.4753 C.ar    1  UNL1        0.0679
     15 CL        -10.9873  -16.2890   22.1406 Cl      1  UNL1       -0.0814
     16 C          -8.8736  -17.7911   21.9805 C.ar    1  UNL1        0.0080
@<TRIPOS>BOND
     1     1     2    1
     2     2     3    1
     3     3     4    1
     4     4     5    2
     5     5     6    1
     6     6     7    1
     7     7     9    1
     8     9    10   ar
     9    10    11   ar
    10    11    12   ar
    11    12    13    1
    12    12    14   ar
    13    14    15    1
    14    14    16   ar
    15     7     8    1
    16     8     2    1
    17    16     9   ar
@<TRIPOS>MOLECULE
*****
 16 17 0 0 0
SMALL
GASTEIGER

@<TRIPOS>ATOM
      1 C         -10.5460  -15.9432   21.2490 C.3     1  UNL1        0.0899
      2 N         -10.2195  -17.2340   21.9399 N.3     1  UNL1       -0.2674
      3 C         -11.3378  -17.8532   22.7249 C.3     1  UNL1        0.0986
      4 C         -11.3307  -19.1261   23.5181 C.2     1  UNL1       -0.0134
      5 C         -10.2035  -20.0944   23.7226 C.2     1  UNL1       -0.0289
      6 C          -8.8050  -20.0289   23.1841 C.3     1  UNL1        0.0315
      7 C          -8.1884  -18.9789   22.3082 C.3     1  UNL1        0.0427
      8 C          -8.8178  -17.7351   21.7545 C.3     1  UNL1        0.0771
      9 C          -6.7523  -19.2022   21.9370 C.ar    1  UNL1       -0.0199
     10 C          -6.3996  -20.1912   20.8656 C.ar    1  UNL1       -0.0033
     11 C          -4.9635  -20.4145   20.4944 C.ar    1  UNL1        0.0119
     12 C          -3.8802  -19.6490   21.1945 C.ar    1  UNL1        0.0682
     13 CL         -2.4441  -19.8723   20.8232 Cl      1  UNL1       -0.0814
     14 C          -4.2328  -18.6600   22.2658 C.ar    1  UNL1        0.0679
     15 CL         -3.1494  -17.8946   22.9659 Cl      1  UNL1       -0.0814
     16 C          -5.6688  -18.4367   22.6371 C.ar    1  UNL1        0.0080
@<TRIPOS>BOND
     1     1     2    1
     2     2     3    1
     3     3     4    1
     4     4     5    2
     5     5     6    1
     6     6     7    1
     7     7     9    1
     8     9    10   ar
     9    10    11   ar
    10    11    12   ar
    11    12    13    1
    12    12    14   ar
    13    14    15    1
    14    14    16   ar
    15     7     8    1
    16     8     2    1
    17    16     9   ar
@<TRIPOS>MOLECULE
*****
 16 17 0 0 0
SMALL
GASTEIGER

@<TRIPOS>ATOM
      1 C          -5.0703  -19.6756   21.2849 C.3     1  UNL1        0.0899
      2 N          -5.4924  -18.5313   22.1581 N.3     1  UNL1       -0.2674
      3 C          -4.3834  -17.6637   22.6754 C.3     1  UNL1        0.0986
      4 C          -4.4758  -16.4566   23.5609 C.2     1  UNL1       -0.0134
      5 C          -5.7000  -15.8188   24.1479 C.2     1  UNL1       -0.0289
      6 C          -7.1342  -16.2306   23.9943 C.3     1  UNL1        0.0315
      7 C          -7.6983  -17.3821   23.2158 C.3     1  UNL1        0.0427
      8 C          -6.9677  -18.4059   22.3987 C.3     1  UNL1        0.0771
      9 C          -9.1904  -17.5290   23.2604 C.ar    1  UNL1       -0.0199
     10 C          -9.8310  -18.3542   24.3369 C.ar    1  UNL1       -0.0033
     11 C         -11.3231  -18.5011   24.3815 C.ar    1  UNL1        0.0119
     12 C         -12.1747  -17.8228   23.3496 C.ar    1  UNL1        0.0682
     13 CL        -13.6668  -17.9697   23.3943 Cl      1  UNL1       -0.0814
     14 C         -11.5341  -16.9976   22.2731 C.ar    1  UNL1        0.0679
     15 CL        -12.3857  -16.3194   21.2413 Cl      1  UNL1       -0.0814
     16 C         -10.0420  -16.8507   22.2285 C.ar    1  UNL1        0.0080
@<TRIPOS>BOND
     1     1     2    1
     2     2     3    1
     3     3     4    1
     4     4     5    2
     5     5     6    1
     6     6     7    1
     7     7     9    1
     8     9    10   ar
     9    10    11   ar
    10    11    12   ar
    11    12    13    1
    12    12    14   ar
    13    14    15    1
    14    14    16   ar
    15     7     8    1
    16     8     2    1
    17    16     9   ar
@<TRIPOS>MOLECULE
*****
 16 17 0 0 0
SMALL
GASTEIGER

@<TRIPOS>ATOM
      1 C         -11.4767  -16.0616   20.0262 C.3     1  UNL1        0.0899
      2 N         -11.1851  -16.7845   21.3077 N.3     1  UNL1       -0.2674
      3 C         -12.3838  -17.2593   22.0744 C.3     1  UNL1        0.0986
      4 C         -12.4268  -18.0039   23.3758 C.2     1  UNL1       -0.0134
      5 C         -11.2818  -18.4576   24.2321 C.2     1  UNL1       -0.0289
      6 C          -9.8110  -18.2788   23.9983 C.3     1  UNL1        0.0315
      7 C          -9.1219  -17.6020   22.8506 C.3     1  UNL1        0.0427
      8 C          -9.7333  -16.9371   21.6532 C.3     1  UNL1        0.0771
      9 C          -7.6230  -17.5886   22.9079 C.ar    1  UNL1       -0.0199
     10 C          -6.9103  -16.4913   23.6415 C.ar    1  UNL1       -0.0033
     11 C          -5.4114  -16.4778   23.6988 C.ar    1  UNL1        0.0119
     12 C          -4.6253  -17.5616   23.0225 C.ar    1  UNL1        0.0682
     13 CL         -3.1265  -17.5481   23.0798 Cl      1  UNL1       -0.0814
     14 C          -5.3380  -18.6589   22.2889 C.ar    1  UNL1        0.0679
     15 CL         -4.5519  -19.7426   21.6127 Cl      1  UNL1       -0.0814
     16 C          -6.8368  -18.6724   22.2316 C.ar    1  UNL1        0.0080
@<TRIPOS>BOND
     1     1     2    1
     2     2     3    1
     3     3     4    1
     4     4     5    2
     5     5     6    1
     6     6     7    1
     7     7     9    1
     8     9    10   ar
     9    10    11   ar
    10    11    12   ar
    11    12    13    1
    12    12    14   ar
    13    14    15    1
    14    14    16   ar
    15     7     8    1
    16     8     2    1
    17    16     9   ar
@<TRIPOS>MOLECULE
*****
 16 17 0 0 0
SMALL
GASTEIGER

@<TRIPOS>ATOM
      1 C          -4.2244  -20.5846   20.0218 C.3     1  UNL1        0.0899
      2 N          -4.4173  -19.5333   21.0741 N.3     1  UNL1       -0.2674
      3 C          -3.1610  -18.9342   21.6337 C.3     1  UNL1        0.0986
      4 C          -3.0182  -17.8740   22.6850 C.2     1  UNL1       -0.0134
      5 C          -4.0963  -17.1508   23.4365 C.2     1  UNL1       -0.0289
      6 C          -5.5835  -17.3093   23.3223 C.3     1  UNL1        0.0315
      7 C          -6.3599  -18.2301   22.4283 C.3     1  UNL1        0.0427
      8 C          -5.8410  -19.2198   21.4278 C.3     1  UNL1        0.0771
      9 C          -7.8528  -18.1507   22.5511 C.ar    1  UNL1       -0.0199
     10 C          -8.4802  -17.0787   23.3920 C.ar    1  UNL1       -0.0033
     11 C          -9.9731  -16.9992   23.5148 C.ar    1  UNL1        0.0119
     12 C         -10.8385  -17.9919   22.7967 C.ar    1  UNL1        0.0682
     13 CL        -12.3314  -17.9124   22.9195 Cl      1  UNL1       -0.0814
     14 C         -10.2111  -19.0639   21.9557 C.ar    1  UNL1        0.0679
     15 CL        -11.0765  -20.0565   21.2377 Cl      1  UNL1       -0.0814
     16 C          -8.7182  -19.1434   21.8330 C.ar    1  UNL1        0.0080
@<TRIPOS>BOND
     1     1     2    1
     2     2     3    1
     3     3     4    1
     4     4     5    2
     5     5     6    1
     6     6     7    1
     7     7     9    1
     8     9    10   ar
     9    10    11   ar
    10    11    12   ar
    11    12    13    1
    12    12    14   ar
    13    14    15    1
    14    14    16   ar
    15     7     8    1
    16     8     2    1
    17    16     9   ar
@<TRIPOS>MOLECULE
*****
 16 17 0 0 0
SMALL
GASTEIGER

@<TRIPOS>ATOM
      1 C          -9.2581  -15.6706   24.7403 C.3     1  UNL1        0.0899
      2 N          -9.3163  -16.8132   23.7702 N.3     1  UNL1       -0.2674
      3 C         -10.6920  -17.2775   23.3932 C.3     1  UNL1        0.0986
      4 C         -11.0822  -18.3837   22.4584 C.2     1  UNL1       -0.0134
      5 C         -10.1933  -19.2989   21.6696 C.2     1  UNL1       -0.0289
      6 C          -8.6945  -19.3339   21.6208 C.3     1  UNL1        0.0315
      7 C          -7.7145  -18.4623   22.3488 C.3     1  UNL1        0.0427
      8 C          -7.9912  -17.3406   23.3054 C.3     1  UNL1        0.0771
      9 C          -6.2663  -18.7507   22.0854 C.ar    1  UNL1       -0.0199
     10 C          -5.2069  -18.0956   22.9213 C.ar    1  UNL1       -0.0033
     11 C          -3.7586  -18.3840   22.6579 C.ar    1  UNL1        0.0119
     12 C          -3.3697  -19.3275   21.5586 C.ar    1  UNL1        0.0682
     13 CL         -1.9215  -19.6159   21.2952 Cl      1  UNL1       -0.0814
     14 C          -4.4290  -19.9827   20.7227 C.ar    1  UNL1        0.0679
     15 CL         -4.0401  -20.9262   19.6235 Cl      1  UNL1       -0.0814
     16 C          -5.8773  -19.6943   20.9861 C.ar    1  UNL1        0.0080
@<TRIPOS>BOND
     1     1     2    1
     2     2     3    1
     3     3     4    1
     4     4     5    2
     5     5     6    1
     6     6     7    1
     7     7     9    1
     8     9    10   ar
     9    10    11   ar
    10    11    12   ar
    11    12    13    1
    12    12    14   ar
    13    14    15    1
    14    14    16   ar
    15     7     8    1
    16     8     2    1
    17    16     9   ar
