@<TRIPOS>MOLECULE
*****
 29 31 0 0 0
SMALL
GASTEIGER

@<TRIPOS>ATOM
      1 C         -13.6691  -18.4369   24.3816 C.ar    1  UNL1        0.1384
      2 C         -13.8238  -18.0689   22.9358 C.ar    1  UNL1        0.0366
      3 C         -12.6482  -18.1599   22.0087 C.ar    1  UNL1        0.0001
      4 C         -11.3177  -18.6189   22.5274 C.ar    1  UNL1       -0.0080
      5 C         -11.1630  -18.9870   23.9733 C.ar    1  UNL1       -0.0199
      6 C         -12.3387  -18.8960   24.9004 C.ar    1  UNL1        0.0324
      7 C          -9.8325  -19.4460   24.4921 C.3     1  UNL1        0.0477
      8 C          -8.6568  -19.5370   23.5651 C.3     1  UNL1        0.0984
      9 N          -8.8116  -19.1689   22.1191 N.am    1  UNL1       -0.2760
     10 C          -7.6359  -19.2599   21.1920 C.2     1  UNL1        0.2420
     11 O          -7.7907  -18.8919   19.7462 O.2     1  UNL1       -0.2734
     12 C         -10.1420  -18.7099   21.6004 C.3     1  UNL1        0.0975
     13 C         -10.2968  -18.3418   20.1545 C.3     1  UNL1        0.0224
     14 C         -10.3583  -19.4162   19.1095 C.3     1  UNL1        0.0021
     15 C         -10.3901  -16.8994   19.7536 C.3     1  UNL1        0.0021
     16 C         -14.6465  -18.4936   26.7882 C.3     1  UNL1        0.2525
     17 O         -14.8448  -18.3459   25.3087 O.3     1  UNL1       -0.4714
     18 C          -6.3054  -19.7190   21.7109 C.3     1  UNL1        0.1552
     19 N          -5.2452  -18.7136   22.0499 N.3     1  UNL1       -0.2879
     20 H          -5.5778  -18.1983   22.8649 H       1  UNL1        0.1238
     21 C          -3.8518  -19.1705   22.3657 C.3     1  UNL1        0.0961
     22 C          -2.7273  -18.8537   21.4248 C.3     1  UNL1        0.1027
     23 O          -2.9330  -20.3049   21.1058 O.3     1  UNL1       -0.3854
     24 C          -2.9122  -17.5126   22.0707 C.3     1  UNL1        0.0283
     25 C          -2.0440  -16.3586   21.6648 C.3     1  UNL1        0.0024
     26 C          -0.9910  -16.5458   20.6132 C.3     1  UNL1        0.0002
     27 C          -0.8061  -17.8870   19.9674 C.3     1  UNL1        0.0024
     28 C          -1.6743  -19.0409   20.3732 C.3     1  UNL1        0.0283
     29 H          -3.6513  -20.6578   21.6538 H       1  UNL1        0.2103
@<TRIPOS>BOND
     1    16    17    1
     2    17     1    1
     3     1     2   ar
     4     2     3   ar
     5     3     4   ar
     6     4     5   ar
     7     5     6   ar
     8     5     7    1
     9     7     8    1
    10     8     9    1
    11     9    10   am
    12    10    11    2
    13    10    18    1
    14    18    19    1
    15    19    21    1
    16    21    22    1
    17    22    23    1
    18    22    24    1
    19    24    25    1
    20    25    26    1
    21    26    27    1
    22    27    28    1
    23     9    12    1
    24    12    13    1
    25    13    14    1
    26    13    15    1
    27     6     1   ar
    28    28    22    1
    29    12     4    1
    30    19    20    1
    31    23    29    1
@<TRIPOS>MOLECULE
*****
 29 31 0 0 0
SMALL
GASTEIGER

@<TRIPOS>ATOM
      1 C          -1.4977  -18.6544   20.5814 C.ar    1  UNL1        0.1384
      2 C          -2.2771  -19.4898   19.6095 C.ar    1  UNL1        0.0366
      3 C          -3.7538  -19.6757   19.7961 C.ar    1  UNL1        0.0001
      4 C          -4.4511  -19.0261   20.9545 C.ar    1  UNL1       -0.0080
      5 C          -3.6716  -18.1908   21.9263 C.ar    1  UNL1       -0.0199
      6 C          -2.1949  -18.0049   21.7398 C.ar    1  UNL1        0.0324
      7 C          -4.3689  -17.5412   23.0848 C.3     1  UNL1        0.0477
      8 C          -5.8456  -17.7271   23.2713 C.3     1  UNL1        0.0984
      9 N          -6.6250  -18.5625   22.2994 N.am    1  UNL1       -0.2760
     10 C          -8.1017  -18.7484   22.4860 C.2     1  UNL1        0.2420
     11 O          -8.8812  -19.5838   21.5141 O.2     1  UNL1       -0.2734
     12 C          -5.9278  -19.2120   21.1410 C.3     1  UNL1        0.0975
     13 C          -6.7072  -20.0474   20.1692 C.3     1  UNL1        0.0224
     14 C          -7.6515  -19.3920   19.2055 C.3     1  UNL1        0.0021
     15 C          -6.5424  -21.5384   20.1610 C.3     1  UNL1        0.0021
     16 C           0.5185  -17.1381   19.9603 C.3     1  UNL1        0.2525
     17 O          -0.0210  -18.4685   20.3948 O.3     1  UNL1       -0.4714
     18 C          -8.7990  -18.0988   23.6444 C.3     1  UNL1        0.1552
     19 N          -9.6254  -16.8661   23.4269 N.3     1  UNL1       -0.2879
     20 H         -10.5985  -17.1341   23.5742 H       1  UNL1        0.1238
     21 C          -9.3822  -15.6432   24.2608 C.3     1  UNL1        0.0961
     22 C          -8.0127  -15.3687   24.8079 C.3     1  UNL1        0.1027
     23 O          -7.8441  -14.8495   23.4108 O.3     1  UNL1       -0.3854
     24 C          -8.6571  -15.9833   26.0150 C.3     1  UNL1        0.0283
     25 C          -7.8733  -16.1431   27.2840 C.3     1  UNL1        0.0024
     26 C          -6.4453  -15.6882   27.3458 C.3     1  UNL1        0.0002
     27 C          -5.8010  -15.0736   26.1387 C.3     1  UNL1        0.0024
     28 C          -6.5848  -14.9139   24.8697 C.3     1  UNL1        0.0283
     29 H          -8.6737  -14.9633   22.9212 H       1  UNL1        0.2103
@<TRIPOS>BOND
     1    16    17    1
     2    17     1    1
     3     1     2   ar
     4     2     3   ar
     5     3     4   ar
     6     4     5   ar
     7     5     6   ar
     8     5     7    1
     9     7     8    1
    10     8     9    1
    11     9    10   am
    12    10    11    2
    13    10    18    1
    14    18    19    1
    15    19    21    1
    16    21    22    1
    17    22    23    1
    18    22    24    1
    19    24    25    1
    20    25    26    1
    21    26    27    1
    22    27    28    1
    23     9    12    1
    24    12    13    1
    25    13    14    1
    26    13    15    1
    27     6     1   ar
    28    28    22    1
    29    12     4    1
    30    19    20    1
    31    23    29    1
@<TRIPOS>MOLECULE
*****
 29 31 0 0 0
SMALL
GASTEIGER

@<TRIPOS>ATOM
      1 C         -12.6739  -17.9051   23.2835 C.ar    1  UNL1        0.1384
      2 C         -12.0905  -16.5297   23.4168 C.ar    1  UNL1        0.0366
      3 C         -10.6075  -16.3307   23.3112 C.ar    1  UNL1        0.0001
      4 C          -9.7080  -17.5070   23.0723 C.ar    1  UNL1       -0.0080
      5 C         -10.2915  -18.8824   22.9389 C.ar    1  UNL1       -0.0199
      6 C         -11.7745  -19.0814   23.0445 C.ar    1  UNL1        0.0324
      7 C          -9.3920  -20.0588   22.7000 C.3     1  UNL1        0.0477
      8 C          -7.9090  -19.8597   22.5944 C.3     1  UNL1        0.0984
      9 N          -7.3255  -18.4843   22.7277 N.am    1  UNL1       -0.2760
     10 C          -5.8425  -18.2852   22.6221 C.2     1  UNL1        0.2420
     11 O          -5.2591  -16.9098   22.7555 O.2     1  UNL1       -0.2734
     12 C          -8.2250  -17.3079   22.9667 C.3     1  UNL1        0.0975
     13 C          -7.6415  -15.9326   23.1000 C.3     1  UNL1        0.0224
     14 C          -7.1219  -15.4637   24.4267 C.3     1  UNL1        0.0021
     15 C          -7.5777  -15.0260   21.9066 C.3     1  UNL1        0.0021
     16 C         -14.7786  -18.4199   24.7171 C.3     1  UNL1        0.2525
     17 O         -14.1569  -18.1042   23.3891 O.3     1  UNL1       -0.4714
     18 C          -4.9430  -19.4616   22.3832 C.3     1  UNL1        0.1552
     19 N          -4.8946  -20.1059   21.0295 N.3     1  UNL1       -0.2879
     20 H          -5.3954  -19.4878   20.3911 H       1  UNL1        0.1238
     21 C          -3.5720  -20.4090   20.3901 C.3     1  UNL1        0.0961
     22 C          -2.4546  -19.4114   20.4688 C.3     1  UNL1        0.1027
     23 O          -2.0097  -20.3844   21.5201 O.3     1  UNL1       -0.3854
     24 C          -3.2877  -18.7849   19.3901 C.3     1  UNL1        0.0283
     25 C          -2.8488  -17.4987   18.7553 C.3     1  UNL1        0.0024
     26 C          -1.5769  -16.8389   19.1991 C.3     1  UNL1        0.0002
     27 C          -0.7439  -17.4654   20.2778 C.3     1  UNL1        0.0024
     28 C          -1.1828  -18.7517   20.9127 C.3     1  UNL1        0.0283
     29 H          -2.6534  -21.1071   21.5850 H       1  UNL1        0.2103
@<TRIPOS>BOND
     1    16    17    1
     2    17     1    1
     3     1     2   ar
     4     2     3   ar
     5     3     4   ar
     6     4     5   ar
     7     5     6   ar
     8     5     7    1
     9     7     8    1
    10     8     9    1
    11     9    10   am
    12    10    11    2
    13    10    18    1
    14    18    19    1
    15    19    21    1
    16    21    22    1
    17    22    23    1
    18    22    24    1
    19    24    25    1
    20    25    26    1
    21    26    27    1
    22    27    28    1
    23     9    12    1
    24    12    13    1
    25    13    14    1
    26    13    15    1
    27     6     1   ar
    28    28    22    1
    29    12     4    1
    30    19    20    1
    31    23    29    1
@<TRIPOS>MOLECULE
*****
 29 31 0 0 0
SMALL
GASTEIGER

@<TRIPOS>ATOM
      1 C          -2.5439  -18.4872   21.6377 C.ar    1  UNL1        0.1384
      2 C          -2.7128  -17.1595   22.3150 C.ar    1  UNL1        0.0366
      3 C          -4.0417  -16.7779   22.8965 C.ar    1  UNL1        0.0001
      4 C          -5.2018  -17.7239   22.8008 C.ar    1  UNL1       -0.0080
      5 C          -5.0330  -19.0515   22.1234 C.ar    1  UNL1       -0.0199
      6 C          -3.7040  -19.4331   21.5419 C.ar    1  UNL1        0.0324
      7 C          -6.1931  -19.9976   22.0276 C.3     1  UNL1        0.0477
      8 C          -7.5221  -19.6159   22.6092 C.3     1  UNL1        0.0984
      9 N          -7.6909  -18.2882   23.2865 N.am    1  UNL1       -0.2760
     10 C          -9.0199  -17.9065   23.8681 C.2     1  UNL1        0.2420
     11 O          -9.1887  -16.5789   24.5454 O.2     1  UNL1       -0.2734
     12 C          -6.5308  -17.3422   23.3823 C.3     1  UNL1        0.0975
     13 C          -6.6997  -16.0146   24.0596 C.3     1  UNL1        0.0224
     14 C          -6.3356  -15.8590   25.5064 C.3     1  UNL1        0.0021
     15 C          -7.2326  -14.8424   23.2901 C.3     1  UNL1        0.0021
     16 C          -0.6812  -18.1366   19.8607 C.3     1  UNL1        0.2525
     17 O          -1.2149  -18.8688   21.0561 O.3     1  UNL1       -0.4714
     18 C         -10.1800  -18.8526   23.7723 C.3     1  UNL1        0.1552
     19 N         -11.5408  -18.4196   24.2314 N.3     1  UNL1       -0.2879
     20 H         -11.4050  -17.5990   24.8218 H       1  UNL1        0.1238
     21 C         -12.5926  -18.0593   23.2245 C.3     1  UNL1        0.0961
     22 C         -12.2245  -17.2632   22.0076 C.3     1  UNL1        0.1027
     23 O         -12.7292  -16.1642   22.8949 O.3     1  UNL1       -0.3854
     24 C         -11.8477  -18.6388   21.5429 C.3     1  UNL1        0.0283
     25 C         -11.2780  -18.8365   20.1694 C.3     1  UNL1        0.0024
     26 C         -11.0852  -17.6589   19.2607 C.3     1  UNL1        0.0002
     27 C         -11.4621  -16.2834   19.7253 C.3     1  UNL1        0.0024
     28 C         -12.0317  -16.0856   21.0988 C.3     1  UNL1        0.0283
     29 H         -13.0116  -16.5383   23.7442 H       1  UNL1        0.2103
@<TRIPOS>BOND
     1    16    17    1
     2    17     1    1
     3     1     2   ar
     4     2     3   ar
     5     3     4   ar
     6     4     5   ar
     7     5     6   ar
     8     5     7    1
     9     7     8    1
    10     8     9    1
    11     9    10   am
    12    10    11    2
    13    10    18    1
    14    18    19    1
    15    19    21    1
    16    21    22    1
    17    22    23    1
    18    22    24    1
    19    24    25    1
    20    25    26    1
    21    26    27    1
    22    27    28    1
    23     9    12    1
    24    12    13    1
    25    13    14    1
    26    13    15    1
    27     6     1   ar
    28    28    22    1
    29    12     4    1
    30    19    20    1
    31    23    29    1
@<TRIPOS>MOLECULE
*****
 29 31 0 0 0
SMALL
GASTEIGER

@<TRIPOS>ATOM
      1 C          -2.8178  -18.9401   21.6427 C.ar    1  UNL1        0.1384
      2 C          -2.4785  -17.9722   22.7372 C.ar    1  UNL1        0.0366
      3 C          -3.5738  -17.2704   23.4841 C.ar    1  UNL1        0.0001
      4 C          -5.0085  -17.5366   23.1364 C.ar    1  UNL1       -0.0080
      5 C          -5.3478  -18.5045   22.0419 C.ar    1  UNL1       -0.0199
      6 C          -4.2524  -19.2063   21.2951 C.ar    1  UNL1        0.0324
      7 C          -6.7825  -18.7708   21.6942 C.3     1  UNL1        0.0477
      8 C          -7.8778  -18.0690   22.4410 C.3     1  UNL1        0.0984
      9 N          -7.5385  -17.1011   23.5356 N.am    1  UNL1       -0.2760
     10 C          -8.6338  -16.3994   24.2824 C.2     1  UNL1        0.2420
     11 O          -8.2945  -15.4315   25.3770 O.2     1  UNL1       -0.2734
     12 C          -6.1038  -16.8349   23.8833 C.3     1  UNL1        0.0975
     13 C          -5.7646  -15.8670   24.9778 C.3     1  UNL1        0.0224
     14 C          -5.4769  -14.4323   24.6477 C.3     1  UNL1        0.0021
     15 C          -5.7129  -16.3338   26.4024 C.3     1  UNL1        0.0021
     16 C          -0.7758  -18.8550   20.0387 C.3     1  UNL1        0.2525
     17 O          -1.7224  -19.6418   20.8959 O.3     1  UNL1       -0.4714
     18 C         -10.0685  -16.6656   23.9347 C.3     1  UNL1        0.1552
     19 N         -10.7967  -15.7460   22.9997 N.3     1  UNL1       -0.2879
     20 H         -10.0876  -15.1895   22.5224 H       1  UNL1        0.1238
     21 C         -11.6910  -16.3117   21.9367 C.3     1  UNL1        0.0961
     22 C         -11.1578  -17.3274   20.9703 C.3     1  UNL1        0.1027
     23 O         -10.9390  -16.0732   20.1772 O.3     1  UNL1       -0.3854
     24 C         -11.5618  -18.2289   22.0990 C.3     1  UNL1        0.0283
     25 C         -11.3566  -19.7105   21.9859 C.3     1  UNL1        0.0024
     26 C         -10.7474  -20.2906   20.7440 C.3     1  UNL1        0.0002
     27 C         -10.3434  -19.3891   19.6153 C.3     1  UNL1        0.0024
     28 C         -10.5486  -17.9075   19.7284 C.3     1  UNL1        0.0283
     29 H         -11.2455  -15.3089   20.6898 H       1  UNL1        0.2103
@<TRIPOS>BOND
     1    16    17    1
     2    17     1    1
     3     1     2   ar
     4     2     3   ar
     5     3     4   ar
     6     4     5   ar
     7     5     6   ar
     8     5     7    1
     9     7     8    1
    10     8     9    1
    11     9    10   am
    12    10    11    2
    13    10    18    1
    14    18    19    1
    15    19    21    1
    16    21    22    1
    17    22    23    1
    18    22    24    1
    19    24    25    1
    20    25    26    1
    21    26    27    1
    22    27    28    1
    23     9    12    1
    24    12    13    1
    25    13    14    1
    26    13    15    1
    27     6     1   ar
    28    28    22    1
    29    12     4    1
    30    19    20    1
    31    23    29    1
@<TRIPOS>MOLECULE
*****
 29 31 0 0 0
SMALL
GASTEIGER

@<TRIPOS>ATOM
      1 C          -4.2478  -19.6130   21.5512 C.ar    1  UNL1        0.1384
      2 C          -4.3127  -18.6288   22.6812 C.ar    1  UNL1        0.0366
      3 C          -5.5599  -17.8264   22.9064 C.ar    1  UNL1        0.0001
      4 C          -6.7422  -18.0083   22.0014 C.ar    1  UNL1       -0.0080
      5 C          -6.6774  -18.9925   20.8714 C.ar    1  UNL1       -0.0199
      6 C          -5.4302  -19.7949   20.6463 C.ar    1  UNL1        0.0324
      7 C          -7.8598  -19.1744   19.9664 C.3     1  UNL1        0.0477
      8 C          -9.1070  -18.3720   20.1915 C.3     1  UNL1        0.0984
      9 N          -9.1718  -17.3877   21.3216 N.am    1  UNL1       -0.2760
     10 C         -10.4190  -16.5853   21.5468 C.2     1  UNL1        0.2420
     11 O         -10.4838  -15.6011   22.6768 O.2     1  UNL1       -0.2734
     12 C          -7.9894  -17.2059   22.2266 C.3     1  UNL1        0.0975
     13 C          -8.0543  -16.2216   23.3566 C.3     1  UNL1        0.0224
     14 C          -7.5510  -14.8220   23.1619 C.3     1  UNL1        0.0021
     15 C          -8.6223  -16.6369   24.6813 C.3     1  UNL1        0.0021
     16 C          -1.7038  -19.7201   21.0353 C.3     1  UNL1        0.2525
     17 O          -3.0006  -20.4154   21.3261 O.3     1  UNL1       -0.4714
     18 C         -11.6014  -16.7673   20.6418 C.3     1  UNL1        0.1552
     19 N         -12.8073  -17.5172   21.1249 N.3     1  UNL1       -0.2879
     20 H         -13.4005  -17.6769   20.3107 H       1  UNL1        0.1238
     21 C         -12.6424  -18.8427   21.8073 C.3     1  UNL1        0.0961
     22 C         -11.9745  -18.9181   23.1482 C.3     1  UNL1        0.1027
     23 O         -13.0789  -17.9526   23.4612 O.3     1  UNL1       -0.3854
     24 C         -11.1021  -19.8575   22.3694 C.3     1  UNL1        0.0283
     25 C          -9.9452  -20.5369   23.0403 C.3     1  UNL1        0.0024
     26 C          -9.6608  -20.2770   24.4900 C.3     1  UNL1        0.0002
     27 C         -10.5332  -19.3377   25.2688 C.3     1  UNL1        0.0024
     28 C         -11.6900  -18.6582   24.5978 C.3     1  UNL1        0.0283
     29 H         -13.6117  -17.8016   22.6649 H       1  UNL1        0.2103
@<TRIPOS>BOND
     1    16    17    1
     2    17     1    1
     3     1     2   ar
     4     2     3   ar
     5     3     4   ar
     6     4     5   ar
     7     5     6   ar
     8     5     7    1
     9     7     8    1
    10     8     9    1
    11     9    10   am
    12    10    11    2
    13    10    18    1
    14    18    19    1
    15    19    21    1
    16    21    22    1
    17    22    23    1
    18    22    24    1
    19    24    25    1
    20    25    26    1
    21    26    27    1
    22    27    28    1
    23     9    12    1
    24    12    13    1
    25    13    14    1
    26    13    15    1
    27     6     1   ar
    28    28    22    1
    29    12     4    1
    30    19    20    1
    31    23    29    1
@<TRIPOS>MOLECULE
*****
 29 31 0 0 0
SMALL
GASTEIGER

@<TRIPOS>ATOM
      1 C          -7.3457  -15.4119   26.8684 C.ar    1  UNL1        0.1384
      2 C          -8.4039  -16.3718   27.3252 C.ar    1  UNL1        0.0366
      3 C          -9.0855  -17.2652   26.3316 C.ar    1  UNL1        0.0001
      4 C          -8.7089  -17.1987   24.8812 C.ar    1  UNL1       -0.0080
      5 C          -7.6507  -16.2388   24.4244 C.ar    1  UNL1       -0.0199
      6 C          -6.9691  -15.3454   25.4180 C.ar    1  UNL1        0.0324
      7 C          -7.2740  -16.1723   22.9739 C.3     1  UNL1        0.0477
      8 C          -7.9556  -17.0658   21.9804 C.3     1  UNL1        0.0984
      9 N          -9.0139  -18.0257   22.4372 N.am    1  UNL1       -0.2760
     10 C          -9.6955  -18.9191   21.4437 C.2     1  UNL1        0.2420
     11 O         -10.7538  -19.8790   21.9005 O.2     1  UNL1       -0.2734
     12 C          -9.3905  -18.0921   23.8876 C.3     1  UNL1        0.0975
     13 C         -10.4488  -19.0520   24.3445 C.3     1  UNL1        0.0224
     14 C         -10.0743  -20.4511   24.7349 C.3     1  UNL1        0.0021
     15 C         -11.8815  -18.6129   24.4109 C.3     1  UNL1        0.0021
     16 C          -7.4520  -13.4743   28.5959 C.3     1  UNL1        0.2525
     17 O          -6.6640  -14.5185   27.8620 O.3     1  UNL1       -0.4714
     18 C          -9.3189  -18.8526   19.9932 C.3     1  UNL1        0.1552
     19 N          -7.9197  -19.1836   19.5658 N.3     1  UNL1       -0.2879
     20 H          -7.3791  -18.3213   19.6342 H       1  UNL1        0.1238
     21 C          -7.1432  -20.2403   20.2939 C.3     1  UNL1        0.0961
     22 C          -5.9338  -19.8629   21.0970 C.3     1  UNL1        0.1027
     23 O          -6.7848  -20.4654   22.1752 O.3     1  UNL1       -0.3854
     24 C          -5.5028  -19.3914   19.7398 C.3     1  UNL1        0.0283
     25 C          -4.1580  -18.7517   19.5602 C.3     1  UNL1        0.0024
     26 C          -3.2441  -18.5835   20.7377 C.3     1  UNL1        0.0002
     27 C          -3.6751  -19.0550   22.0949 C.3     1  UNL1        0.0024
     28 C          -5.0200  -19.6947   22.2745 C.3     1  UNL1        0.0283
     29 H          -7.6255  -20.7642   21.7946 H       1  UNL1        0.2103
@<TRIPOS>BOND
     1    16    17    1
     2    17     1    1
     3     1     2   ar
     4     2     3   ar
     5     3     4   ar
     6     4     5   ar
     7     5     6   ar
     8     5     7    1
     9     7     8    1
    10     8     9    1
    11     9    10   am
    12    10    11    2
    13    10    18    1
    14    18    19    1
    15    19    21    1
    16    21    22    1
    17    22    23    1
    18    22    24    1
    19    24    25    1
    20    25    26    1
    21    26    27    1
    22    27    28    1
    23     9    12    1
    24    12    13    1
    25    13    14    1
    26    13    15    1
    27     6     1   ar
    28    28    22    1
    29    12     4    1
    30    19    20    1
    31    23    29    1
@<TRIPOS>MOLECULE
*****
 29 31 0 0 0
SMALL
GASTEIGER

@<TRIPOS>ATOM
      1 C           0.8686    0.6172   21.3517 C.ar    1  UNL1        0.1384
      2 C           0.8698   -0.1683   20.0739 C.ar    1  UNL1        0.0366
      3 C           1.9456   -1.1816   19.8173 C.ar    1  UNL1        0.0001
      4 C           3.0202   -1.4094   20.8386 C.ar    1  UNL1       -0.0080
      5 C           3.0191   -0.6240   22.1164 C.ar    1  UNL1       -0.0199
      6 C           1.9433    0.3893   22.3730 C.ar    1  UNL1        0.0324
      7 C           4.0938   -0.8518   23.1378 C.3     1  UNL1        0.0477
      8 C           5.1697   -1.8651   22.8813 C.3     1  UNL1        0.0984
      9 N           5.1707   -2.6506   21.6033 N.am    1  UNL1       -0.2760
     10 C           6.2465   -3.6639   21.3467 C.2     1  UNL1        0.2420
     11 O           6.2477   -4.4494   20.0689 O.2     1  UNL1       -0.2734
     12 C           4.0960   -2.4228   20.5820 C.3     1  UNL1        0.0975
     13 C           4.0972   -3.2082   19.3041 C.3     1  UNL1        0.0224
     14 C           3.3404   -4.5004   19.2174 C.3     1  UNL1        0.0021
     15 C           4.8551   -2.7015   18.1129 C.3     1  UNL1        0.0021
     16 C          -0.7657    2.4353   20.4724 C.3     1  UNL1        0.2525
     17 O          -0.2072    1.6305   21.6083 O.3     1  UNL1       -0.4714
     18 C           7.3213   -3.8918   22.3681 C.3     1  UNL1        0.1552
     19 N           7.1985   -5.0220   23.3466 N.3     1  UNL1       -0.2879
     20 H           8.0946   -5.5092   23.3476 H       1  UNL1        0.1238
     21 C           6.8576   -4.7395   24.7798 C.3     1  UNL1        0.0961
     22 C           7.1648   -5.7569   25.8383 C.3     1  UNL1        0.1027
     23 O           6.2781   -4.8307   26.6167 O.3     1  UNL1       -0.3854
     24 C           7.9448   -6.3298   24.6923 C.3     1  UNL1        0.0283
     25 C           8.7240   -7.5984   24.8752 C.3     1  UNL1        0.0024
     26 C           8.7232   -8.2942   26.2040 C.3     1  UNL1        0.0002
     27 C           7.9432   -7.7213   27.3501 C.3     1  UNL1        0.0024
     28 C           7.1640   -6.4527   27.1672 C.3     1  UNL1        0.0283
     29 H           5.9921   -4.1008   26.0455 H       1  UNL1        0.2103
@<TRIPOS>BOND
     1    16    17    1
     2    17     1    1
     3     1     2   ar
     4     2     3   ar
     5     3     4   ar
     6     4     5   ar
     7     5     6   ar
     8     5     7    1
     9     7     8    1
    10     8     9    1
    11     9    10   am
    12    10    11    2
    13    10    18    1
    14    18    19    1
    15    19    21    1
    16    21    22    1
    17    22    23    1
    18    22    24    1
    19    24    25    1
    20    25    26    1
    21    26    27    1
    22    27    28    1
    23     9    12    1
    24    12    13    1
    25    13    14    1
    26    13    15    1
    27     6     1   ar
    28    28    22    1
    29    12     4    1
    30    19    20    1
    31    23    29    1
@<TRIPOS>MOLECULE
*****
 29 31 0 0 0
SMALL
GASTEIGER

@<TRIPOS>ATOM
      1 C          -8.8763  -15.7217   25.0227 C.ar    1  UNL1        0.1384
      2 C         -10.1761  -16.0831   24.3673 C.ar    1  UNL1        0.0366
      3 C         -10.1891  -17.0084   23.1867 C.ar    1  UNL1        0.0001
      4 C          -8.9021  -17.5723   22.6617 C.ar    1  UNL1       -0.0080
      5 C          -7.6023  -17.2109   23.3172 C.ar    1  UNL1       -0.0199
      6 C          -7.5893  -16.2856   24.4977 C.ar    1  UNL1        0.0324
      7 C          -6.3152  -17.7748   22.7921 C.3     1  UNL1        0.0477
      8 C          -6.3282  -18.7001   21.6116 C.3     1  UNL1        0.0984
      9 N          -7.6281  -19.0615   20.9561 N.am    1  UNL1       -0.2760
     10 C          -7.6411  -19.9868   19.7756 C.2     1  UNL1        0.2420
     11 O          -8.9409  -20.3482   19.1201 O.2     1  UNL1       -0.2734
     12 C          -8.9151  -18.4976   21.4812 C.3     1  UNL1        0.0975
     13 C         -10.2149  -18.8590   20.8257 C.3     1  UNL1        0.0224
     14 C         -10.9856  -20.0562   21.2977 C.3     1  UNL1        0.0021
     15 C         -10.7442  -18.0231   19.6981 C.3     1  UNL1        0.0021
     16 C          -8.2610  -15.2454   27.5015 C.3     1  UNL1        0.2525
     17 O          -8.8633  -14.7964   26.2033 O.3     1  UNL1       -0.4714
     18 C          -6.3540  -20.5507   19.2505 C.3     1  UNL1        0.1552
     19 N          -5.2352  -20.8729   20.1963 N.3     1  UNL1       -0.2879
     20 H          -5.2670  -21.8795   20.3581 H       1  UNL1        0.1238
     21 C          -3.8206  -20.5382   19.8265 C.3     1  UNL1        0.0961
     22 C          -3.0645  -19.5067   20.6101 C.3     1  UNL1        0.1027
     23 O          -3.3986  -20.4738   21.7069 O.3     1  UNL1       -0.3854
     24 C          -2.9930  -18.8978   19.2411 C.3     1  UNL1        0.0283
     25 C          -2.2815  -17.5932   19.0367 C.3     1  UNL1        0.0024
     26 C          -1.6413  -16.8975   20.2012 C.3     1  UNL1        0.0002
     27 C          -1.7128  -17.5064   21.5702 C.3     1  UNL1        0.0024
     28 C          -2.4244  -18.8110   21.7747 C.3     1  UNL1        0.0283
     29 H          -3.9028  -21.2169   21.3403 H       1  UNL1        0.2103
@<TRIPOS>BOND
     1    16    17    1
     2    17     1    1
     3     1     2   ar
     4     2     3   ar
     5     3     4   ar
     6     4     5   ar
     7     5     6   ar
     8     5     7    1
     9     7     8    1
    10     8     9    1
    11     9    10   am
    12    10    11    2
    13    10    18    1
    14    18    19    1
    15    19    21    1
    16    21    22    1
    17    22    23    1
    18    22    24    1
    19    24    25    1
    20    25    26    1
    21    26    27    1
    22    27    28    1
    23     9    12    1
    24    12    13    1
    25    13    14    1
    26    13    15    1
    27     6     1   ar
    28    28    22    1
    29    12     4    1
    30    19    20    1
    31    23    29    1
