@<TRIPOS>MOLECULE
*****
 31 35 0 0 0
SMALL
GASTEIGER

@<TRIPOS>ATOM
      1 C          -5.4904  -18.2107   22.3853 C.ar    1  UNL1        0.0599
      2 C          -5.5840  -16.9270   23.1556 C.ar    1  UNL1        0.0955
      3 N          -4.2736  -16.2094   23.0214 N.ar    1  UNL1       -0.2292
      4 C          -3.3702  -17.0496   22.1682 C.ar    1  UNL1        0.1481
      5 C          -1.9599  -16.8482   21.6986 C.ar    1  UNL1        0.0488
      6 C          -1.3018  -17.8837   20.8357 C.ar    1  UNL1        0.0622
      7 CL          0.1086  -17.6824   20.3660 Cl      1  UNL1       -0.0821
      8 C          -2.0538  -19.1206   20.4425 C.ar    1  UNL1        0.0305
      9 C          -3.4640  -19.3220   20.9122 C.ar    1  UNL1        0.0820
     10 N          -4.1222  -18.2865   21.7750 N.ar    1  UNL1       -0.2927
     11 C          -6.5747  -19.2382   22.2491 C.3     1  UNL1        0.0707
     12 C          -6.9475  -19.7600   20.8931 C.3     1  UNL1        0.1571
     13 S          -8.3228  -19.5145   20.3470 S.O2    1  UNL1       -0.0096
     14 O          -7.7318  -19.1781   19.0100 O.2     1  UNL1       -0.1730
     15 O          -8.9137  -19.8509   21.6840 O.2     1  UNL1       -0.1730
     16 C         -10.8970  -19.8257   20.5098 C.3     1  UNL1        0.0271
     17 C          -9.6981  -19.2689   19.8009 C.3     1  UNL1        0.1509
     18 C          -6.7782  -16.4454   23.9249 C.3     1  UNL1        0.1575
     19 N          -8.1551  -16.6113   23.3536 N.ar    1  UNL1       -0.2726
     20 C          -8.6654  -15.9888   22.0878 C.ar    1  UNL1        0.3318
     21 O          -7.8882  -15.0913   21.1711 O.2     1  UNL1       -0.2463
     22 N         -10.0893  -16.4216   21.8996 N.ar    1  UNL1       -0.2817
     23 C         -10.4591  -17.3115   23.0492 C.ar    1  UNL1        0.0827
     24 C         -11.7297  -18.0301   23.3937 C.ar    1  UNL1        0.0395
     25 C         -11.8051  -18.8661   24.6370 C.ar    1  UNL1        0.1005
     26 N         -10.6098  -18.9833   25.5355 N.ar    1  UNL1       -0.2407
     27 C          -9.3390  -18.2646   25.1910 C.ar    1  UNL1        0.1176
     28 C          -9.2637  -17.4287   23.9478 C.ar    1  UNL1        0.0992
     29 C         -10.9859  -16.0327   20.7618 C.3     1  UNL1        0.0900
     30 C         -11.1648  -15.4740   19.3812 C.3     1  UNL1        0.0246
     31 C         -12.3601  -15.9178   20.1714 C.3     1  UNL1        0.0246
@<TRIPOS>BOND
     1    16    17    1
     2    17    13    1
     3    13    14    2
     4    13    15    2
     5    13    12    1
     6    12    11    1
     7    11     1    1
     8     1     2   ar
     9     2    18    1
    10    18    19    1
    11    19    20   ar
    12    20    21    2
    13    20    22   ar
    14    22    29    1
    15    29    30    1
    16    30    31    1
    17    22    23   ar
    18    23    24   ar
    19    24    25   ar
    20    25    26   ar
    21    26    27   ar
    22    27    28   ar
    23     2     3   ar
    24     3     4   ar
    25     4     5   ar
    26     5     6   ar
    27     6     7    1
    28     6     8   ar
    29     8     9   ar
    30     9    10   ar
    31    10     1   ar
    32    28    19   ar
    33    10     4   ar
    34    31    29    1
    35    28    23   ar
@<TRIPOS>MOLECULE
*****
 31 35 0 0 0
SMALL
GASTEIGER

@<TRIPOS>ATOM
      1 C          -5.2352  -18.5362   22.3341 C.ar    1  UNL1        0.0599
      2 C          -5.6792  -19.7459   21.5663 C.ar    1  UNL1        0.0955
      3 N          -4.5912  -20.1055   20.5984 N.ar    1  UNL1       -0.2292
      4 C          -3.4748  -19.1181   20.7679 C.ar    1  UNL1        0.1481
      5 C          -2.1473  -18.9769   20.0841 C.ar    1  UNL1        0.0488
      6 C          -1.2178  -17.8658   20.4731 C.ar    1  UNL1        0.0622
      7 CL          0.1099  -17.7245   19.7893 Cl      1  UNL1       -0.0821
      8 C          -1.6158  -16.8959   21.5459 C.ar    1  UNL1        0.0305
      9 C          -2.9433  -17.0371   22.2297 C.ar    1  UNL1        0.0820
     10 N          -3.8728  -18.1482   21.8407 N.ar    1  UNL1       -0.2927
     11 C          -6.0164  -17.8372   23.4070 C.3     1  UNL1        0.0707
     12 C          -6.8516  -16.6388   23.0667 C.3     1  UNL1        0.1571
     13 S          -7.6351  -15.9415   24.1390 S.O2    1  UNL1       -0.0096
     14 O          -8.8551  -15.9707   23.2668 O.2     1  UNL1       -0.1730
     15 O          -6.4152  -15.9123   25.0113 O.2     1  UNL1       -0.1730
     16 C          -8.1585  -15.5584   26.6549 C.3     1  UNL1        0.0271
     17 C          -8.4186  -15.2442   25.2114 C.3     1  UNL1        0.1509
     18 C          -6.9823  -20.4690   21.7365 C.3     1  UNL1        0.1575
     19 N          -8.2660  -19.6958   21.8029 N.ar    1  UNL1       -0.2726
     20 C          -8.8415  -18.8469   20.7082 C.ar    1  UNL1        0.3318
     21 O          -8.2344  -18.6223   19.3551 O.2     1  UNL1       -0.2463
     22 N         -10.1307  -18.2622   21.2042 N.ar    1  UNL1       -0.2817
     23 C         -10.3520  -18.7497   22.6055 C.ar    1  UNL1        0.0827
     24 C         -11.4540  -18.5013   23.5923 C.ar    1  UNL1        0.0395
     25 C         -11.4035  -19.1389   24.9492 C.ar    1  UNL1        0.1005
     26 N         -10.2511  -20.0249   25.3191 N.ar    1  UNL1       -0.2407
     27 C          -9.1490  -20.2733   24.3322 C.ar    1  UNL1        0.1176
     28 C          -9.1995  -19.6357   22.9754 C.ar    1  UNL1        0.0992
     29 C         -11.0391  -17.3502   20.4343 C.3     1  UNL1        0.0900
     30 C         -12.3722  -16.6830   20.2665 C.3     1  UNL1        0.0246
     31 C         -11.2797  -16.4376   19.2683 C.3     1  UNL1        0.0246
@<TRIPOS>BOND
     1    16    17    1
     2    17    13    1
     3    13    14    2
     4    13    15    2
     5    13    12    1
     6    12    11    1
     7    11     1    1
     8     1     2   ar
     9     2    18    1
    10    18    19    1
    11    19    20   ar
    12    20    21    2
    13    20    22   ar
    14    22    29    1
    15    29    30    1
    16    30    31    1
    17    22    23   ar
    18    23    24   ar
    19    24    25   ar
    20    25    26   ar
    21    26    27   ar
    22    27    28   ar
    23     2     3   ar
    24     3     4   ar
    25     4     5   ar
    26     5     6   ar
    27     6     7    1
    28     6     8   ar
    29     8     9   ar
    30     9    10   ar
    31    10     1   ar
    32    28    19   ar
    33    10     4   ar
    34    31    29    1
    35    28    23   ar
@<TRIPOS>MOLECULE
*****
 31 35 0 0 0
SMALL
GASTEIGER

@<TRIPOS>ATOM
      1 C          -9.0476  -17.0108   23.6809 C.ar    1  UNL1        0.0599
      2 C          -7.7630  -16.9729   22.9074 C.ar    1  UNL1        0.0955
      3 N          -8.0864  -16.6056   21.4894 N.ar    1  UNL1       -0.2292
      4 C          -9.5709  -16.4166   21.3866 C.ar    1  UNL1        0.1481
      5 C         -10.4585  -16.0488   20.2347 C.ar    1  UNL1        0.0488
      6 C         -11.9401  -15.9314   20.4372 C.ar    1  UNL1        0.0622
      7 CL        -12.8277  -15.5636   19.2853 Cl      1  UNL1       -0.0821
      8 C         -12.5341  -16.1818   21.7916 C.ar    1  UNL1        0.0305
      9 C         -11.6466  -16.5496   22.9435 C.ar    1  UNL1        0.0820
     10 N         -10.1650  -16.6670   22.7410 N.ar    1  UNL1       -0.2927
     11 C          -9.1899  -17.3355   25.1384 C.3     1  UNL1        0.0707
     12 C          -9.7116  -18.6770   25.5605 C.3     1  UNL1        0.1571
     13 S         -10.3850  -19.5687   24.5598 S.O2    1  UNL1       -0.0096
     14 O         -11.7000  -18.9122   24.8597 O.2     1  UNL1       -0.1730
     15 O          -9.0701  -20.2251   24.2598 O.2     1  UNL1       -0.1730
     16 C         -10.9288  -20.1739   22.0924 C.3     1  UNL1        0.0271
     17 C         -11.0584  -20.4604   23.5591 C.3     1  UNL1        0.1509
     18 C          -6.3951  -17.2530   23.4555 C.3     1  UNL1        0.1575
     19 N          -5.3195  -17.7818   22.5536 N.ar    1  UNL1       -0.2726
     20 C          -3.9889  -17.1386   22.2969 C.ar    1  UNL1        0.3318
     21 O          -3.5004  -15.8536   22.8971 O.2     1  UNL1       -0.2463
     22 N          -3.2327  -18.0059   21.3347 N.ar    1  UNL1       -0.2817
     23 C          -4.0958  -19.1852   20.9967 C.ar    1  UNL1        0.0827
     24 C          -3.8741  -20.3672   20.1003 C.ar    1  UNL1        0.0395
     25 C          -4.9420  -21.4108   19.9572 C.ar    1  UNL1        0.1005
     26 N          -6.2317  -21.2723   20.7105 N.ar    1  UNL1       -0.2407
     27 C          -6.4536  -20.0902   21.6069 C.ar    1  UNL1        0.1176
     28 C          -5.3856  -19.0467   21.7500 C.ar    1  UNL1        0.0992
     29 C          -1.8552  -17.7405   20.8038 C.3     1  UNL1        0.0900
     30 C          -0.6065  -18.2274   20.1301 C.3     1  UNL1        0.0246
     31 C          -0.7178  -16.7939   20.5577 C.3     1  UNL1        0.0246
@<TRIPOS>BOND
     1    16    17    1
     2    17    13    1
     3    13    14    2
     4    13    15    2
     5    13    12    1
     6    12    11    1
     7    11     1    1
     8     1     2   ar
     9     2    18    1
    10    18    19    1
    11    19    20   ar
    12    20    21    2
    13    20    22   ar
    14    22    29    1
    15    29    30    1
    16    30    31    1
    17    22    23   ar
    18    23    24   ar
    19    24    25   ar
    20    25    26   ar
    21    26    27   ar
    22    27    28   ar
    23     2     3   ar
    24     3     4   ar
    25     4     5   ar
    26     5     6   ar
    27     6     7    1
    28     6     8   ar
    29     8     9   ar
    30     9    10   ar
    31    10     1   ar
    32    28    19   ar
    33    10     4   ar
    34    31    29    1
    35    28    23   ar
@<TRIPOS>MOLECULE
*****
 31 35 0 0 0
SMALL
GASTEIGER

@<TRIPOS>ATOM
      1 C          -8.8940  -17.2075   23.8206 C.ar    1  UNL1        0.0599
      2 C          -7.6544  -17.1918   22.9761 C.ar    1  UNL1        0.0955
      3 N          -8.0554  -16.8542   21.5707 N.ar    1  UNL1       -0.2292
      4 C          -9.5428  -16.6613   21.5466 C.ar    1  UNL1        0.1481
      5 C         -10.4922  -16.3150   20.4382 C.ar    1  UNL1        0.0488
      6 C         -11.9598  -16.1870   20.7203 C.ar    1  UNL1        0.0622
      7 CL        -12.9092  -15.8407   19.6118 Cl      1  UNL1       -0.0821
      8 C         -12.4780  -16.4054   22.1109 C.ar    1  UNL1        0.0305
      9 C         -11.5287  -16.7517   23.2193 C.ar    1  UNL1        0.0820
     10 N         -10.0610  -16.8797   22.9372 N.ar    1  UNL1       -0.2927
     11 C          -8.9557  -17.4998   25.2906 C.3     1  UNL1        0.0707
     12 C          -8.8816  -16.3770   26.2823 C.3     1  UNL1        0.1571
     13 S          -7.5645  -15.7227   26.5776 S.O2    1  UNL1       -0.0096
     14 O          -7.7622  -14.7989   25.4125 O.2     1  UNL1       -0.1730
     15 O          -7.3668  -16.6465   27.7428 O.2     1  UNL1       -0.1730
     16 C          -5.1410  -15.1198   25.8615 C.3     1  UNL1        0.0271
     17 C          -6.2474  -15.0684   26.8729 C.3     1  UNL1        0.1509
     18 C          -6.2589  -17.4656   23.4532 C.3     1  UNL1        0.1575
     19 N          -5.2219  -17.9649   22.4913 N.ar    1  UNL1       -0.2726
     20 C          -3.9109  -17.3028   22.1861 C.ar    1  UNL1        0.3318
     21 O          -3.4069  -16.0253   22.7893 O.2     1  UNL1       -0.2463
     22 N          -3.1925  -18.1426   21.1719 N.ar    1  UNL1       -0.2817
     23 C          -4.0594  -19.3238   20.8503 C.ar    1  UNL1        0.0827
     24 C          -3.8688  -20.4851   19.9203 C.ar    1  UNL1        0.0395
     25 C          -4.9324  -21.5366   19.8056 C.ar    1  UNL1        0.1005
     26 N          -6.1866  -21.4268   20.6211 N.ar    1  UNL1       -0.2407
     27 C          -6.3773  -20.2654   21.5511 C.ar    1  UNL1        0.1176
     28 C          -5.3137  -19.2139   21.6657 C.ar    1  UNL1        0.0992
     29 C          -1.8440  -17.8523   20.5828 C.3     1  UNL1        0.0900
     30 C          -0.6681  -18.2806   19.7557 C.3     1  UNL1        0.0246
     31 C          -0.6839  -16.9212   20.3895 C.3     1  UNL1        0.0246
@<TRIPOS>BOND
     1    16    17    1
     2    17    13    1
     3    13    14    2
     4    13    15    2
     5    13    12    1
     6    12    11    1
     7    11     1    1
     8     1     2   ar
     9     2    18    1
    10    18    19    1
    11    19    20   ar
    12    20    21    2
    13    20    22   ar
    14    22    29    1
    15    29    30    1
    16    30    31    1
    17    22    23   ar
    18    23    24   ar
    19    24    25   ar
    20    25    26   ar
    21    26    27   ar
    22    27    28   ar
    23     2     3   ar
    24     3     4   ar
    25     4     5   ar
    26     5     6   ar
    27     6     7    1
    28     6     8   ar
    29     8     9   ar
    30     9    10   ar
    31    10     1   ar
    32    28    19   ar
    33    10     4   ar
    34    31    29    1
    35    28    23   ar
@<TRIPOS>MOLECULE
*****
 31 35 0 0 0
SMALL
GASTEIGER

@<TRIPOS>ATOM
      1 C          -5.5784  -18.2872   22.6114 C.ar    1  UNL1        0.0599
      2 C          -5.6741  -17.0744   23.4890 C.ar    1  UNL1        0.0955
      3 N          -4.4173  -16.2747   23.3130 N.ar    1  UNL1       -0.2292
      4 C          -3.5449  -16.9932   22.3267 C.ar    1  UNL1        0.1481
      5 C          -2.1898  -16.6755   21.7675 C.ar    1  UNL1        0.0488
      6 C          -1.5524  -17.6017   20.7746 C.ar    1  UNL1        0.0622
      7 CL         -0.1972  -17.2841   20.2153 Cl      1  UNL1       -0.0821
      8 C          -2.2700  -18.8455   20.3410 C.ar    1  UNL1        0.0305
      9 C          -3.6251  -19.1631   20.9002 C.ar    1  UNL1        0.0820
     10 N          -4.2625  -18.2370   21.8931 N.ar    1  UNL1       -0.2927
     11 C          -6.6164  -19.3615   22.4759 C.3     1  UNL1        0.0707
     12 C          -7.8647  -19.1030   21.6856 C.3     1  UNL1        0.1571
     13 S          -7.9149  -19.4512   20.2275 S.O2    1  UNL1       -0.0096
     14 O          -8.9837  -18.4197   20.0180 O.2     1  UNL1       -0.1730
     15 O          -6.8462  -20.4827   20.4370 O.2     1  UNL1       -0.1730
     16 C          -8.9851  -20.7776   18.2665 C.3     1  UNL1        0.0271
     17 C          -7.9651  -19.7994   18.7693 C.3     1  UNL1        0.1509
     18 C          -6.8245  -16.7231   24.3851 C.3     1  UNL1        0.1575
     19 N          -8.2274  -16.7652   23.8560 N.ar    1  UNL1       -0.2726
     20 C          -9.3703  -17.5356   24.4481 C.ar    1  UNL1        0.3318
     21 O          -9.3108  -18.3990   25.6732 O.2     1  UNL1       -0.2463
     22 N         -10.5831  -17.2909   23.6000 N.ar    1  UNL1       -0.2817
     23 C         -10.1898  -16.3693   22.4837 C.ar    1  UNL1        0.0827
     24 C         -10.9692  -15.7840   21.3436 C.ar    1  UNL1        0.0395
     25 C         -10.2928  -14.8738   20.3617 C.ar    1  UNL1        0.1005
     26 N          -8.8370  -14.5489   20.5200 N.ar    1  UNL1       -0.2407
     27 C          -8.0575  -15.1342   21.6601 C.ar    1  UNL1        0.1176
     28 C          -8.7339  -16.0444   22.6419 C.ar    1  UNL1        0.0992
     29 C         -11.9492  -17.8667   23.8280 C.3     1  UNL1        0.0900
     30 C         -13.3976  -17.9638   23.4503 C.3     1  UNL1        0.0246
     31 C         -12.8671  -18.7669   24.6008 C.3     1  UNL1        0.0246
@<TRIPOS>BOND
     1    16    17    1
     2    17    13    1
     3    13    14    2
     4    13    15    2
     5    13    12    1
     6    12    11    1
     7    11     1    1
     8     1     2   ar
     9     2    18    1
    10    18    19    1
    11    19    20   ar
    12    20    21    2
    13    20    22   ar
    14    22    29    1
    15    29    30    1
    16    30    31    1
    17    22    23   ar
    18    23    24   ar
    19    24    25   ar
    20    25    26   ar
    21    26    27   ar
    22    27    28   ar
    23     2     3   ar
    24     3     4   ar
    25     4     5   ar
    26     5     6   ar
    27     6     7    1
    28     6     8   ar
    29     8     9   ar
    30     9    10   ar
    31    10     1   ar
    32    28    19   ar
    33    10     4   ar
    34    31    29    1
    35    28    23   ar
@<TRIPOS>MOLECULE
*****
 31 35 0 0 0
SMALL
GASTEIGER

@<TRIPOS>ATOM
      1 C         -10.8743  -18.3556   21.2951 C.ar    1  UNL1        0.0599
      2 C          -9.6881  -19.1206   21.8027 C.ar    1  UNL1        0.0955
      3 N          -9.9703  -19.5273   23.2187 N.ar    1  UNL1       -0.2292
      4 C         -11.3308  -19.0137   23.5862 C.ar    1  UNL1        0.1481
      5 C         -12.1331  -19.1118   24.8497 C.ar    1  UNL1        0.0488
      6 C         -13.4942  -18.4858   24.9244 C.ar    1  UNL1        0.0622
      7 CL        -14.2966  -18.5839   26.1880 Cl      1  UNL1       -0.0821
      8 C         -14.0529  -17.7616   23.7356 C.ar    1  UNL1        0.0305
      9 C         -13.2506  -17.6634   22.4720 C.ar    1  UNL1        0.0820
     10 N         -11.8895  -18.2895   22.3973 N.ar    1  UNL1       -0.2927
     11 C         -11.0197  -17.7610   19.9257 C.3     1  UNL1        0.0707
     12 C         -11.4654  -16.3374   19.7696 C.3     1  UNL1        0.1571
     13 S         -10.4632  -15.2244   19.8509 S.O2    1  UNL1       -0.0096
     14 O         -10.8175  -14.8033   18.4555 O.2     1  UNL1       -0.1730
     15 O         -10.1089  -15.6454   21.2463 O.2     1  UNL1       -0.1730
     16 C          -8.2718  -14.2375   20.8378 C.3     1  UNL1        0.0271
     17 C          -9.4609  -14.1113   19.9323 C.3     1  UNL1        0.1509
     18 C          -8.4390  -19.4254   21.0301 C.3     1  UNL1        0.1575
     19 N          -7.1082  -18.9595   21.5417 N.ar    1  UNL1       -0.2726
     20 C          -5.7711  -19.5246   21.1633 C.ar    1  UNL1        0.3318
     21 O          -5.5304  -20.6548   20.2069 O.2     1  UNL1       -0.2463
     22 N          -4.7173  -18.7611   21.9092 N.ar    1  UNL1       -0.2817
     23 C          -5.4029  -17.7241   22.7486 C.ar    1  UNL1        0.0827
     24 C          -4.8727  -16.6840   23.6904 C.ar    1  UNL1        0.0395
     25 C          -5.8201  -15.7665   24.4051 C.ar    1  UNL1        0.1005
     26 N          -7.2977  -15.8892   24.1779 N.ar    1  UNL1       -0.2407
     27 C          -7.8280  -16.9293   23.2361 C.ar    1  UNL1        0.1176
     28 C          -6.8806  -17.8467   22.5214 C.ar    1  UNL1        0.0992
     29 C          -3.2376  -18.9937   21.8297 C.3     1  UNL1        0.0900
     30 C          -1.8335  -18.5133   22.0481 C.3     1  UNL1        0.0246
     31 C          -2.0787  -19.8770   21.4735 C.3     1  UNL1        0.0246
@<TRIPOS>BOND
     1    16    17    1
     2    17    13    1
     3    13    14    2
     4    13    15    2
     5    13    12    1
     6    12    11    1
     7    11     1    1
     8     1     2   ar
     9     2    18    1
    10    18    19    1
    11    19    20   ar
    12    20    21    2
    13    20    22   ar
    14    22    29    1
    15    29    30    1
    16    30    31    1
    17    22    23   ar
    18    23    24   ar
    19    24    25   ar
    20    25    26   ar
    21    26    27   ar
    22    27    28   ar
    23     2     3   ar
    24     3     4   ar
    25     4     5   ar
    26     5     6   ar
    27     6     7    1
    28     6     8   ar
    29     8     9   ar
    30     9    10   ar
    31    10     1   ar
    32    28    19   ar
    33    10     4   ar
    34    31    29    1
    35    28    23   ar
@<TRIPOS>MOLECULE
*****
 31 35 0 0 0
SMALL
GASTEIGER

@<TRIPOS>ATOM
      1 C           6.5798   -3.2227   30.1225 C.ar    1  UNL1        0.0599
      2 C           5.8821   -2.2946   29.1729 C.ar    1  UNL1        0.0955
      3 N           5.8576   -2.9461   27.8220 N.ar    1  UNL1       -0.2292
      4 C           6.5401   -4.2769   27.9368 C.ar    1  UNL1        0.1481
      5 C           6.8128   -5.3551   26.9303 C.ar    1  UNL1        0.0488
      6 C           7.5318   -6.6043   27.3456 C.ar    1  UNL1        0.0622
      7 CL          7.8046   -7.6826   26.3391 Cl      1  UNL1       -0.0821
      8 C           7.9782   -6.7752   28.7674 C.ar    1  UNL1        0.0305
      9 C           7.7055   -5.6970   29.7739 C.ar    1  UNL1        0.0820
     10 N           6.9865   -4.4479   29.3586 N.ar    1  UNL1       -0.2927
     11 C           6.8274   -2.9700   31.5802 C.3     1  UNL1        0.0707
     12 C           5.7259   -3.1824   32.5759 C.3     1  UNL1        0.1571
     13 S           5.0950   -2.0054   33.2590 S.O2    1  UNL1       -0.0096
     14 O           6.2985   -1.1714   32.9334 O.2     1  UNL1       -0.1730
     15 O           3.8915   -2.8394   33.5845 O.2     1  UNL1       -0.1730
     16 C           4.7488   -0.5603   35.3902 C.3     1  UNL1        0.0271
     17 C           4.4641   -0.8283   33.9420 C.3     1  UNL1        0.1509
     18 C           5.3095   -0.9508   29.5142 C.3     1  UNL1        0.1575
     19 N           4.0057   -0.5165   28.9130 N.ar    1  UNL1       -0.2726
     20 C           2.6588   -0.6096   29.5668 C.ar    1  UNL1        0.3318
     21 O           2.3795   -1.1535   30.9365 O.2     1  UNL1       -0.2463
     22 N           1.6405   -0.0635   28.6104 N.ar    1  UNL1       -0.2817
     23 C           2.3580    0.3672   27.3655 C.ar    1  UNL1        0.0827
     24 C           1.8691    0.9782   26.0858 C.ar    1  UNL1        0.0395
     25 C           2.8420    1.3092   24.9930 C.ar    1  UNL1        0.1005
     26 N           4.3037    1.0292   25.1801 N.ar    1  UNL1       -0.2407
     27 C           4.7926    0.4182   26.4598 C.ar    1  UNL1        0.1176
     28 C           3.8198    0.0872   27.5525 C.ar    1  UNL1        0.0992
     29 C           0.1641    0.0347   28.8558 C.3     1  UNL1        0.0900
     30 C          -1.2181   -0.5288   28.7061 C.3     1  UNL1        0.0246
     31 C          -1.0114    0.7683   29.4306 C.3     1  UNL1        0.0246
@<TRIPOS>BOND
     1    16    17    1
     2    17    13    1
     3    13    14    2
     4    13    15    2
     5    13    12    1
     6    12    11    1
     7    11     1    1
     8     1     2   ar
     9     2    18    1
    10    18    19    1
    11    19    20   ar
    12    20    21    2
    13    20    22   ar
    14    22    29    1
    15    29    30    1
    16    30    31    1
    17    22    23   ar
    18    23    24   ar
    19    24    25   ar
    20    25    26   ar
    21    26    27   ar
    22    27    28   ar
    23     2     3   ar
    24     3     4   ar
    25     4     5   ar
    26     5     6   ar
    27     6     7    1
    28     6     8   ar
    29     8     9   ar
    30     9    10   ar
    31    10     1   ar
    32    28    19   ar
    33    10     4   ar
    34    31    29    1
    35    28    23   ar
@<TRIPOS>MOLECULE
*****
 31 35 0 0 0
SMALL
GASTEIGER

@<TRIPOS>ATOM
      1 C           2.9462   -0.2754   29.4569 C.ar    1  UNL1        0.0599
      2 C           4.1911   -0.2216   28.6218 C.ar    1  UNL1        0.0955
      3 N           3.8284    0.3559   27.2858 N.ar    1  UNL1       -0.2292
      4 C           2.3594    0.6591   27.2952 C.ar    1  UNL1        0.1481
      5 C           1.4479    1.2400   26.2552 C.ar    1  UNL1        0.0488
      6 C          -0.0090    1.4307   26.5571 C.ar    1  UNL1        0.0622
      7 CL         -0.9206    2.0117   25.5171 Cl      1  UNL1       -0.0821
      8 C          -0.5543    1.0405   27.8989 C.ar    1  UNL1        0.0305
      9 C           0.3573    0.4596   28.9388 C.ar    1  UNL1        0.0820
     10 N           1.8141    0.2689   28.6370 N.ar    1  UNL1       -0.2927
     11 C           2.8501   -0.7842   30.8647 C.3     1  UNL1        0.0707
     12 C           3.3433    0.0596   32.0024 C.3     1  UNL1        0.1571
     13 S           3.9642   -0.5896   33.2037 S.O2    1  UNL1       -0.0096
     14 O           4.3492    0.7597   33.7340 O.2     1  UNL1       -0.1730
     15 O           3.5791   -1.9389   32.6734 O.2     1  UNL1       -0.1730
     16 C           5.1040   -0.3936   35.5302 C.3     1  UNL1        0.0271
     17 C           4.5851   -1.2389   34.4049 C.3     1  UNL1        0.1509
     18 C           5.5585   -0.6672   29.0480 C.3     1  UNL1        0.1575
     19 N           5.9959   -2.0814   28.8060 N.ar    1  UNL1       -0.2726
     20 C           6.1924   -2.7265   27.4660 C.ar    1  UNL1        0.3318
     21 O           5.9860   -2.0705   26.1330 O.2     1  UNL1       -0.2463
     22 N           6.6315   -4.1427   27.6933 N.ar    1  UNL1       -0.2817
     23 C           6.7064   -4.3729   29.1737 C.ar    1  UNL1        0.0827
     24 C           7.0815   -5.5779   29.9843 C.ar    1  UNL1        0.0395
     25 C           7.0638   -5.5091   31.4827 C.ar    1  UNL1        0.1005
     26 N           6.6710   -4.2351   32.1703 N.ar    1  UNL1       -0.2407
     27 C           6.2959   -3.0300   31.3596 C.ar    1  UNL1        0.1176
     28 C           6.3136   -3.0989   29.8613 C.ar    1  UNL1        0.0992
     29 C           6.9413   -5.1515   26.6274 C.3     1  UNL1        0.0900
     30 C           7.3470   -5.4702   25.2188 C.3     1  UNL1        0.0246
     31 C           7.0721   -6.5803   26.1895 C.3     1  UNL1        0.0246
@<TRIPOS>BOND
     1    16    17    1
     2    17    13    1
     3    13    14    2
     4    13    15    2
     5    13    12    1
     6    12    11    1
     7    11     1    1
     8     1     2   ar
     9     2    18    1
    10    18    19    1
    11    19    20   ar
    12    20    21    2
    13    20    22   ar
    14    22    29    1
    15    29    30    1
    16    30    31    1
    17    22    23   ar
    18    23    24   ar
    19    24    25   ar
    20    25    26   ar
    21    26    27   ar
    22    27    28   ar
    23     2     3   ar
    24     3     4   ar
    25     4     5   ar
    26     5     6   ar
    27     6     7    1
    28     6     8   ar
    29     8     9   ar
    30     9    10   ar
    31    10     1   ar
    32    28    19   ar
    33    10     4   ar
    34    31    29    1
    35    28    23   ar
@<TRIPOS>MOLECULE
*****
 31 35 0 0 0
SMALL
GASTEIGER

@<TRIPOS>ATOM
      1 C           6.4135   -2.4841   30.0594 C.ar    1  UNL1        0.0599
      2 C           5.9676   -1.5480   28.9755 C.ar    1  UNL1        0.0955
      3 N           6.0314   -2.2856   27.6709 N.ar    1  UNL1       -0.2292
      4 C           6.5167   -3.6775   27.9486 C.ar    1  UNL1        0.1481
      5 C           6.7741   -4.8490   27.0479 C.ar    1  UNL1        0.0488
      6 C           7.2677   -6.1433   27.6235 C.ar    1  UNL1        0.0622
      7 CL          7.5252   -7.3149   26.7229 Cl      1  UNL1       -0.0821
      8 C           7.5039   -6.2659   29.0997 C.ar    1  UNL1        0.0305
      9 C           7.2465   -5.0944   30.0003 C.ar    1  UNL1        0.0820
     10 N           6.7529   -3.8002   29.4248 N.ar    1  UNL1       -0.2927
     11 C           6.5042   -2.1609   31.5214 C.3     1  UNL1        0.0707
     12 C           5.4586   -2.6705   32.4684 C.3     1  UNL1        0.1571
     13 S           5.0222   -1.8262   33.6289 S.O2    1  UNL1       -0.0096
     14 O           6.2997   -1.0449   33.5409 O.2     1  UNL1       -0.1730
     15 O           3.7448   -2.6075   33.7170 O.2     1  UNL1       -0.1730
     16 C           5.6019   -0.2161   35.5838 C.3     1  UNL1        0.0271
     17 C           4.5858   -0.9819   34.7894 C.3     1  UNL1        0.1509
     18 C           5.5340   -0.1244   29.1632 C.3     1  UNL1        0.1575
     19 N           4.1047    0.1868   29.4953 N.ar    1  UNL1       -0.2726
     20 C           2.9105   -0.1477   28.6514 C.ar    1  UNL1        0.3318
     21 O           2.9360   -0.8519   27.3272 O.2     1  UNL1       -0.2463
     22 N           1.6864    0.3458   29.3641 N.ar    1  UNL1       -0.2817
     23 C           2.1240    0.9853   30.6485 C.ar    1  UNL1        0.0827
     24 C           1.3546    1.6443   31.7547 C.ar    1  UNL1        0.0395
     25 C           2.0798    2.2051   32.9420 C.ar    1  UNL1        0.1005
     26 N           3.5744    2.1068   33.0230 N.ar    1  UNL1       -0.2407
     27 C           4.3438    1.4477   31.9168 C.ar    1  UNL1        0.1176
     28 C           3.6186    0.8869   30.7296 C.ar    1  UNL1        0.0992
     29 C           0.2729    0.2217   28.8778 C.3     1  UNL1        0.0900
     30 C          -0.8417    0.6915   27.9906 C.3     1  UNL1        0.0246
     31 C          -1.0610   -0.4631   28.9226 C.3     1  UNL1        0.0246
@<TRIPOS>BOND
     1    16    17    1
     2    17    13    1
     3    13    14    2
     4    13    15    2
     5    13    12    1
     6    12    11    1
     7    11     1    1
     8     1     2   ar
     9     2    18    1
    10    18    19    1
    11    19    20   ar
    12    20    21    2
    13    20    22   ar
    14    22    29    1
    15    29    30    1
    16    30    31    1
    17    22    23   ar
    18    23    24   ar
    19    24    25   ar
    20    25    26   ar
    21    26    27   ar
    22    27    28   ar
    23     2     3   ar
    24     3     4   ar
    25     4     5   ar
    26     5     6   ar
    27     6     7    1
    28     6     8   ar
    29     8     9   ar
    30     9    10   ar
    31    10     1   ar
    32    28    19   ar
    33    10     4   ar
    34    31    29    1
    35    28    23   ar
