@<TRIPOS>MOLECULE
*****
 30 33 0 0 0
SMALL
GASTEIGER

@<TRIPOS>ATOM
      1 C          -8.0692  -19.2839   20.7813 C.ar    1  UNL1        0.0391
      2 C          -7.0968  -20.3201   20.3008 C.ar    1  UNL1        0.0045
      3 C          -5.6985  -20.3453   20.8431 C.ar    1  UNL1        0.0147
      4 C          -5.2726  -19.3341   21.8660 C.ar    1  UNL1        0.0484
      5 C          -6.2448  -18.2980   22.3466 C.ar    1  UNL1        0.0147
      6 C          -7.6432  -18.2729   21.8042 C.ar    1  UNL1        0.0045
      7 C          -9.4675  -19.2588   20.2390 C.2     1  UNL1        0.1983
      8 O          -9.7413  -19.7480   18.8478 O.2     1  UNL1       -0.2865
      9 C         -11.4299  -17.5966   20.6082 C.2     1  UNL1        0.1451
     10 C         -12.5544  -17.0822   21.4573 C.2     1  UNL1        0.0838
     11 C         -12.8410  -17.7158   22.7864 C.2     1  UNL1        0.2267
     12 N         -13.8748  -17.4265   23.8341 N.2     1  UNL1       -0.0385
     13 C         -13.6758  -18.3956   24.9616 C.2     1  UNL1        0.3473
     14 C         -14.4904  -18.4644   26.2192 C.3     1  UNL1        0.1363
     15 N         -12.5190  -19.2838   24.6107 N.2     1  UNL1       -0.0551
     16 C         -12.0031  -18.8636   23.2664 C.3     1  UNL1        0.3015
     17 C         -10.8787  -19.3780   22.4172 C.2     1  UNL1        0.0410
     18 C         -10.5921  -18.7444   21.0882 C.2     1  UNL1        0.0733
     19 C         -11.4168  -15.5031   19.0695 C.3     1  UNL1        0.2525
     20 O         -11.1433  -16.9630   19.2790 O.2     1  UNL1       -0.4712
     21 N          -3.8743  -19.3593   22.4083 N.pl3   1  UNL1       -0.3108
     22 H          -3.6689  -19.8833   23.2161 H       1  UNL1        0.1523
     23 C          -2.7888  -18.5861   21.7198 C.ar    1  UNL1        0.0763
     24 C          -1.8992  -19.2677   20.7228 C.ar    1  UNL1        0.0192
     25 C          -0.8138  -18.4944   20.0344 C.ar    1  UNL1        0.0311
     26 C          -0.6179  -17.0396   20.3430 C.ar    1  UNL1        0.1425
     27 F           0.4675  -16.2664   19.6545 F       1  UNL1       -0.2041
     28 C          -1.5075  -16.3580   21.3400 C.ar    1  UNL1        0.0605
     29 C          -2.5930  -17.1313   22.0284 C.ar    1  UNL1        0.1556
     30 F          -3.4826  -16.4497   23.0254 F       1  UNL1       -0.2028
@<TRIPOS>BOND
     1    19    20    1
     2    20     9    1
     3     9    10    2
     4    10    11    1
     5    11    12    2
     6    12    13    1
     7    13    14    1
     8    13    15    2
     9    15    16    1
    10    16    17    1
    11    17    18    2
    12    18     7    1
    13     7     8    2
    14     7     1    1
    15     1     2   ar
    16     2     3   ar
    17     3     4   ar
    18     4    21    1
    19    21    23    1
    20    23    24   ar
    21    24    25   ar
    22    25    26   ar
    23    26    27    1
    24    26    28   ar
    25    28    29   ar
    26    29    30    1
    27     4     5   ar
    28     5     6   ar
    29    18     9    1
    30     6     1   ar
    31    16    11    1
    32    29    23   ar
    33    21    22    1
@<TRIPOS>MOLECULE
*****
 30 33 0 0 0
SMALL
GASTEIGER

@<TRIPOS>ATOM
      1 C           4.6780   -3.4778   20.6764 C.ar    1  UNL1        0.0391
      2 C           4.3039   -3.3485   22.1232 C.ar    1  UNL1        0.0045
      3 C           5.3411   -3.5535   23.1873 C.ar    1  UNL1        0.0147
      4 C           6.7524   -3.8879   22.8045 C.ar    1  UNL1        0.0484
      5 C           7.1265   -4.0172   21.3578 C.ar    1  UNL1        0.0147
      6 C           6.0893   -3.8122   20.2936 C.ar    1  UNL1        0.0045
      7 C           3.6409   -3.2728   19.6123 C.2     1  UNL1        0.1983
      8 O           3.0692   -4.4533   18.8848 O.2     1  UNL1       -0.2865
      9 C           3.8916   -1.0894   18.2265 C.2     1  UNL1        0.1451
     10 C           3.4262    0.2963   17.8900 C.2     1  UNL1        0.0838
     11 C           2.2447    0.8844   18.6027 C.2     1  UNL1        0.2267
     12 N           1.5616    2.2147   18.4851 N.2     1  UNL1       -0.0385
     13 C           0.4234    2.2392   19.4616 C.2     1  UNL1        0.3473
     14 C          -0.5275    3.3788   19.6789 C.3     1  UNL1        0.1363
     15 N           0.4029    0.9241   20.1828 N.2     1  UNL1       -0.0551
     16 C           1.5285    0.0868   19.6520 C.3     1  UNL1        0.3015
     17 C           1.9939   -1.2989   19.9885 C.2     1  UNL1        0.0410
     18 C           3.1755   -1.8870   19.2757 C.2     1  UNL1        0.0733
     19 C           6.4500   -1.1437   17.7772 C.3     1  UNL1        0.2525
     20 O           5.0732   -1.6776   17.5137 O.2     1  UNL1       -0.4712
     21 N           7.7895   -4.0930   23.8686 N.pl3   1  UNL1       -0.3108
     22 H           8.4820   -3.4096   24.0192 H       1  UNL1        0.1523
     23 C           7.7716   -5.3392   24.7032 C.ar    1  UNL1        0.0763
     24 C           8.4463   -6.5837   24.2073 C.ar    1  UNL1        0.0192
     25 C           8.4283   -7.8300   25.0419 C.ar    1  UNL1        0.0311
     26 C           7.7356   -7.8317   26.3724 C.ar    1  UNL1        0.1425
     27 F           7.7177   -9.0780   27.2070 F       1  UNL1       -0.2041
     28 C           7.0609   -6.5872   26.8683 C.ar    1  UNL1        0.0605
     29 C           7.0789   -5.3410   26.0337 C.ar    1  UNL1        0.1556
     30 F           6.4042   -4.0965   26.5295 F       1  UNL1       -0.2028
@<TRIPOS>BOND
     1    19    20    1
     2    20     9    1
     3     9    10    2
     4    10    11    1
     5    11    12    2
     6    12    13    1
     7    13    14    1
     8    13    15    2
     9    15    16    1
    10    16    17    1
    11    17    18    2
    12    18     7    1
    13     7     8    2
    14     7     1    1
    15     1     2   ar
    16     2     3   ar
    17     3     4   ar
    18     4    21    1
    19    21    23    1
    20    23    24   ar
    21    24    25   ar
    22    25    26   ar
    23    26    27    1
    24    26    28   ar
    25    28    29   ar
    26    29    30    1
    27     4     5   ar
    28     5     6   ar
    29    18     9    1
    30     6     1   ar
    31    16    11    1
    32    29    23   ar
    33    21    22    1
@<TRIPOS>MOLECULE
*****
 30 33 0 0 0
SMALL
GASTEIGER

@<TRIPOS>ATOM
      1 C           4.7637   -3.4659   20.7794 C.ar    1  UNL1        0.0391
      2 C           4.3734   -3.3314   22.2215 C.ar    1  UNL1        0.0045
      3 C           5.4107   -3.4729   23.2957 C.ar    1  UNL1        0.0147
      4 C           6.8385   -3.7488   22.9277 C.ar    1  UNL1        0.0484
      5 C           7.2289   -3.8833   21.4858 C.ar    1  UNL1        0.0147
      6 C           6.1914   -3.7419   20.4115 C.ar    1  UNL1        0.0045
      7 C           3.7263   -3.3245   19.7052 C.2     1  UNL1        0.1983
      8 O           3.1962   -4.5429   19.0094 O.2     1  UNL1       -0.2865
      9 C           3.8889   -1.1929   18.2288 C.2     1  UNL1        0.1451
     10 C           3.3817    0.1672   17.8504 C.2     1  UNL1        0.0838
     11 C           2.2046    0.7556   18.5704 C.2     1  UNL1        0.2267
     12 N           1.4868    2.0639   18.4186 N.2     1  UNL1       -0.0385
     13 C           0.3734    2.1008   19.4230 C.2     1  UNL1        0.3473
     14 C          -0.5991    3.2258   19.6202 C.3     1  UNL1        0.1363
     15 N           0.4030    0.8154   20.1955 N.2     1  UNL1       -0.0551
     16 C           1.5348   -0.0160   19.6686 C.3     1  UNL1        0.3015
     17 C           2.0421   -1.3760   20.0468 C.2     1  UNL1        0.0410
     18 C           3.2191   -1.9644   19.3269 C.2     1  UNL1        0.0733
     19 C           6.4461   -1.2566   17.7736 C.3     1  UNL1        0.2525
     20 O           5.0660   -1.7814   17.5088 O.2     1  UNL1       -0.4712
     21 N           7.8759   -3.8903   24.0019 N.pl3   1  UNL1       -0.3108
     22 H           8.8189   -3.6870   23.8054 H       1  UNL1        0.1523
     23 C           7.4764   -4.3415   25.3756 C.ar    1  UNL1        0.0763
     24 C           7.2481   -3.3308   26.4602 C.ar    1  UNL1        0.0192
     25 C           6.8487   -3.7821   27.8338 C.ar    1  UNL1        0.0311
     26 C           6.6776   -5.2440   28.1228 C.ar    1  UNL1        0.1425
     27 F           6.2781   -5.6952   29.4965 F       1  UNL1       -0.2041
     28 C           6.9059   -6.2547   27.0382 C.ar    1  UNL1        0.0605
     29 C           7.3053   -5.8034   25.6646 C.ar    1  UNL1        0.1556
     30 F           7.5336   -6.8141   24.5800 F       1  UNL1       -0.2028
@<TRIPOS>BOND
     1    19    20    1
     2    20     9    1
     3     9    10    2
     4    10    11    1
     5    11    12    2
     6    12    13    1
     7    13    14    1
     8    13    15    2
     9    15    16    1
    10    16    17    1
    11    17    18    2
    12    18     7    1
    13     7     8    2
    14     7     1    1
    15     1     2   ar
    16     2     3   ar
    17     3     4   ar
    18     4    21    1
    19    21    23    1
    20    23    24   ar
    21    24    25   ar
    22    25    26   ar
    23    26    27    1
    24    26    28   ar
    25    28    29   ar
    26    29    30    1
    27     4     5   ar
    28     5     6   ar
    29    18     9    1
    30     6     1   ar
    31    16    11    1
    32    29    23   ar
    33    21    22    1
@<TRIPOS>MOLECULE
*****
 30 33 0 0 0
SMALL
GASTEIGER

@<TRIPOS>ATOM
      1 C           7.0001   -4.0171   22.8182 C.ar    1  UNL1        0.0391
      2 C           7.2826   -4.0370   21.3451 C.ar    1  UNL1        0.0045
      3 C           6.1641   -3.8455   20.3642 C.ar    1  UNL1        0.0147
      4 C           4.7629   -3.6342   20.8564 C.ar    1  UNL1        0.0484
      5 C           4.4803   -3.6143   22.3293 C.ar    1  UNL1        0.0147
      6 C           5.5990   -3.8057   23.3103 C.ar    1  UNL1        0.0045
      7 C           8.1186   -4.2085   23.7991 C.2     1  UNL1        0.1983
      8 O           9.5355   -3.9489   23.3810 O.2     1  UNL1       -0.2865
      9 C           7.6947   -6.1227   25.5039 C.2     1  UNL1        0.1451
     10 C           7.3962   -6.5738   26.9030 C.2     1  UNL1        0.0838
     11 C           7.2231   -5.5616   27.9964 C.2     1  UNL1        0.2267
     12 N           6.9254   -5.7057   29.4595 N.2     1  UNL1       -0.0385
     13 C           6.8668   -4.3315   30.0581 C.2     1  UNL1        0.3473
     14 C           6.5946   -4.0075   31.4971 C.3     1  UNL1        0.1363
     15 N           7.1283   -3.3382   28.9649 N.2     1  UNL1       -0.0551
     16 C           7.3485   -4.0984   27.6907 C.3     1  UNL1        0.3015
     17 C           7.6470   -3.6474   26.2916 C.2     1  UNL1        0.0410
     18 C           7.8201   -4.6596   25.1982 C.2     1  UNL1        0.0733
     19 C           9.2252   -7.7058   24.1249 C.3     1  UNL1        0.2525
     20 O           7.8678   -7.1349   24.4104 O.2     1  UNL1       -0.4712
     21 N           3.6444   -3.4428   19.8754 N.pl3   1  UNL1       -0.3108
     22 H           3.1528   -4.2231   19.5310 H       1  UNL1        0.1523
     23 C           3.2748   -2.0624   19.4193 C.ar    1  UNL1        0.0763
     24 C           2.2139   -1.2910   20.1469 C.ar    1  UNL1        0.0192
     25 C           1.8444    0.0894   19.6908 C.ar    1  UNL1        0.0311
     26 C           2.5358    0.6984   18.5071 C.ar    1  UNL1        0.1425
     27 F           2.1662    2.0788   18.0510 F       1  UNL1       -0.2041
     28 C           3.5967   -0.0730   17.7795 C.ar    1  UNL1        0.0605
     29 C           3.9662   -1.4534   18.2356 C.ar    1  UNL1        0.1556
     30 F           5.0271   -2.2248   17.5080 F       1  UNL1       -0.2028
@<TRIPOS>BOND
     1    19    20    1
     2    20     9    1
     3     9    10    2
     4    10    11    1
     5    11    12    2
     6    12    13    1
     7    13    14    1
     8    13    15    2
     9    15    16    1
    10    16    17    1
    11    17    18    2
    12    18     7    1
    13     7     8    2
    14     7     1    1
    15     1     2   ar
    16     2     3   ar
    17     3     4   ar
    18     4    21    1
    19    21    23    1
    20    23    24   ar
    21    24    25   ar
    22    25    26   ar
    23    26    27    1
    24    26    28   ar
    25    28    29   ar
    26    29    30    1
    27     4     5   ar
    28     5     6   ar
    29    18     9    1
    30     6     1   ar
    31    16    11    1
    32    29    23   ar
    33    21    22    1
@<TRIPOS>MOLECULE
*****
 30 33 0 0 0
SMALL
GASTEIGER

@<TRIPOS>ATOM
      1 C           3.1357    0.3339   18.0663 C.ar    1  UNL1        0.0391
      2 C           3.7615    1.6684   18.3447 C.ar    1  UNL1        0.0045
      3 C           2.9377    2.7749   18.9338 C.ar    1  UNL1        0.0147
      4 C           1.4880    2.5469   19.2445 C.ar    1  UNL1        0.0484
      5 C           0.8622    1.2125   18.9661 C.ar    1  UNL1        0.0147
      6 C           1.6861    0.1059   18.3770 C.ar    1  UNL1        0.0045
      7 C           3.9595   -0.7726   17.4773 C.2     1  UNL1        0.1983
      8 O           3.6696   -1.2673   16.0913 O.2     1  UNL1       -0.2865
      9 C           6.5002   -1.1108   17.9019 C.2     1  UNL1        0.1451
     10 C           7.6141   -1.7225   18.6990 C.2     1  UNL1        0.0838
     11 C           7.3008   -2.6079   19.8686 C.2     1  UNL1        0.2267
     12 N           8.1813   -3.3453   20.8334 N.2     1  UNL1       -0.0385
     13 C           7.2984   -4.0747   21.8021 C.2     1  UNL1        0.3473
     14 C           7.7605   -4.9391   22.9376 C.3     1  UNL1        0.1363
     15 N           5.8723   -3.7880   21.4361 N.2     1  UNL1       -0.0551
     16 C           5.8737   -2.8814   20.2411 C.3     1  UNL1        0.3015
     17 C           4.7600   -2.2697   19.4440 C.2     1  UNL1        0.0410
     18 C           5.0733   -1.3844   18.2744 C.2     1  UNL1        0.0733
     19 C           7.4192    1.1284   16.9573 C.3     1  UNL1        0.2525
     20 O           6.8136   -0.2254   16.7322 O.2     1  UNL1       -0.4712
     21 N           0.6642    3.6534   19.8335 N.pl3   1  UNL1       -0.3108
     22 H           1.0968    4.3590   20.3666 H       1  UNL1        0.1523
     23 C          -0.8188    3.6848   19.6104 C.ar    1  UNL1        0.0763
     24 C          -1.7512    3.2588   20.7054 C.ar    1  UNL1        0.0192
     25 C          -3.2342    3.2902   20.4821 C.ar    1  UNL1        0.0311
     26 C          -3.7848    3.7477   19.1639 C.ar    1  UNL1        0.1425
     27 F          -5.2677    3.7792   18.9408 F       1  UNL1       -0.2041
     28 C          -2.8523    4.1738   18.0689 C.ar    1  UNL1        0.0605
     29 C          -1.3693    4.1423   18.2922 C.ar    1  UNL1        0.1556
     30 F          -0.4369    4.5684   17.1972 F       1  UNL1       -0.2028
@<TRIPOS>BOND
     1    19    20    1
     2    20     9    1
     3     9    10    2
     4    10    11    1
     5    11    12    2
     6    12    13    1
     7    13    14    1
     8    13    15    2
     9    15    16    1
    10    16    17    1
    11    17    18    2
    12    18     7    1
    13     7     8    2
    14     7     1    1
    15     1     2   ar
    16     2     3   ar
    17     3     4   ar
    18     4    21    1
    19    21    23    1
    20    23    24   ar
    21    24    25   ar
    22    25    26   ar
    23    26    27    1
    24    26    28   ar
    25    28    29   ar
    26    29    30    1
    27     4     5   ar
    28     5     6   ar
    29    18     9    1
    30     6     1   ar
    31    16    11    1
    32    29    23   ar
    33    21    22    1
@<TRIPOS>MOLECULE
*****
 30 33 0 0 0
SMALL
GASTEIGER

@<TRIPOS>ATOM
      1 C           4.9384   -3.2725   21.1778 C.ar    1  UNL1        0.0391
      2 C           6.3715   -3.6427   20.9340 C.ar    1  UNL1        0.0045
      3 C           7.3492   -3.6467   22.0715 C.ar    1  UNL1        0.0147
      4 C           6.8938   -3.2804   23.4531 C.ar    1  UNL1        0.0484
      5 C           5.4609   -2.9102   23.6970 C.ar    1  UNL1        0.0147
      6 C           4.4832   -2.9062   22.5593 C.ar    1  UNL1        0.0045
      7 C           3.9608   -3.2686   20.0402 C.2     1  UNL1        0.1983
      8 O           3.5559   -4.5606   19.3948 O.2     1  UNL1       -0.2865
      9 C           3.9931   -1.2889   18.3580 C.2     1  UNL1        0.1451
     10 C           3.4203    0.0073   17.8659 C.2     1  UNL1        0.0838
     11 C           2.2424    0.6197   18.5641 C.2     1  UNL1        0.2267
     12 N           1.4681    1.8789   18.3094 N.2     1  UNL1       -0.0385
     13 C           0.3844    1.9735   19.3422 C.2     1  UNL1        0.3473
     14 C          -0.6264    3.0754   19.4612 C.3     1  UNL1        0.1363
     15 N           0.4889    0.7727   20.2352 N.2     1  UNL1       -0.0551
     16 C           1.6372   -0.0640   19.7542 C.3     1  UNL1        0.3015
     17 C           2.2100   -1.3600   20.2463 C.2     1  UNL1        0.0410
     18 C           3.3880   -1.9724   19.5481 C.2     1  UNL1        0.0733
     19 C           6.4518   -1.1308   17.5333 C.3     1  UNL1        0.2525
     20 O           5.1711   -1.9013   17.6599 O.2     1  UNL1       -0.4712
     21 N           7.8715   -3.2843   24.5906 N.pl3   1  UNL1       -0.3108
     22 H           8.7503   -2.8532   24.4859 H       1  UNL1        0.1523
     23 C           7.5102   -3.9452   25.8878 C.ar    1  UNL1        0.0763
     24 C           6.9565   -5.3392   25.8907 C.ar    1  UNL1        0.0192
     25 C           6.5952   -6.0000   27.1880 C.ar    1  UNL1        0.0311
     26 C           6.7875   -5.2668   28.4823 C.ar    1  UNL1        0.1425
     27 F           6.4262   -5.9277   29.7795 F       1  UNL1       -0.2041
     28 C           7.3412   -3.8728   28.4795 C.ar    1  UNL1        0.0605
     29 C           7.7025   -3.2120   27.1822 C.ar    1  UNL1        0.1556
     30 F           8.2562   -1.8179   27.1794 F       1  UNL1       -0.2028
@<TRIPOS>BOND
     1    19    20    1
     2    20     9    1
     3     9    10    2
     4    10    11    1
     5    11    12    2
     6    12    13    1
     7    13    14    1
     8    13    15    2
     9    15    16    1
    10    16    17    1
    11    17    18    2
    12    18     7    1
    13     7     8    2
    14     7     1    1
    15     1     2   ar
    16     2     3   ar
    17     3     4   ar
    18     4    21    1
    19    21    23    1
    20    23    24   ar
    21    24    25   ar
    22    25    26   ar
    23    26    27    1
    24    26    28   ar
    25    28    29   ar
    26    29    30    1
    27     4     5   ar
    28     5     6   ar
    29    18     9    1
    30     6     1   ar
    31    16    11    1
    32    29    23   ar
    33    21    22    1
@<TRIPOS>MOLECULE
*****
 30 33 0 0 0
SMALL
GASTEIGER

@<TRIPOS>ATOM
      1 C           0.0853    2.4894   19.8519 C.ar    1  UNL1        0.0391
      2 C           0.5806    1.8672   18.5800 C.ar    1  UNL1        0.0045
      3 C           1.2507    0.5256   18.6127 C.ar    1  UNL1        0.0147
      4 C           1.4257   -0.1937   19.9173 C.ar    1  UNL1        0.0484
      5 C           0.9305    0.4284   21.1891 C.ar    1  UNL1        0.0147
      6 C           0.2603    1.7700   21.1565 C.ar    1  UNL1        0.0045
      7 C          -0.5848    3.8310   19.8193 C.2     1  UNL1        0.1983
      8 O           0.2301    5.0714   19.6022 O.2     1  UNL1       -0.2865
      9 C          -2.9751    3.9468   18.8079 C.2     1  UNL1        0.1451
     10 C          -4.4604    4.0479   18.9924 C.2     1  UNL1        0.0838
     11 C          -5.0404    4.1342   20.3731 C.2     1  UNL1        0.2267
     12 N          -6.4540    4.2417   20.8629 N.2     1  UNL1       -0.0385
     13 C          -6.4226    4.2933   22.3617 C.2     1  UNL1        0.3473
     14 C          -7.6149    4.4015   23.2654 C.3     1  UNL1        0.1363
     15 N          -4.9895    4.2178   22.7981 N.2     1  UNL1       -0.0551
     16 C          -4.1352    4.1195   21.5691 C.3     1  UNL1        0.3015
     17 C          -2.6500    4.0184   21.3845 C.2     1  UNL1        0.0410
     18 C          -2.0701    3.9321   20.0038 C.2     1  UNL1        0.0733
     19 C          -3.1317    4.4587   16.2655 C.3     1  UNL1        0.2525
     20 O          -2.3951    3.8605   17.4272 O.2     1  UNL1       -0.4712
     21 N           2.0959   -1.5353   19.9499 N.pl3   1  UNL1       -0.3108
     22 H           1.5959   -2.3281   20.2511 H       1  UNL1        0.1523
     23 C           3.5278   -1.6689   19.5237 C.ar    1  UNL1        0.0763
     24 C           4.4747   -0.5199   19.7053 C.ar    1  UNL1        0.0192
     25 C           5.9067   -0.6536   19.2790 C.ar    1  UNL1        0.0311
     26 C           6.3917   -1.9363   18.6712 C.ar    1  UNL1        0.1425
     27 F           7.8237   -2.0699   18.2450 F       1  UNL1       -0.2041
     28 C           5.4448   -3.0853   18.4896 C.ar    1  UNL1        0.0605
     29 C           4.0128   -2.9516   18.9159 C.ar    1  UNL1        0.1556
     30 F           3.0659   -4.1007   18.7343 F       1  UNL1       -0.2028
@<TRIPOS>BOND
     1    19    20    1
     2    20     9    1
     3     9    10    2
     4    10    11    1
     5    11    12    2
     6    12    13    1
     7    13    14    1
     8    13    15    2
     9    15    16    1
    10    16    17    1
    11    17    18    2
    12    18     7    1
    13     7     8    2
    14     7     1    1
    15     1     2   ar
    16     2     3   ar
    17     3     4   ar
    18     4    21    1
    19    21    23    1
    20    23    24   ar
    21    24    25   ar
    22    25    26   ar
    23    26    27    1
    24    26    28   ar
    25    28    29   ar
    26    29    30    1
    27     4     5   ar
    28     5     6   ar
    29    18     9    1
    30     6     1   ar
    31    16    11    1
    32    29    23   ar
    33    21    22    1
@<TRIPOS>MOLECULE
*****
 30 33 0 0 0
SMALL
GASTEIGER

@<TRIPOS>ATOM
      1 C           1.7170    2.6241   18.9302 C.ar    1  UNL1        0.0391
      2 C           3.1929    2.7080   18.6753 C.ar    1  UNL1        0.0045
      3 C           3.9331    1.5124   18.1534 C.ar    1  UNL1        0.0147
      4 C           3.1975    0.2327   17.8864 C.ar    1  UNL1        0.0484
      5 C           1.7218    0.1486   18.1412 C.ar    1  UNL1        0.0147
      6 C           0.9815    1.3444   18.6632 C.ar    1  UNL1        0.0045
      7 C           0.9767    3.8197   19.4521 C.2     1  UNL1        0.1983
      8 O           1.6885    5.1298   19.6160 O.2     1  UNL1       -0.2865
      9 C          -0.8788    3.4327   21.2289 C.2     1  UNL1        0.1451
     10 C          -2.3310    3.3181   21.5870 C.2     1  UNL1        0.0838
     11 C          -3.3797    3.4761   20.5262 C.2     1  UNL1        0.2267
     12 N          -4.8776    3.4157   20.5788 N.2     1  UNL1       -0.0385
     13 C          -5.3998    3.6508   19.1925 C.2     1  UNL1        0.3473
     14 C          -6.8437    3.6758   18.7867 C.3     1  UNL1        0.1363
     15 N          -4.2248    3.8565   18.2831 N.2     1  UNL1       -0.0551
     16 C          -2.9762    3.7485   19.1074 C.3     1  UNL1        0.3015
     17 C          -1.5241    3.8631   18.7494 C.2     1  UNL1        0.0410
     18 C          -0.4754    3.7052   19.8102 C.2     1  UNL1        0.0733
     19 C           0.6357    1.9051   22.6859 C.3     1  UNL1        0.2525
     20 O           0.1699    3.2748   22.2898 O.2     1  UNL1       -0.4712
     21 N           3.9378   -0.9630   17.3645 N.pl3   1  UNL1       -0.3108
     22 H           3.8069   -1.2552   16.4335 H       1  UNL1        0.1523
     23 C           4.8774   -1.7135   18.2610 C.ar    1  UNL1        0.0763
     24 C           6.3582   -1.6231   18.0396 C.ar    1  UNL1        0.0192
     25 C           7.2978   -2.3736   18.9362 C.ar    1  UNL1        0.0311
     26 C           6.7566   -3.2146   20.0542 C.ar    1  UNL1        0.1425
     27 F           7.6963   -3.9651   20.9508 F       1  UNL1       -0.2041
     28 C           5.2758   -3.3050   20.2757 C.ar    1  UNL1        0.0605
     29 C           4.3362   -2.5544   19.3790 C.ar    1  UNL1        0.1556
     30 F           2.8555   -2.6449   19.6005 F       1  UNL1       -0.2028
@<TRIPOS>BOND
     1    19    20    1
     2    20     9    1
     3     9    10    2
     4    10    11    1
     5    11    12    2
     6    12    13    1
     7    13    14    1
     8    13    15    2
     9    15    16    1
    10    16    17    1
    11    17    18    2
    12    18     7    1
    13     7     8    2
    14     7     1    1
    15     1     2   ar
    16     2     3   ar
    17     3     4   ar
    18     4    21    1
    19    21    23    1
    20    23    24   ar
    21    24    25   ar
    22    25    26   ar
    23    26    27    1
    24    26    28   ar
    25    28    29   ar
    26    29    30    1
    27     4     5   ar
    28     5     6   ar
    29    18     9    1
    30     6     1   ar
    31    16    11    1
    32    29    23   ar
    33    21    22    1
@<TRIPOS>MOLECULE
*****
 30 33 0 0 0
SMALL
GASTEIGER

@<TRIPOS>ATOM
      1 C           1.9174    1.2669   23.7800 C.ar    1  UNL1        0.0391
      2 C           2.7344    0.0090   23.7980 C.ar    1  UNL1        0.0045
      3 C           2.8159   -0.8501   22.5711 C.ar    1  UNL1        0.0147
      4 C           2.0802   -0.4513   21.3261 C.ar    1  UNL1        0.0484
      5 C           1.2633    0.8065   21.3081 C.ar    1  UNL1        0.0147
      6 C           1.1818    1.6656   22.5350 C.ar    1  UNL1        0.0045
      7 C           1.8359    2.1260   25.0069 C.2     1  UNL1        0.1983
      8 O           1.8639    3.6203   24.8794 O.2     1  UNL1       -0.2865
      9 C           0.3768    1.2500   26.9699 C.2     1  UNL1        0.1451
     10 C           0.2673    0.6147   28.3244 C.2     1  UNL1        0.0838
     11 C           1.5075    0.2202   29.0702 C.2     1  UNL1        0.2267
     12 N           1.7113   -0.4196   30.4115 N.2     1  UNL1       -0.0385
     13 C           3.1869   -0.5742   30.6318 C.2     1  UNL1        0.3473
     14 C           3.8398   -1.1687   31.8444 C.3     1  UNL1        0.1363
     15 N           3.8951   -0.0300   29.4267 N.2     1  UNL1       -0.0551
     16 C           2.8572    0.4610   28.4616 C.3     1  UNL1        0.3015
     17 C           2.9666    1.0963   27.1071 C.2     1  UNL1        0.0410
     18 C           1.7264    1.4908   26.3614 C.2     1  UNL1        0.0733
     19 C          -1.5417    2.9465   26.5320 C.3     1  UNL1        0.2525
     20 O          -0.8635    1.6445   26.2241 O.2     1  UNL1       -0.4712
     21 N           2.1617   -1.3104   20.0992 N.pl3   1  UNL1       -0.3108
     22 H           1.3398   -1.6745   19.6978 H       1  UNL1        0.1523
     23 C           3.4955   -1.6148   19.4840 C.ar    1  UNL1        0.0763
     24 C           4.4917   -0.5140   19.2705 C.ar    1  UNL1        0.0192
     25 C           5.8254   -0.8185   18.6552 C.ar    1  UNL1        0.0311
     26 C           6.1629   -2.2237   18.2535 C.ar    1  UNL1        0.1425
     27 F           7.4966   -2.5281   17.6383 F       1  UNL1       -0.2041
     28 C           5.1667   -3.3245   18.4670 C.ar    1  UNL1        0.0605
     29 C           3.8329   -3.0200   19.0823 C.ar    1  UNL1        0.1556
     30 F           2.8367   -4.1209   19.2958 F       1  UNL1       -0.2028
@<TRIPOS>BOND
     1    19    20    1
     2    20     9    1
     3     9    10    2
     4    10    11    1
     5    11    12    2
     6    12    13    1
     7    13    14    1
     8    13    15    2
     9    15    16    1
    10    16    17    1
    11    17    18    2
    12    18     7    1
    13     7     8    2
    14     7     1    1
    15     1     2   ar
    16     2     3   ar
    17     3     4   ar
    18     4    21    1
    19    21    23    1
    20    23    24   ar
    21    24    25   ar
    22    25    26   ar
    23    26    27    1
    24    26    28   ar
    25    28    29   ar
    26    29    30    1
    27     4     5   ar
    28     5     6   ar
    29    18     9    1
    30     6     1   ar
    31    16    11    1
    32    29    23   ar
    33    21    22    1
