@<TRIPOS>MOLECULE
*****
 22 24 0 0 0
SMALL
GASTEIGER

@<TRIPOS>ATOM
      1 N          -7.6945  -18.0844   22.7229 N.3     1  UNL1       -0.2700
      2 C          -6.3717  -18.4486   22.1167 C.3     1  UNL1        0.0628
      3 C          -6.3185  -19.0861   20.7599 C.3     1  UNL1        0.0481
      4 C          -4.9957  -19.4502   20.1537 C.3     1  UNL1        0.1435
      5 O          -3.7260  -19.1770   20.9042 O.3     1  UNL1       -0.3537
      6 C          -3.7792  -18.5395   22.2609 C.3     1  UNL1        0.1435
      7 C          -5.1020  -18.1753   22.8672 C.3     1  UNL1        0.0481
      8 C          -7.8504  -16.7867   23.4590 C.3     1  UNL1        0.0748
      9 C          -8.3686  -16.6228   24.8570 C.3     1  UNL1        0.0344
     10 C          -8.3539  -15.1599   25.1883 C.3     1  UNL1        0.0700
     11 N          -7.8266  -14.4197   23.9949 N.3     1  UNL1       -0.2963
     12 C          -7.5154  -15.4251   22.9262 C.3     1  UNL1        0.0847
     13 H          -6.9796  -13.9115   24.2493 H       1  UNL1        0.1233
     14 C          -8.8614  -19.0179   22.5931 C.3     1  UNL1        0.0988
     15 C         -13.7849  -18.0091   23.9130 C.3     1  UNL1        0.0307
     16 C         -12.6783  -17.9755   22.9008 C.ar    1  UNL1       -0.0260
     17 C         -12.9270  -17.4040   21.5365 C.ar    1  UNL1       -0.0046
     18 C         -11.8205  -17.3704   20.5243 C.ar    1  UNL1       -0.0006
     19 C         -10.4653  -17.9084   20.8765 C.ar    1  UNL1       -0.0032
     20 C         -10.2167  -18.4799   22.2409 C.ar    1  UNL1       -0.0104
     21 C         -11.3232  -18.5135   23.2530 C.ar    1  UNL1       -0.0284
     22 C         -11.0745  -19.0851   24.6174 C.3     1  UNL1        0.0304
@<TRIPOS>BOND
     1    15    16    1
     2    16    17   ar
     3    17    18   ar
     4    18    19   ar
     5    19    20   ar
     6    20    14    1
     7    14     1    1
     8     1     2    1
     9     2     3    1
    10     3     4    1
    11     4     5    1
    12     5     6    1
    13     6     7    1
    14     8     1    1
    15     8     9    1
    16     9    10    1
    17    10    11    1
    18    11    12    1
    19    20    21   ar
    20    21    22    1
    21    21    16   ar
    22     7     2    1
    23    12     8    1
    24    11    13    1
@<TRIPOS>MOLECULE
*****
 22 24 0 0 0
SMALL
GASTEIGER

@<TRIPOS>ATOM
      1 N          -7.3096  -17.9859   22.0272 N.3     1  UNL1       -0.2700
      2 C          -8.5889  -18.7668   22.0864 C.3     1  UNL1        0.0628
      3 C          -8.9539  -19.5150   23.3342 C.3     1  UNL1        0.0481
      4 C         -10.2332  -20.2959   23.3934 C.3     1  UNL1        0.1435
      5 O         -11.1476  -20.3287   22.2047 O.3     1  UNL1       -0.3537
      6 C         -10.7827  -19.5805   20.9569 C.3     1  UNL1        0.1435
      7 C          -9.5033  -18.7996   20.8977 C.3     1  UNL1        0.0481
      8 C          -6.0421  -18.6553   21.5853 C.3     1  UNL1        0.0748
      9 C          -4.8338  -18.9061   22.4380 C.3     1  UNL1        0.0344
     10 C          -3.8053  -19.5972   21.5927 C.3     1  UNL1        0.0700
     11 N          -4.3779  -19.7735   20.2175 N.3     1  UNL1       -0.2963
     12 C          -5.7603  -19.1914   20.2129 C.3     1  UNL1        0.0847
     13 H          -4.4193  -20.7657   19.9844 H       1  UNL1        0.1233
     14 C          -7.2978  -16.5357   22.4100 C.3     1  UNL1        0.0988
     15 C          -8.5008  -15.3461   27.3231 C.3     1  UNL1        0.0307
     16 C          -7.4738  -15.5327   26.2458 C.ar    1  UNL1       -0.0260
     17 C          -6.0214  -15.3112   26.5478 C.ar    1  UNL1       -0.0046
     18 C          -4.9944  -15.4978   25.4706 C.ar    1  UNL1       -0.0006
     19 C          -5.4198  -15.9060   24.0913 C.ar    1  UNL1       -0.0032
     20 C          -6.8723  -16.1275   23.7893 C.ar    1  UNL1       -0.0104
     21 C          -7.8993  -15.9408   24.8666 C.ar    1  UNL1       -0.0284
     22 C          -9.3518  -16.1624   24.5645 C.3     1  UNL1        0.0304
@<TRIPOS>BOND
     1    15    16    1
     2    16    17   ar
     3    17    18   ar
     4    18    19   ar
     5    19    20   ar
     6    20    14    1
     7    14     1    1
     8     1     2    1
     9     2     3    1
    10     3     4    1
    11     4     5    1
    12     5     6    1
    13     6     7    1
    14     8     1    1
    15     8     9    1
    16     9    10    1
    17    10    11    1
    18    11    12    1
    19    20    21   ar
    20    21    22    1
    21    21    16   ar
    22     7     2    1
    23    12     8    1
    24    11    13    1
@<TRIPOS>MOLECULE
*****
 22 24 0 0 0
SMALL
GASTEIGER

@<TRIPOS>ATOM
      1 N          -7.0394  -18.5096   22.2887 N.3     1  UNL1       -0.2700
      2 C          -5.6936  -18.8833   21.7417 C.3     1  UNL1        0.0628
      3 C          -4.4928  -18.8855   22.6408 C.3     1  UNL1        0.0481
      4 C          -3.1471  -19.2592   22.0939 C.3     1  UNL1        0.1435
      5 O          -3.0019  -19.6306   20.6479 O.3     1  UNL1       -0.3537
      6 C          -4.2026  -19.6283   19.7488 C.3     1  UNL1        0.1435
      7 C          -5.5484  -19.2547   20.2957 C.3     1  UNL1        0.0481
      8 C          -7.2888  -17.1138   22.7783 C.3     1  UNL1        0.0748
      9 C          -6.8417  -16.5477   24.0935 C.3     1  UNL1        0.0344
     10 C          -7.3057  -15.1232   24.1667 C.3     1  UNL1        0.0700
     11 N          -8.0396  -14.8088   22.8968 N.3     1  UNL1       -0.2963
     12 C          -8.0291  -16.0391   22.0387 C.3     1  UNL1        0.0847
     13 H          -7.5751  -14.0428   22.4091 H       1  UNL1        0.1233
     14 C          -8.1358  -19.5317   22.3460 C.3     1  UNL1        0.0988
     15 C         -12.9381  -17.7484   21.4754 C.3     1  UNL1        0.0307
     16 C         -11.8933  -18.2569   22.4240 C.ar    1  UNL1       -0.0260
     17 C         -12.2049  -18.3822   23.8859 C.ar    1  UNL1       -0.0046
     18 C         -11.1601  -18.8907   24.8345 C.ar    1  UNL1       -0.0006
     19 C          -9.8037  -19.2738   24.3212 C.ar    1  UNL1       -0.0032
     20 C          -9.4922  -19.1485   22.8593 C.ar    1  UNL1       -0.0104
     21 C         -10.5370  -18.6400   21.9107 C.ar    1  UNL1       -0.0284
     22 C         -10.2253  -18.5147   20.4487 C.3     1  UNL1        0.0304
@<TRIPOS>BOND
     1    15    16    1
     2    16    17   ar
     3    17    18   ar
     4    18    19   ar
     5    19    20   ar
     6    20    14    1
     7    14     1    1
     8     1     2    1
     9     2     3    1
    10     3     4    1
    11     4     5    1
    12     5     6    1
    13     6     7    1
    14     8     1    1
    15     8     9    1
    16     9    10    1
    17    10    11    1
    18    11    12    1
    19    20    21   ar
    20    21    22    1
    21    21    16   ar
    22     7     2    1
    23    12     8    1
    24    11    13    1
@<TRIPOS>MOLECULE
*****
 22 24 0 0 0
SMALL
GASTEIGER

@<TRIPOS>ATOM
      1 N          -8.3757  -17.6638   22.5686 N.3     1  UNL1       -0.2700
      2 C          -9.4943  -17.5575   21.5749 C.3     1  UNL1        0.0628
      3 C         -10.3472  -16.3241   21.5348 C.3     1  UNL1        0.0481
      4 C         -11.4657  -16.2178   20.5411 C.3     1  UNL1        0.1435
      5 O         -11.7314  -17.3447   19.5874 O.3     1  UNL1       -0.3537
      6 C         -10.8786  -18.5780   19.6275 C.3     1  UNL1        0.1435
      7 C          -9.7600  -18.6844   20.6213 C.3     1  UNL1        0.0481
      8 C          -8.1097  -16.5366   23.5219 C.3     1  UNL1        0.0748
      9 C          -8.5492  -16.4711   24.9546 C.3     1  UNL1        0.0344
     10 C          -8.0686  -15.1711   25.5280 C.3     1  UNL1        0.0700
     11 N          -7.3320  -14.4330   24.4497 N.3     1  UNL1       -0.2963
     12 C          -7.3574  -15.2770   23.2099 C.3     1  UNL1        0.0847
     13 H          -6.3672  -14.2708   24.7383 H       1  UNL1        0.1233
     14 C          -7.5232  -18.8973   22.6091 C.3     1  UNL1        0.0988
     15 C          -3.6117  -20.2171   19.4535 C.3     1  UNL1        0.0307
     16 C          -4.1168  -19.4789   20.6575 C.ar    1  UNL1       -0.0260
     17 C          -3.1715  -18.6624   21.4879 C.ar    1  UNL1       -0.0046
     18 C          -3.6766  -17.9242   22.6920 C.ar    1  UNL1       -0.0006
     19 C          -5.1272  -18.0025   23.0657 C.ar    1  UNL1       -0.0032
     20 C          -6.0726  -18.8190   22.2354 C.ar    1  UNL1       -0.0104
     21 C          -5.5674  -19.5572   21.0313 C.ar    1  UNL1       -0.0284
     22 C          -6.5129  -20.3738   20.2009 C.3     1  UNL1        0.0304
@<TRIPOS>BOND
     1    15    16    1
     2    16    17   ar
     3    17    18   ar
     4    18    19   ar
     5    19    20   ar
     6    20    14    1
     7    14     1    1
     8     1     2    1
     9     2     3    1
    10     3     4    1
    11     4     5    1
    12     5     6    1
    13     6     7    1
    14     8     1    1
    15     8     9    1
    16     9    10    1
    17    10    11    1
    18    11    12    1
    19    20    21   ar
    20    21    22    1
    21    21    16   ar
    22     7     2    1
    23    12     8    1
    24    11    13    1
@<TRIPOS>MOLECULE
*****
 22 24 0 0 0
SMALL
GASTEIGER

@<TRIPOS>ATOM
      1 N          -6.6216  -18.5125   22.4445 N.3     1  UNL1       -0.2700
      2 C          -5.3709  -18.9584   21.7467 C.3     1  UNL1        0.0628
      3 C          -4.1383  -19.2700   22.5427 C.3     1  UNL1        0.0481
      4 C          -2.8877  -19.7160   21.8450 C.3     1  UNL1        0.1435
      5 O          -2.8696  -19.8504   20.3511 O.3     1  UNL1       -0.3537
      6 C          -4.1021  -19.5388   19.5550 C.3     1  UNL1        0.1435
      7 C          -5.3528  -19.0929   20.2528 C.3     1  UNL1        0.0481
      8 C          -6.7257  -17.1137   22.9762 C.3     1  UNL1        0.0748
      9 C          -7.9073  -16.2011   22.8314 C.3     1  UNL1        0.0344
     10 C          -7.5783  -14.9054   23.5118 C.3     1  UNL1        0.0700
     11 N          -6.1934  -15.0172   24.0771 N.3     1  UNL1       -0.2963
     12 C          -5.6665  -16.3820   23.7460 C.3     1  UNL1        0.0847
     13 H          -6.2215  -14.8931   25.0891 H       1  UNL1        0.1233
     14 C          -7.7682  -19.4652   22.6106 C.3     1  UNL1        0.0988
     15 C         -12.7148  -18.1234   23.4650 C.3     1  UNL1        0.0307
     16 C         -11.5990  -18.4332   22.5117 C.ar    1  UNL1       -0.0260
     17 C         -11.8406  -18.3818   21.0322 C.ar    1  UNL1       -0.0046
     18 C         -10.7248  -18.6915   20.0788 C.ar    1  UNL1       -0.0006
     19 C          -9.3673  -19.0527   20.6049 C.ar    1  UNL1       -0.0032
     20 C          -9.1257  -19.1041   22.0844 C.ar    1  UNL1       -0.0104
     21 C         -10.2415  -18.7943   23.0378 C.ar    1  UNL1       -0.0284
     22 C          -9.9999  -18.8457   24.5173 C.3     1  UNL1        0.0304
@<TRIPOS>BOND
     1    15    16    1
     2    16    17   ar
     3    17    18   ar
     4    18    19   ar
     5    19    20   ar
     6    20    14    1
     7    14     1    1
     8     1     2    1
     9     2     3    1
    10     3     4    1
    11     4     5    1
    12     5     6    1
    13     6     7    1
    14     8     1    1
    15     8     9    1
    16     9    10    1
    17    10    11    1
    18    11    12    1
    19    20    21   ar
    20    21    22    1
    21    21    16   ar
    22     7     2    1
    23    12     8    1
    24    11    13    1
@<TRIPOS>MOLECULE
*****
 22 24 0 0 0
SMALL
GASTEIGER

@<TRIPOS>ATOM
      1 N          -8.3696  -17.1157   21.8533 N.3     1  UNL1       -0.2700
      2 C          -9.8569  -17.2771   21.7442 C.3     1  UNL1        0.0628
      3 C         -10.5284  -18.4718   22.3540 C.3     1  UNL1        0.0481
      4 C         -12.0157  -18.6332   22.2450 C.3     1  UNL1        0.1435
      5 O         -12.8315  -17.5999   21.5261 O.3     1  UNL1       -0.3537
      6 C         -12.1600  -16.4053   20.9163 C.3     1  UNL1        0.1435
      7 C         -10.6727  -16.2438   21.0253 C.3     1  UNL1        0.0481
      8 C          -7.4640  -18.2635   21.5176 C.3     1  UNL1        0.0748
      9 C          -7.5772  -19.1537   20.3157 C.3     1  UNL1        0.0344
     10 C          -6.4694  -20.1629   20.3803 C.3     1  UNL1        0.0700
     11 N          -5.6715  -19.8965   21.6222 N.3     1  UNL1       -0.2963
     12 C          -6.2862  -18.7226   22.3251 C.3     1  UNL1        0.0847
     13 H          -4.7052  -19.6842   21.3740 H       1  UNL1        0.1233
     14 C          -7.7878  -15.8066   22.2979 C.3     1  UNL1        0.0988
     15 C          -8.2997  -15.5563   27.4628 C.3     1  UNL1        0.0307
     16 C          -7.4275  -15.5587   26.2424 C.ar    1  UNL1       -0.0260
     17 C          -5.9391  -15.4382   26.3841 C.ar    1  UNL1       -0.0046
     18 C          -5.0669  -15.4405   25.1637 C.ar    1  UNL1       -0.0006
     19 C          -5.6832  -15.5633   23.8017 C.ar    1  UNL1       -0.0032
     20 C          -7.1715  -15.6838   23.6600 C.ar    1  UNL1       -0.0104
     21 C          -8.0437  -15.6815   24.8804 C.ar    1  UNL1       -0.0284
     22 C          -9.5322  -15.8019   24.7387 C.3     1  UNL1        0.0304
@<TRIPOS>BOND
     1    15    16    1
     2    16    17   ar
     3    17    18   ar
     4    18    19   ar
     5    19    20   ar
     6    20    14    1
     7    14     1    1
     8     1     2    1
     9     2     3    1
    10     3     4    1
    11     4     5    1
    12     5     6    1
    13     6     7    1
    14     8     1    1
    15     8     9    1
    16     9    10    1
    17    10    11    1
    18    11    12    1
    19    20    21   ar
    20    21    22    1
    21    21    16   ar
    22     7     2    1
    23    12     8    1
    24    11    13    1
@<TRIPOS>MOLECULE
*****
 22 24 0 0 0
SMALL
GASTEIGER

@<TRIPOS>ATOM
      1 N          -7.4195  -18.4634   22.6167 N.3     1  UNL1       -0.2700
      2 C          -7.2040  -17.1684   23.3421 C.3     1  UNL1        0.0628
      3 C          -5.8237  -16.5916   23.4532 C.3     1  UNL1        0.0481
      4 C          -5.6081  -15.2966   24.1787 C.3     1  UNL1        0.1435
      5 O          -6.7728  -14.5782   24.7930 O.3     1  UNL1       -0.3537
      6 C          -8.1530  -15.1548   24.6819 C.3     1  UNL1        0.1435
      7 C          -8.3686  -16.4499   23.9565 C.3     1  UNL1        0.0481
      8 C          -6.3715  -18.9794   21.6756 C.3     1  UNL1        0.0748
      9 C          -5.0731  -19.6200   22.0675 C.3     1  UNL1        0.0344
     10 C          -4.3371  -19.9819   20.8116 C.3     1  UNL1        0.0700
     11 N          -5.1807  -19.5650   19.6434 N.3     1  UNL1       -0.2963
     12 C          -6.4381  -18.9455   20.1775 C.3     1  UNL1        0.0847
     13 H          -5.4109  -20.3797   19.0744 H       1  UNL1        0.1233
     14 C          -8.6831  -19.2425   22.8322 C.3     1  UNL1        0.0988
     15 C         -13.6402  -17.9469   23.6975 C.3     1  UNL1        0.0307
     16 C         -12.4695  -18.0555   22.7660 C.ar    1  UNL1       -0.0260
     17 C         -12.6067  -17.6250   21.3357 C.ar    1  UNL1       -0.0046
     18 C         -11.4360  -17.7337   20.4042 C.ar    1  UNL1       -0.0006
     19 C         -10.1281  -18.2728   20.9030 C.ar    1  UNL1       -0.0032
     20 C          -9.9910  -18.7033   22.3333 C.ar    1  UNL1       -0.0104
     21 C         -11.1617  -18.5947   23.2648 C.ar    1  UNL1       -0.0284
     22 C         -11.0245  -19.0252   24.6952 C.3     1  UNL1        0.0304
@<TRIPOS>BOND
     1    15    16    1
     2    16    17   ar
     3    17    18   ar
     4    18    19   ar
     5    19    20   ar
     6    20    14    1
     7    14     1    1
     8     1     2    1
     9     2     3    1
    10     3     4    1
    11     4     5    1
    12     5     6    1
    13     6     7    1
    14     8     1    1
    15     8     9    1
    16     9    10    1
    17    10    11    1
    18    11    12    1
    19    20    21   ar
    20    21    22    1
    21    21    16   ar
    22     7     2    1
    23    12     8    1
    24    11    13    1
@<TRIPOS>MOLECULE
*****
 22 24 0 0 0
SMALL
GASTEIGER

@<TRIPOS>ATOM
      1 N          -5.4762  -18.7003   22.1711 N.3     1  UNL1       -0.2700
      2 C          -5.7538  -17.4223   22.9056 C.3     1  UNL1        0.0628
      3 C          -7.1091  -16.7855   22.8170 C.3     1  UNL1        0.0481
      4 C          -7.3868  -15.5075   23.5515 C.3     1  UNL1        0.1435
      5 O          -6.3093  -14.8662   24.3747 O.3     1  UNL1       -0.3537
      6 C          -4.9540  -15.5030   24.4634 C.3     1  UNL1        0.1435
      7 C          -4.6763  -16.7810   23.7288 C.3     1  UNL1        0.0481
      8 C          -4.1804  -18.8767   21.4362 C.3     1  UNL1        0.0748
      9 C          -3.9661  -18.6730   19.9656 C.3     1  UNL1        0.0344
     10 C          -2.5248  -18.9582   19.6634 C.3     1  UNL1        0.0700
     11 N          -1.8483  -19.3381   20.9472 N.3     1  UNL1       -0.2963
     12 C          -2.8716  -19.2877   22.0428 C.3     1  UNL1        0.0847
     13 H          -1.0935  -18.6820   21.1481 H       1  UNL1        0.1233
     14 C          -6.4942  -19.8020   22.1715 C.3     1  UNL1        0.0988
     15 C         -11.6512  -19.4517   21.6400 C.3     1  UNL1        0.0307
     16 C         -10.2844  -19.5286   21.0270 C.ar    1  UNL1       -0.0260
     17 C         -10.1292  -19.5074   19.5352 C.ar    1  UNL1       -0.0046
     18 C          -8.7623  -19.5843   18.9222 C.ar    1  UNL1       -0.0006
     19 C          -7.5507  -19.6825   19.8009 C.ar    1  UNL1       -0.0032
     20 C          -7.7059  -19.7038   21.2927 C.ar    1  UNL1       -0.0104
     21 C          -9.0727  -19.6268   21.9057 C.ar    1  UNL1       -0.0284
     22 C          -9.2279  -19.6481   23.3976 C.3     1  UNL1        0.0304
@<TRIPOS>BOND
     1    15    16    1
     2    16    17   ar
     3    17    18   ar
     4    18    19   ar
     5    19    20   ar
     6    20    14    1
     7    14     1    1
     8     1     2    1
     9     2     3    1
    10     3     4    1
    11     4     5    1
    12     5     6    1
    13     6     7    1
    14     8     1    1
    15     8     9    1
    16     9    10    1
    17    10    11    1
    18    11    12    1
    19    20    21   ar
    20    21    22    1
    21    21    16   ar
    22     7     2    1
    23    12     8    1
    24    11    13    1
@<TRIPOS>MOLECULE
*****
 22 24 0 0 0
SMALL
GASTEIGER

@<TRIPOS>ATOM
      1 N          -8.3442  -16.6243   23.8662 N.3     1  UNL1       -0.2700
      2 C          -9.7121  -17.2385   23.8276 C.3     1  UNL1        0.0628
      3 C         -10.8117  -16.5727   23.0544 C.3     1  UNL1        0.0481
      4 C         -12.1796  -17.1869   23.0158 C.3     1  UNL1        0.1435
      5 O         -12.4481  -18.4669   23.7504 O.3     1  UNL1       -0.3537
      6 C         -11.3486  -19.1327   24.5236 C.3     1  UNL1        0.1435
      7 C          -9.9806  -18.5185   24.5622 C.3     1  UNL1        0.0481
      8 C          -7.8260  -16.0268   25.1408 C.3     1  UNL1        0.0748
      9 C          -8.4441  -16.1755   26.4995 C.3     1  UNL1        0.0344
     10 C          -7.5988  -15.4163   27.4788 C.3     1  UNL1        0.0700
     11 N          -6.4583  -14.7984   26.7255 N.3     1  UNL1       -0.2963
     12 C          -6.5987  -15.1758   25.2805 C.3     1  UNL1        0.0847
     13 H          -5.5724  -15.1486   27.0902 H       1  UNL1        0.1233
     14 C          -7.4944  -16.6076   22.6303 C.3     1  UNL1        0.0988
     15 C          -5.9746  -21.0735   20.4517 C.3     1  UNL1        0.0307
     16 C          -5.6885  -19.8959   21.3357 C.ar    1  UNL1       -0.0260
     17 C          -4.3565  -19.7737   22.0144 C.ar    1  UNL1       -0.0046
     18 C          -4.0704  -18.5961   22.8984 C.ar    1  UNL1       -0.0006
     19 C          -5.1164  -17.5408   23.1037 C.ar    1  UNL1       -0.0032
     20 C          -6.4484  -17.6630   22.4250 C.ar    1  UNL1       -0.0104
     21 C          -6.7344  -18.8406   21.5410 C.ar    1  UNL1       -0.0284
     22 C          -8.0666  -18.9628   20.8622 C.3     1  UNL1        0.0304
@<TRIPOS>BOND
     1    15    16    1
     2    16    17   ar
     3    17    18   ar
     4    18    19   ar
     5    19    20   ar
     6    20    14    1
     7    14     1    1
     8     1     2    1
     9     2     3    1
    10     3     4    1
    11     4     5    1
    12     5     6    1
    13     6     7    1
    14     8     1    1
    15     8     9    1
    16     9    10    1
    17    10    11    1
    18    11    12    1
    19    20    21   ar
    20    21    22    1
    21    21    16   ar
    22     7     2    1
    23    12     8    1
    24    11    13    1
