@<TRIPOS>MOLECULE
*****
 40 43 0 0 0
SMALL
GASTEIGER

@<TRIPOS>ATOM
      1 C           4.5105   -1.8526   19.4472 C.ar    1  UNL1        0.1368
      2 C           5.6656   -2.1000   20.3717 C.ar    1  UNL1        0.0691
      3 C           6.2163   -3.4862   20.5295 C.ar    1  UNL1        0.1432
      4 N           5.6120   -4.6251   19.7629 N.ar    1  UNL1       -0.2085
      5 C           4.4569   -4.3778   18.8385 C.ar    1  UNL1        0.2012
      6 N           3.9061   -2.9915   18.6806 N.ar    1  UNL1       -0.2088
      7 N           7.3715   -3.7336   21.4539 N.am    1  UNL1       -0.2261
      8 C           8.7680   -3.4092   21.0127 C.3     1  UNL1        0.1231
      9 C           7.1301   -4.3055   22.8194 C.2     1  UNL1        0.3126
     10 O           5.7337   -4.6299   23.2606 O.2     1  UNL1       -0.2519
     11 N           8.2853   -4.5529   23.7438 N.am    1  UNL1       -0.2663
     12 H           9.2018   -4.3399   23.4542 H       1  UNL1        0.1565
     13 C           8.0440   -5.1247   25.1094 C.ar    1  UNL1        0.0788
     14 C           7.8513   -4.2098   26.2823 C.ar    1  UNL1        0.1060
     15 CL          7.9000   -2.7230   26.0897 Cl      1  UNL1       -0.0777
     16 C           7.6100   -4.7817   27.6478 C.ar    1  UNL1        0.1535
     17 C           7.5614   -6.2685   27.8404 C.ar    1  UNL1        0.0756
     18 C           7.7540   -7.1834   26.6675 C.ar    1  UNL1        0.1535
     19 C           7.9953   -6.6115   25.3020 C.ar    1  UNL1        0.1060
     20 CL          8.1879   -7.5264   24.1290 Cl      1  UNL1       -0.0777
     21 O           7.4174   -3.8668   28.8209 O.3     1  UNL1       -0.4704
     22 C           6.7950   -4.3862   30.0829 C.3     1  UNL1        0.2525
     23 O           7.7053   -8.6702   26.8601 O.3     1  UNL1       -0.4704
     24 C           8.7855   -9.3614   27.6381 C.3     1  UNL1        0.2525
     25 N           3.9597   -0.4663   19.2894 N.pl3   1  UNL1       -0.2978
     26 H           4.1963    0.0703   18.4986 H       1  UNL1        0.1536
     27 C           1.2264    1.2400   22.4307 C.ar    1  UNL1       -0.0223
     28 C           0.6541    0.4792   21.2716 C.ar    1  UNL1       -0.0030
     29 C           1.5652   -0.0896   20.2245 C.ar    1  UNL1        0.0143
     30 C           3.0486    0.1025   20.3365 C.ar    1  UNL1        0.0493
     31 C           3.6209    0.8633   21.4956 C.ar    1  UNL1        0.0143
     32 C           2.7098    1.4321   22.5427 C.ar    1  UNL1       -0.0030
     33 N          -1.5069    2.9463   25.5719 N.3     1  UNL1       -0.2727
     34 C          -1.5110    3.5161   24.1844 C.3     1  UNL1        0.0724
     35 C          -0.5999    2.9474   23.1373 C.3     1  UNL1        0.0217
     36 C           0.3153    1.8088   23.4777 C.3     1  UNL1        0.0251
     37 C           0.3194    1.2390   24.8653 C.3     1  UNL1        0.0217
     38 C          -0.5917    1.8077   25.9123 C.3     1  UNL1        0.0724
     39 C          -3.8133    3.9283   26.2549 C.3     1  UNL1        0.0188
     40 C          -2.4180    3.5151   26.6190 C.3     1  UNL1        0.0721
@<TRIPOS>BOND
     1    39    40    1
     2    40    33    1
     3    33    34    1
     4    34    35    1
     5    35    36    1
     6    36    27    1
     7    27    28   ar
     8    28    29   ar
     9    29    30   ar
    10    30    25    1
    11    25     1    1
    12     1     2   ar
    13     2     3   ar
    14     3     7    1
    15     7     8    1
    16     7     9   am
    17     9    10    2
    18     9    11   am
    19    11    13    1
    20    13    14   ar
    21    14    15    1
    22    14    16   ar
    23    16    21    1
    24    21    22    1
    25    16    17   ar
    26    17    18   ar
    27    18    23    1
    28    23    24    1
    29    18    19   ar
    30    19    20    1
    31     3     4   ar
    32     4     5   ar
    33     5     6   ar
    34    30    31   ar
    35    31    32   ar
    36    36    37    1
    37    37    38    1
    38    38    33    1
    39    32    27   ar
    40     6     1   ar
    41    19    13   ar
    42    25    26    1
    43    11    12    1
@<TRIPOS>MOLECULE
*****
 40 43 0 0 0
SMALL
GASTEIGER

@<TRIPOS>ATOM
      1 C           5.4724   -1.5057   18.6219 C.ar    1  UNL1        0.1368
      2 C           6.4592   -1.7549   19.7238 C.ar    1  UNL1        0.0691
      3 C           6.6312   -3.1382   20.2779 C.ar    1  UNL1        0.1432
      4 N           5.8164   -4.2722   19.7300 N.ar    1  UNL1       -0.2085
      5 C           4.8297   -4.0230   18.6282 C.ar    1  UNL1        0.2012
      6 N           4.6576   -2.6397   18.0741 N.ar    1  UNL1       -0.2088
      7 N           7.6180   -3.3874   21.3798 N.am    1  UNL1       -0.2261
      8 C           9.0527   -2.9854   21.2068 C.3     1  UNL1        0.1231
      9 C           7.1701   -4.0386   22.6546 C.2     1  UNL1        0.3126
     10 O           5.7353   -4.4406   22.8276 O.2     1  UNL1       -0.2519
     11 N           8.1569   -4.2878   23.7564 N.am    1  UNL1       -0.2663
     12 H           9.0985   -4.0240   23.6429 H       1  UNL1        0.1565
     13 C           7.7089   -4.9390   25.0314 C.ar    1  UNL1        0.0788
     14 C           7.2082   -4.0976   26.1677 C.ar    1  UNL1        0.1060
     15 CL          7.1554   -2.6049   26.0291 Cl      1  UNL1       -0.0777
     16 C           6.7603   -4.7488   27.4425 C.ar    1  UNL1        0.1535
     17 C           6.8131   -6.2415   27.5810 C.ar    1  UNL1        0.0756
     18 C           7.3138   -7.0829   26.4447 C.ar    1  UNL1        0.1535
     19 C           7.7617   -6.4317   25.1699 C.ar    1  UNL1        0.1060
     20 CL          8.2625   -7.2731   24.0335 Cl      1  UNL1       -0.0777
     21 O           6.2596   -3.9074   28.5789 O.3     1  UNL1       -0.4704
     22 C           6.9732   -3.9273   29.8981 C.3     1  UNL1        0.2525
     23 O           7.3667   -8.5756   26.5833 O.3     1  UNL1       -0.4704
     24 C           8.2938   -9.2039   27.5810 C.3     1  UNL1        0.2525
     25 N           5.3004   -0.1224   18.0678 N.pl3   1  UNL1       -0.2978
     26 H           6.0430    0.3121   17.5894 H       1  UNL1        0.1536
     27 C           1.3897    2.0413   18.5924 C.ar    1  UNL1       -0.0223
     28 C           1.4017    0.5594   18.3609 C.ar    1  UNL1       -0.0030
     29 C           2.7053   -0.1619   18.1861 C.ar    1  UNL1        0.0143
     30 C           3.9968    0.5988   18.2427 C.ar    1  UNL1        0.0493
     31 C           3.9848    2.0808   18.4742 C.ar    1  UNL1        0.0143
     32 C           2.6813    2.8020   18.6491 C.ar    1  UNL1       -0.0030
     33 N          -2.5209    4.2051   19.1170 N.3     1  UNL1       -0.2727
     34 C          -1.8906    3.5018   20.2824 C.3     1  UNL1        0.0724
     35 C          -0.5871    2.7806   20.1076 C.3     1  UNL1        0.0217
     36 C           0.0862    2.7626   18.7673 C.3     1  UNL1        0.0251
     37 C          -0.5441    3.4658   17.6019 C.3     1  UNL1        0.0217
     38 C          -1.8476    4.1871   17.7768 C.3     1  UNL1        0.0724
     39 C          -5.0917    4.1482   19.4877 C.3     1  UNL1        0.0188
     40 C          -3.8244    4.9263   19.2919 C.3     1  UNL1        0.0721
@<TRIPOS>BOND
     1    39    40    1
     2    40    33    1
     3    33    34    1
     4    34    35    1
     5    35    36    1
     6    36    27    1
     7    27    28   ar
     8    28    29   ar
     9    29    30   ar
    10    30    25    1
    11    25     1    1
    12     1     2   ar
    13     2     3   ar
    14     3     7    1
    15     7     8    1
    16     7     9   am
    17     9    10    2
    18     9    11   am
    19    11    13    1
    20    13    14   ar
    21    14    15    1
    22    14    16   ar
    23    16    21    1
    24    21    22    1
    25    16    17   ar
    26    17    18   ar
    27    18    23    1
    28    23    24    1
    29    18    19   ar
    30    19    20    1
    31     3     4   ar
    32     4     5   ar
    33     5     6   ar
    34    30    31   ar
    35    31    32   ar
    36    36    37    1
    37    37    38    1
    38    38    33    1
    39    32    27   ar
    40     6     1   ar
    41    19    13   ar
    42    25    26    1
    43    11    12    1
@<TRIPOS>MOLECULE
*****
 40 43 0 0 0
SMALL
GASTEIGER

@<TRIPOS>ATOM
      1 C           6.8567   -3.8714   30.0666 C.ar    1  UNL1        0.1368
      2 C           6.5142   -2.5660   29.4119 C.ar    1  UNL1        0.0691
      3 C           6.3115   -2.5020   27.9271 C.ar    1  UNL1        0.1432
      4 N           6.4512   -3.7435   27.0969 N.ar    1  UNL1       -0.2085
      5 C           6.7937   -5.0489   27.7515 C.ar    1  UNL1        0.2012
      6 N           6.9965   -5.1129   29.2364 N.ar    1  UNL1       -0.2088
      7 N           5.9690   -1.1966   27.2724 N.am    1  UNL1       -0.2261
      8 C           7.0552   -0.2181   26.9369 C.3     1  UNL1        0.1231
      9 C           4.5403   -0.8697   26.9532 C.2     1  UNL1        0.3126
     10 O           3.4540   -1.8482   27.2887 O.2     1  UNL1       -0.2519
     11 N           4.1978    0.4357   26.2986 N.am    1  UNL1       -0.2663
     12 H           4.9108    1.0779   26.0784 H       1  UNL1        0.1565
     13 C           2.7691    0.7627   25.9794 C.ar    1  UNL1        0.0788
     14 C           1.8085    1.0854   27.0853 C.ar    1  UNL1        0.1060
     15 CL          2.2765    1.0813   28.5104 Cl      1  UNL1       -0.0777
     16 C           0.3798    1.4124   26.7661 C.ar    1  UNL1        0.1535
     17 C          -0.0883    1.4165   25.3410 C.ar    1  UNL1        0.0756
     18 C           0.8723    1.0938   24.2351 C.ar    1  UNL1        0.1535
     19 C           2.3010    0.7668   24.5543 C.ar    1  UNL1        0.1060
     20 CL          3.2617    0.4440   23.4484 Cl      1  UNL1       -0.0777
     21 O          -0.5809    1.7351   27.8720 O.3     1  UNL1       -0.4704
     22 C          -1.3180    0.6316   28.5711 C.3     1  UNL1        0.2525
     23 O           0.4042    1.0979   22.8100 O.3     1  UNL1       -0.4704
     24 C           0.4582    2.3634   22.0065 C.3     1  UNL1        0.2525
     25 N           7.0595   -3.9354   31.5514 N.pl3   1  UNL1       -0.2978
     26 H           7.6166   -4.6470   31.9420 H       1  UNL1        0.1536
     27 C           5.1215   -0.8746   34.2209 C.ar    1  UNL1       -0.0223
     28 C           6.5536   -0.7091   33.8064 C.ar    1  UNL1       -0.0030
     29 C           7.1996   -1.7294   32.9166 C.ar    1  UNL1        0.0143
     30 C           6.4135   -2.9151   32.4412 C.ar    1  UNL1        0.0493
     31 C           4.9815   -3.0807   32.8557 C.ar    1  UNL1        0.0143
     32 C           4.3355   -2.0604   33.7455 C.ar    1  UNL1       -0.0030
     33 N           3.1835    2.1861   36.8903 N.3     1  UNL1       -0.2727
     34 C           3.0362    2.2889   35.4012 C.3     1  UNL1        0.0724
     35 C           3.6822    1.2687   34.5114 C.3     1  UNL1        0.0217
     36 C           4.4755    0.1456   35.1107 C.3     1  UNL1        0.0251
     37 C           4.6229    0.0428   36.5999 C.3     1  UNL1        0.0217
     38 C           3.9769    1.0630   37.4897 C.3     1  UNL1        0.0724
     39 C           1.6061    4.2275   37.1974 C.3     1  UNL1        0.0188
     40 C           2.5375    3.2063   37.7802 C.3     1  UNL1        0.0721
@<TRIPOS>BOND
     1    39    40    1
     2    40    33    1
     3    33    34    1
     4    34    35    1
     5    35    36    1
     6    36    27    1
     7    27    28   ar
     8    28    29   ar
     9    29    30   ar
    10    30    25    1
    11    25     1    1
    12     1     2   ar
    13     2     3   ar
    14     3     7    1
    15     7     8    1
    16     7     9   am
    17     9    10    2
    18     9    11   am
    19    11    13    1
    20    13    14   ar
    21    14    15    1
    22    14    16   ar
    23    16    21    1
    24    21    22    1
    25    16    17   ar
    26    17    18   ar
    27    18    23    1
    28    23    24    1
    29    18    19   ar
    30    19    20    1
    31     3     4   ar
    32     4     5   ar
    33     5     6   ar
    34    30    31   ar
    35    31    32   ar
    36    36    37    1
    37    37    38    1
    38    38    33    1
    39    32    27   ar
    40     6     1   ar
    41    19    13   ar
    42    25    26    1
    43    11    12    1
@<TRIPOS>MOLECULE
*****
 40 43 0 0 0
SMALL
GASTEIGER

@<TRIPOS>ATOM
      1 C           6.8926   -3.8845   30.1051 C.ar    1  UNL1        0.1368
      2 C           6.5455   -2.5812   29.4485 C.ar    1  UNL1        0.0691
      3 C           6.3522   -2.5182   27.9623 C.ar    1  UNL1        0.1432
      4 N           6.5060   -3.7584   27.1328 N.ar    1  UNL1       -0.2085
      5 C           6.8530   -5.0617   27.7893 C.ar    1  UNL1        0.2012
      6 N           7.0463   -5.1247   29.2755 N.ar    1  UNL1       -0.2088
      7 N           6.0051   -1.2149   27.3057 N.am    1  UNL1       -0.2261
      8 C           7.0872   -0.2300   26.9753 C.3     1  UNL1        0.1231
      9 C           4.5761   -0.8966   26.9795 C.2     1  UNL1        0.3126
     10 O           3.4941   -1.8815   27.3099 O.2     1  UNL1       -0.2519
     11 N           4.2291    0.4066   26.3229 N.am    1  UNL1       -0.2663
     12 H           4.9393    1.0530   26.1061 H       1  UNL1        0.1565
     13 C           2.8000    0.7250   25.9967 C.ar    1  UNL1        0.0788
     14 C           2.3387    0.7254   24.5694 C.ar    1  UNL1        0.1060
     15 CL          3.3064    0.4075   23.4683 Cl      1  UNL1       -0.0777
     16 C           0.9097    1.0438   24.2432 C.ar    1  UNL1        0.1535
     17 C          -0.0581    1.3617   25.3443 C.ar    1  UNL1        0.0756
     18 C           0.4032    1.3612   26.7716 C.ar    1  UNL1        0.1535
     19 C           1.8322    1.0429   27.0978 C.ar    1  UNL1        0.1060
     20 CL          2.2936    1.0424   28.5251 Cl      1  UNL1       -0.0777
     21 O           0.4483    1.0443   22.8159 O.3     1  UNL1       -0.4704
     22 C           0.3621    2.3346   22.0560 C.3     1  UNL1        0.2525
     23 O          -0.5645    1.6791   27.8727 O.3     1  UNL1       -0.4704
     24 C          -1.2873    0.5708   28.5792 C.3     1  UNL1        0.2525
     25 N           7.0859   -3.9475   31.5912 N.pl3   1  UNL1       -0.2978
     26 H           7.6394   -4.6596   31.9859 H       1  UNL1        0.1536
     27 C           5.1354   -0.8818   34.2459 C.ar    1  UNL1       -0.0223
     28 C           4.3495   -2.0646   33.7630 C.ar    1  UNL1       -0.0030
     29 C           4.9996   -3.0865   32.8781 C.ar    1  UNL1        0.0143
     30 C           6.4357   -2.9256   32.4761 C.ar    1  UNL1        0.0493
     31 C           7.2217   -1.7428   32.9589 C.ar    1  UNL1        0.0143
     32 C           6.5715   -0.7209   33.8438 C.ar    1  UNL1       -0.0030
     33 N           3.1850    2.1839   36.9005 N.3     1  UNL1       -0.2727
     34 C           3.0163    2.2644   35.4123 C.3     1  UNL1        0.0724
     35 C           3.6664    1.2425   34.5274 C.3     1  UNL1        0.0217
     36 C           4.4853    0.1401   35.1308 C.3     1  UNL1        0.0251
     37 C           4.6539    0.0595   36.6190 C.3     1  UNL1        0.0217
     38 C           4.0038    1.0814   37.5039 C.3     1  UNL1        0.0724
     39 C           1.7104    4.3043   37.1825 C.3     1  UNL1        0.0188
     40 C           2.5348    3.2058   37.7854 C.3     1  UNL1        0.0721
@<TRIPOS>BOND
     1    39    40    1
     2    40    33    1
     3    33    34    1
     4    34    35    1
     5    35    36    1
     6    36    27    1
     7    27    28   ar
     8    28    29   ar
     9    29    30   ar
    10    30    25    1
    11    25     1    1
    12     1     2   ar
    13     2     3   ar
    14     3     7    1
    15     7     8    1
    16     7     9   am
    17     9    10    2
    18     9    11   am
    19    11    13    1
    20    13    14   ar
    21    14    15    1
    22    14    16   ar
    23    16    21    1
    24    21    22    1
    25    16    17   ar
    26    17    18   ar
    27    18    23    1
    28    23    24    1
    29    18    19   ar
    30    19    20    1
    31     3     4   ar
    32     4     5   ar
    33     5     6   ar
    34    30    31   ar
    35    31    32   ar
    36    36    37    1
    37    37    38    1
    38    38    33    1
    39    32    27   ar
    40     6     1   ar
    41    19    13   ar
    42    25    26    1
    43    11    12    1
@<TRIPOS>MOLECULE
*****
 40 43 0 0 0
SMALL
GASTEIGER

@<TRIPOS>ATOM
      1 C           4.2563   -2.0726   19.3020 C.ar    1  UNL1        0.1368
      2 C           5.5554   -2.2300   20.0352 C.ar    1  UNL1        0.0691
      3 C           6.1345   -3.5969   20.2501 C.ar    1  UNL1        0.1432
      4 N           5.4145   -4.8064   19.7318 N.ar    1  UNL1       -0.2085
      5 C           4.1155   -4.6491   18.9986 C.ar    1  UNL1        0.2012
      6 N           3.5363   -3.2822   18.7837 N.ar    1  UNL1       -0.2088
      7 N           7.4336   -3.7543   20.9833 N.am    1  UNL1       -0.2261
      8 C           8.7226   -3.3781   20.3146 C.3     1  UNL1        0.1231
      9 C           7.4438   -4.2878   22.3852 C.2     1  UNL1        0.3126
     10 O           6.1549   -4.6640   23.0538 O.2     1  UNL1       -0.2519
     11 N           8.7429   -4.4452   23.1183 N.am    1  UNL1       -0.2663
     12 H           9.5888   -4.1983   22.6794 H       1  UNL1        0.1565
     13 C           8.7531   -4.9787   24.5202 C.ar    1  UNL1        0.0788
     14 C           8.8948   -6.4525   24.7608 C.ar    1  UNL1        0.1060
     15 CL          9.0263   -7.3928   23.5995 Cl      1  UNL1       -0.0777
     16 C           8.9050   -6.9860   26.1626 C.ar    1  UNL1        0.1535
     17 C           8.7735   -6.0457   27.3239 C.ar    1  UNL1        0.0756
     18 C           8.6317   -4.5720   27.0834 C.ar    1  UNL1        0.1535
     19 C           8.6215   -4.0385   25.6815 C.ar    1  UNL1        0.1060
     20 CL          8.4798   -2.5646   25.4409 Cl      1  UNL1       -0.0777
     21 O           9.0467   -8.4598   26.4033 O.3     1  UNL1       -0.4704
     22 C           8.4093   -9.0879   27.6071 C.3     1  UNL1        0.2525
     23 O           8.5002   -3.6317   28.2447 O.3     1  UNL1       -0.4704
     24 C           7.1450   -3.3176   28.8056 C.3     1  UNL1        0.2525
     25 N           3.6772   -0.7057   19.0871 N.pl3   1  UNL1       -0.2978
     26 H           3.8637   -0.2177   18.2527 H       1  UNL1        0.1536
     27 C           1.0870    1.1642   22.2564 C.ar    1  UNL1       -0.0223
     28 C           2.5807    1.2123   22.3839 C.ar    1  UNL1       -0.0030
     29 C           3.4441    0.5889   21.3275 C.ar    1  UNL1        0.0143
     30 C           2.8138   -0.0824   20.1435 C.ar    1  UNL1        0.0493
     31 C           1.3200   -0.1304   20.0160 C.ar    1  UNL1        0.0143
     32 C           0.4566    0.4929   21.0724 C.ar    1  UNL1       -0.0030
     33 N          -1.5032    3.0342   25.4256 N.3     1  UNL1       -0.2727
     34 C          -0.5890    1.8985   25.7780 C.3     1  UNL1        0.0724
     35 C           0.2744    1.2752   24.7216 C.3     1  UNL1        0.0217
     36 C           0.2236    1.7876   23.3128 C.3     1  UNL1        0.0251
     37 C          -0.6907    2.9233   22.9604 C.3     1  UNL1        0.0217
     38 C          -1.5541    3.5466   24.0168 C.3     1  UNL1        0.0724
     39 C          -3.8065    3.9610   26.1911 C.3     1  UNL1        0.0188
     40 C          -2.3666    3.6575   26.4820 C.3     1  UNL1        0.0721
@<TRIPOS>BOND
     1    39    40    1
     2    40    33    1
     3    33    34    1
     4    34    35    1
     5    35    36    1
     6    36    27    1
     7    27    28   ar
     8    28    29   ar
     9    29    30   ar
    10    30    25    1
    11    25     1    1
    12     1     2   ar
    13     2     3   ar
    14     3     7    1
    15     7     8    1
    16     7     9   am
    17     9    10    2
    18     9    11   am
    19    11    13    1
    20    13    14   ar
    21    14    15    1
    22    14    16   ar
    23    16    21    1
    24    21    22    1
    25    16    17   ar
    26    17    18   ar
    27    18    23    1
    28    23    24    1
    29    18    19   ar
    30    19    20    1
    31     3     4   ar
    32     4     5   ar
    33     5     6   ar
    34    30    31   ar
    35    31    32   ar
    36    36    37    1
    37    37    38    1
    38    38    33    1
    39    32    27   ar
    40     6     1   ar
    41    19    13   ar
    42    25    26    1
    43    11    12    1
@<TRIPOS>MOLECULE
*****
 40 43 0 0 0
SMALL
GASTEIGER

@<TRIPOS>ATOM
      1 C           7.6758   -6.7310   26.4926 C.ar    1  UNL1        0.1368
      2 C           7.4345   -5.3245   26.0304 C.ar    1  UNL1        0.0691
      3 C           7.5895   -4.9745   24.5801 C.ar    1  UNL1        0.1432
      4 N           7.9858   -6.0311   23.5919 N.ar    1  UNL1       -0.2085
      5 C           8.2271   -7.4376   24.0539 C.ar    1  UNL1        0.2012
      6 N           8.0721   -7.7876   25.5043 N.ar    1  UNL1       -0.2088
      7 N           7.3482   -3.5680   24.1180 N.am    1  UNL1       -0.2261
      8 C           8.1448   -2.4394   24.7026 C.3     1  UNL1        0.1231
      9 C           6.3104   -3.2901   23.0712 C.2     1  UNL1        0.3126
     10 O           5.5139   -4.4187   22.4865 O.2     1  UNL1       -0.2519
     11 N           6.0692   -1.8836   22.6091 N.am    1  UNL1       -0.2663
     12 H           6.5920   -1.1429   22.9929 H       1  UNL1        0.1565
     13 C           5.0314   -1.6057   21.5623 C.ar    1  UNL1        0.0788
     14 C           3.6584   -1.1580   21.9677 C.ar    1  UNL1        0.1060
     15 CL          3.3231   -0.9883   23.4198 Cl      1  UNL1       -0.0777
     16 C           2.6206   -0.8801   20.9209 C.ar    1  UNL1        0.1535
     17 C           2.9559   -1.0498   19.4687 C.ar    1  UNL1        0.0756
     18 C           4.3290   -1.4974   19.0634 C.ar    1  UNL1        0.1535
     19 C           5.3667   -1.7754   20.1101 C.ar    1  UNL1        0.1060
     20 CL          6.7398   -2.2231   19.7048 Cl      1  UNL1       -0.0777
     21 O           1.2475   -0.4324   21.3262 O.3     1  UNL1       -0.4704
     22 C           0.3941    0.3365   20.3616 C.3     1  UNL1        0.2525
     23 O           4.6642   -1.6672   17.6112 O.3     1  UNL1       -0.4704
     24 C           3.9369   -0.8633   16.5746 C.3     1  UNL1        0.2525
     25 N           7.5207   -7.0809   27.9429 N.pl3   1  UNL1       -0.2978
     26 H           7.3280   -8.0095   28.2074 H       1  UNL1        0.1536
     27 C           7.9363   -3.8866   31.0851 C.ar    1  UNL1       -0.0223
     28 C           6.6560   -4.0190   30.3149 C.ar    1  UNL1       -0.0030
     29 C           6.5175   -5.0838   29.2675 C.ar    1  UNL1        0.0143
     30 C           7.6592   -6.0162   28.9903 C.ar    1  UNL1        0.0493
     31 C           8.9396   -5.8838   29.7605 C.ar    1  UNL1        0.0143
     32 C           9.0781   -4.8190   30.8079 C.ar    1  UNL1       -0.0030
     33 N           8.3519   -0.6923   34.2273 N.3     1  UNL1       -0.2727
     34 C           9.5325   -1.5418   33.8607 C.3     1  UNL1        0.0724
     35 C           9.3939   -2.6066   32.8133 C.3     1  UNL1        0.0217
     36 C           8.0748   -2.8218   32.1325 C.3     1  UNL1        0.0251
     37 C           6.8942   -1.9723   32.4991 C.3     1  UNL1        0.0217
     38 C           7.0327   -0.9075   33.5465 C.3     1  UNL1        0.0724
     39 C           7.8331    1.7066   35.0795 C.3     1  UNL1        0.0188
     40 C           8.4904    0.3725   35.2747 C.3     1  UNL1        0.0721
@<TRIPOS>BOND
     1    39    40    1
     2    40    33    1
     3    33    34    1
     4    34    35    1
     5    35    36    1
     6    36    27    1
     7    27    28   ar
     8    28    29   ar
     9    29    30   ar
    10    30    25    1
    11    25     1    1
    12     1     2   ar
    13     2     3   ar
    14     3     7    1
    15     7     8    1
    16     7     9   am
    17     9    10    2
    18     9    11   am
    19    11    13    1
    20    13    14   ar
    21    14    15    1
    22    14    16   ar
    23    16    21    1
    24    21    22    1
    25    16    17   ar
    26    17    18   ar
    27    18    23    1
    28    23    24    1
    29    18    19   ar
    30    19    20    1
    31     3     4   ar
    32     4     5   ar
    33     5     6   ar
    34    30    31   ar
    35    31    32   ar
    36    36    37    1
    37    37    38    1
    38    38    33    1
    39    32    27   ar
    40     6     1   ar
    41    19    13   ar
    42    25    26    1
    43    11    12    1
@<TRIPOS>MOLECULE
*****
 40 43 0 0 0
SMALL
GASTEIGER

@<TRIPOS>ATOM
      1 C           5.4516   -1.7192   18.7051 C.ar    1  UNL1        0.1368
      2 C           6.4908   -2.0211   19.7439 C.ar    1  UNL1        0.0691
      3 C           6.6299   -3.4139   20.2830 C.ar    1  UNL1        0.1432
      4 N           5.7299   -4.5049   19.7832 N.ar    1  UNL1       -0.2085
      5 C           4.6907   -4.2031   18.7445 C.ar    1  UNL1        0.2012
      6 N           4.5516   -2.8102   18.2054 N.ar    1  UNL1       -0.2088
      7 N           7.6691   -3.7159   21.3218 N.am    1  UNL1       -0.2261
      8 C           9.1184   -3.4653   21.0277 C.3     1  UNL1        0.1231
      9 C           7.2588   -4.2683   22.6546 C.2     1  UNL1        0.3126
     10 O           5.8094   -4.5189   22.9487 O.2     1  UNL1       -0.2519
     11 N           8.2980   -4.5702   23.6933 N.am    1  UNL1       -0.2663
     12 H           9.2492   -4.4057   23.5003 H       1  UNL1        0.1565
     13 C           7.8877   -5.1227   25.0262 C.ar    1  UNL1        0.0788
     14 C           7.8744   -6.6056   25.2515 C.ar    1  UNL1        0.1060
     15 CL          8.2712   -7.5360   24.1440 Cl      1  UNL1       -0.0777
     16 C           7.4642   -7.1579   26.5844 C.ar    1  UNL1        0.1535
     17 C           7.0673   -6.2275   27.6919 C.ar    1  UNL1        0.0756
     18 C           7.0807   -4.7446   27.4666 C.ar    1  UNL1        0.1535
     19 C           7.4909   -4.1922   26.1338 C.ar    1  UNL1        0.1060
     20 CL          7.5043   -2.7092   25.9084 Cl      1  UNL1       -0.0777
     21 O           7.4508   -8.6409   26.8097 O.3     1  UNL1       -0.4704
     22 C           8.5851   -9.2992   27.5377 C.3     1  UNL1        0.2525
     23 O           6.6839   -3.8141   28.5742 O.3     1  UNL1       -0.4704
     24 C           6.8119   -4.2514   30.0033 C.3     1  UNL1        0.2525
     25 N           5.3125   -0.3263   18.1661 N.pl3   1  UNL1       -0.2978
     26 H           6.0683    0.0988   17.7000 H       1  UNL1        0.1536
     27 C           1.4408    1.9088   18.6795 C.ar    1  UNL1       -0.0223
     28 C           1.4676    0.4149   18.8120 C.ar    1  UNL1       -0.0030
     29 C           2.7582   -0.3301   18.6409 C.ar    1  UNL1        0.0143
     30 C           4.0219    0.4187   18.3372 C.ar    1  UNL1        0.0493
     31 C           3.9951    1.9126   18.2047 C.ar    1  UNL1        0.0143
     32 C           2.7045    2.6576   18.3759 C.ar    1  UNL1       -0.0030
     33 N          -2.4310    4.1439   19.1930 N.3     1  UNL1       -0.2727
     34 C          -1.8819    3.3254   20.3236 C.3     1  UNL1        0.0724
     35 C          -0.5913    2.5804   20.1525 C.3     1  UNL1        0.0217
     36 C           0.1502    2.6539   18.8507 C.3     1  UNL1        0.0251
     37 C          -0.3990    3.4724   17.7200 C.3     1  UNL1        0.0217
     38 C          -1.6895    4.2174   17.8911 C.3     1  UNL1        0.0724
     39 C          -4.1843    5.8414   18.3017 C.3     1  UNL1        0.0188
     40 C          -3.7216    4.8890   19.3641 C.3     1  UNL1        0.0721
@<TRIPOS>BOND
     1    39    40    1
     2    40    33    1
     3    33    34    1
     4    34    35    1
     5    35    36    1
     6    36    27    1
     7    27    28   ar
     8    28    29   ar
     9    29    30   ar
    10    30    25    1
    11    25     1    1
    12     1     2   ar
    13     2     3   ar
    14     3     7    1
    15     7     8    1
    16     7     9   am
    17     9    10    2
    18     9    11   am
    19    11    13    1
    20    13    14   ar
    21    14    15    1
    22    14    16   ar
    23    16    21    1
    24    21    22    1
    25    16    17   ar
    26    17    18   ar
    27    18    23    1
    28    23    24    1
    29    18    19   ar
    30    19    20    1
    31     3     4   ar
    32     4     5   ar
    33     5     6   ar
    34    30    31   ar
    35    31    32   ar
    36    36    37    1
    37    37    38    1
    38    38    33    1
    39    32    27   ar
    40     6     1   ar
    41    19    13   ar
    42    25    26    1
    43    11    12    1
@<TRIPOS>MOLECULE
*****
 40 43 0 0 0
SMALL
GASTEIGER

@<TRIPOS>ATOM
      1 C          -2.7400    3.7886   21.4827 C.ar    1  UNL1        0.1368
      2 C          -2.3955    3.8830   22.9396 C.ar    1  UNL1        0.0691
      3 C          -3.4544    3.6538   23.9770 C.ar    1  UNL1        0.1432
      4 N          -4.8577    3.3302   23.5576 N.ar    1  UNL1       -0.2085
      5 C          -5.2022    3.2358   22.1008 C.ar    1  UNL1        0.2012
      6 N          -4.1434    3.4650   21.0633 N.ar    1  UNL1       -0.2088
      7 N          -3.1099    3.7483   25.4339 N.am    1  UNL1       -0.2261
      8 C          -4.0832    4.3617   26.3965 C.3     1  UNL1        0.1231
      9 C          -1.7922    3.2294   25.9282 C.2     1  UNL1        0.3126
     10 O          -0.8189    2.6160   24.9656 O.2     1  UNL1       -0.2519
     11 N          -1.4478    3.3239   27.3850 N.am    1  UNL1       -0.2663
     12 H          -2.0866    3.7264   28.0168 H       1  UNL1        0.1565
     13 C          -0.1300    2.8049   27.8794 C.ar    1  UNL1        0.0788
     14 C           1.1154    3.6192   27.6901 C.ar    1  UNL1        0.1060
     15 CL          1.0431    4.9525   27.0066 Cl      1  UNL1       -0.0777
     16 C           2.4331    3.1003   28.1845 C.ar    1  UNL1        0.1535
     17 C           2.5053    1.7671   28.8680 C.ar    1  UNL1        0.0756
     18 C           1.2600    0.9528   29.0573 C.ar    1  UNL1        0.1535
     19 C          -0.0577    1.4717   28.5629 C.ar    1  UNL1        0.1060
     20 CL         -1.3032    0.6574   28.7521 Cl      1  UNL1       -0.0777
     21 O           3.6786    3.9146   27.9953 O.3     1  UNL1       -0.4704
     22 C           4.5584    3.6739   26.8045 C.3     1  UNL1        0.2525
     23 O           1.3322   -0.3805   29.7408 O.3     1  UNL1       -0.4704
     24 C           2.5358   -0.7383   30.5614 C.3     1  UNL1        0.2525
     25 N          -1.6812    4.0178   20.4452 N.pl3   1  UNL1       -0.2978
     26 H          -1.6388    4.8770   19.9666 H       1  UNL1        0.1536
     27 C           1.3018    0.7778   19.5208 C.ar    1  UNL1       -0.0223
     28 C           0.8669    1.7264   18.4434 C.ar    1  UNL1       -0.0030
     29 C          -0.1275    2.8064   18.7515 C.ar    1  UNL1        0.0143
     30 C          -0.6868    2.9378   20.1371 C.ar    1  UNL1        0.0493
     31 C          -0.2519    1.9891   21.2145 C.ar    1  UNL1        0.0143
     32 C           0.7424    0.9092   20.9064 C.ar    1  UNL1       -0.0030
     33 N           4.2848   -2.4621   18.5964 N.3     1  UNL1       -0.2727
     34 C           4.1167   -1.3066   17.6549 C.3     1  UNL1        0.0724
     35 C           3.1224   -0.2266   17.9631 C.3     1  UNL1        0.0217
     36 C           2.2961   -0.3022   19.2127 C.3     1  UNL1        0.0251
     37 C           2.4642   -1.4577   20.1541 C.3     1  UNL1        0.0217
     38 C           3.4586   -2.5377   19.8460 C.3     1  UNL1        0.0724
     39 C           4.9897   -4.9614   18.6777 C.3     1  UNL1        0.0188
     40 C           5.2791   -3.5421   18.2882 C.3     1  UNL1        0.0721
@<TRIPOS>BOND
     1    39    40    1
     2    40    33    1
     3    33    34    1
     4    34    35    1
     5    35    36    1
     6    36    27    1
     7    27    28   ar
     8    28    29   ar
     9    29    30   ar
    10    30    25    1
    11    25     1    1
    12     1     2   ar
    13     2     3   ar
    14     3     7    1
    15     7     8    1
    16     7     9   am
    17     9    10    2
    18     9    11   am
    19    11    13    1
    20    13    14   ar
    21    14    15    1
    22    14    16   ar
    23    16    21    1
    24    21    22    1
    25    16    17   ar
    26    17    18   ar
    27    18    23    1
    28    23    24    1
    29    18    19   ar
    30    19    20    1
    31     3     4   ar
    32     4     5   ar
    33     5     6   ar
    34    30    31   ar
    35    31    32   ar
    36    36    37    1
    37    37    38    1
    38    38    33    1
    39    32    27   ar
    40     6     1   ar
    41    19    13   ar
    42    25    26    1
    43    11    12    1
@<TRIPOS>MOLECULE
*****
 40 43 0 0 0
SMALL
GASTEIGER

@<TRIPOS>ATOM
      1 C           4.6407   -1.5090   18.6614 C.ar    1  UNL1        0.1368
      2 C           3.9123   -0.3300   19.2356 C.ar    1  UNL1        0.0691
      3 C           4.1186    1.0361   18.6516 C.ar    1  UNL1        0.1432
      4 N           5.0533    1.2234   17.4935 N.ar    1  UNL1       -0.2085
      5 C           5.7817    0.0446   16.9193 C.ar    1  UNL1        0.2012
      6 N           5.5754   -1.3217   17.5032 N.ar    1  UNL1       -0.2088
      7 N           3.3902    2.2151   19.2258 N.am    1  UNL1       -0.2261
      8 C           4.1442    3.2635   19.9889 C.3     1  UNL1        0.1231
      9 C           1.9079    2.3455   19.0369 C.2     1  UNL1        0.3126
     10 O           1.1539    1.2970   18.2739 O.2     1  UNL1       -0.2519
     11 N           1.1796    3.5244   19.6111 N.am    1  UNL1       -0.2663
     12 H           1.6744    4.2125   20.1119 H       1  UNL1        0.1565
     13 C          -0.3028    3.6549   19.4222 C.ar    1  UNL1        0.0788
     14 C          -0.8485    4.2419   18.1544 C.ar    1  UNL1        0.1060
     15 CL          0.0881    4.6985   17.0753 Cl      1  UNL1       -0.0777
     16 C          -2.3308    4.3724   17.9655 C.ar    1  UNL1        0.1535
     17 C          -3.2674    3.9158   19.0446 C.ar    1  UNL1        0.0756
     18 C          -2.7217    3.3287   20.3124 C.ar    1  UNL1        0.1535
     19 C          -1.2394    3.1983   20.5013 C.ar    1  UNL1        0.1060
     20 CL         -0.6936    2.6112   21.7692 Cl      1  UNL1       -0.0777
     21 O          -2.8766    4.9594   16.6976 O.3     1  UNL1       -0.4704
     22 C          -4.1439    4.4181   16.1052 C.3     1  UNL1        0.2525
     23 O          -3.6583    2.8722   21.3915 O.3     1  UNL1       -0.4704
     24 C          -5.0698    3.3787   21.4232 C.3     1  UNL1        0.2525
     25 N           4.4344   -2.8751   19.2453 N.pl3   1  UNL1       -0.2978
     26 H           3.8942   -3.5408   18.7614 H       1  UNL1        0.1536
     27 C           6.2847   -3.9307   23.2092 C.ar    1  UNL1       -0.0223
     28 C           4.8762   -3.4181   23.1517 C.ar    1  UNL1       -0.0030
     29 C           4.2594   -3.0663   21.8304 C.ar    1  UNL1        0.0143
     30 C           5.0512   -3.2270   20.5666 C.ar    1  UNL1        0.0493
     31 C           6.4597   -3.7395   20.6241 C.ar    1  UNL1        0.0143
     32 C           7.0764   -4.0914   21.9453 C.ar    1  UNL1       -0.0030
     33 N           8.1350   -4.9863   27.1730 N.3     1  UNL1       -0.2727
     34 C           7.2380   -3.7895   27.0590 C.3     1  UNL1        0.0724
     35 C           6.6212   -3.4376   25.7377 C.3     1  UNL1        0.0217
     36 C           6.9015   -4.2825   24.5304 C.3     1  UNL1        0.0251
     37 C           7.7985   -5.4793   24.6445 C.3     1  UNL1        0.0217
     38 C           8.4153   -5.8312   25.9657 C.3     1  UNL1        0.0724
     39 C           8.2928   -6.5591   29.2349 C.3     1  UNL1        0.0188
     40 C           8.7518   -5.3381   28.4943 C.3     1  UNL1        0.0721
@<TRIPOS>BOND
     1    39    40    1
     2    40    33    1
     3    33    34    1
     4    34    35    1
     5    35    36    1
     6    36    27    1
     7    27    28   ar
     8    28    29   ar
     9    29    30   ar
    10    30    25    1
    11    25     1    1
    12     1     2   ar
    13     2     3   ar
    14     3     7    1
    15     7     8    1
    16     7     9   am
    17     9    10    2
    18     9    11   am
    19    11    13    1
    20    13    14   ar
    21    14    15    1
    22    14    16   ar
    23    16    21    1
    24    21    22    1
    25    16    17   ar
    26    17    18   ar
    27    18    23    1
    28    23    24    1
    29    18    19   ar
    30    19    20    1
    31     3     4   ar
    32     4     5   ar
    33     5     6   ar
    34    30    31   ar
    35    31    32   ar
    36    36    37    1
    37    37    38    1
    38    38    33    1
    39    32    27   ar
    40     6     1   ar
    41    19    13   ar
    42    25    26    1
    43    11    12    1
