@<TRIPOS>MOLECULE
*****
 38 42 0 0 0
SMALL
GASTEIGER

@<TRIPOS>ATOM
      1 C           5.5728    0.3221   26.8874 C.3     1  UNL1        0.1139
      2 C           5.2439   -0.3567   25.5909 C.ar    1  UNL1       -0.0029
      3 C           6.3332   -0.6577   24.6045 C.ar    1  UNL1       -0.0026
      4 C           6.0043   -1.3365   23.3079 C.ar    1  UNL1       -0.0003
      5 C           4.5861   -1.7143   22.9977 C.ar    1  UNL1       -0.0000
      6 C           3.4969   -1.4133   23.9842 C.ar    1  UNL1       -0.0003
      7 C           3.8258   -0.7345   25.2807 C.ar    1  UNL1       -0.0026
      8 C           4.2572   -2.3931   21.7012 C.ar    1  UNL1       -0.0000
      9 C           4.4621   -3.8719   21.5558 C.ar    1  UNL1       -0.0000
     10 C           4.1331   -4.5507   20.2592 C.ar    1  UNL1        0.0000
     11 C           3.5994   -3.7507   19.1081 C.ar    1  UNL1        0.0000
     12 C           3.3946   -2.2719   19.2535 C.ar    1  UNL1        0.0000
     13 C           3.7235   -1.5931   20.5501 C.ar    1  UNL1       -0.0000
     14 C           7.9335    1.2137   27.5054 C.3     1  UNL1        0.1152
     15 N           6.9148    0.1130   27.5241 N.am    1  UNL1       -0.2729
     16 C           7.2380   -1.1970   28.1796 C.2     1  UNL1        0.2465
     17 O           8.5799   -1.4061   28.8164 O.2     1  UNL1       -0.2730
     18 C           6.2192   -2.2978   28.1983 C.3     1  UNL1        0.1835
     19 N           6.6369   -3.7008   28.5258 N.am    1  UNL1       -0.2439
     20 C           6.6619   -4.1621   29.9529 C.2     1  UNL1        0.2744
     21 O           6.2694   -3.2205   31.0525 O.2     1  UNL1       -0.2705
     22 C           7.0796   -5.5651   30.2803 C.3     1  UNL1        0.2900
     23 O           7.4722   -6.5067   29.1807 O.3     1  UNL1       -0.4643
     24 C           7.4471   -6.0454   27.7537 C.ar    1  UNL1        0.1537
     25 C           7.8397   -6.9871   26.6540 C.ar    1  UNL1        0.0504
     26 C           7.8146   -6.5258   25.2270 C.ar    1  UNL1        0.0713
     27 CL          8.2072   -7.4674   24.1274 Cl      1  UNL1       -0.0813
     28 C           7.3970   -5.1228   24.8995 C.ar    1  UNL1        0.0696
     29 CL          7.3719   -4.6615   23.4724 Cl      1  UNL1       -0.0813
     30 C           7.0044   -4.1811   25.9991 C.ar    1  UNL1        0.0302
     31 C           7.0295   -4.6425   27.4262 C.ar    1  UNL1        0.0894
     32 C           4.5598    1.2100   27.5472 C.3     1  UNL1        0.0968
     33 N           3.5818    0.6329   28.5273 N.3     1  UNL1       -0.2667
     34 C           2.1251    0.5578   28.1773 C.3     1  UNL1        0.1047
     35 C           1.1471   -0.0193   29.1574 C.3     1  UNL1        0.1595
     36 O           1.6259   -0.5212   30.4874 O.3     1  UNL1       -0.3508
     37 C           3.0825   -0.4460   30.8374 C.3     1  UNL1        0.1595
     38 C           4.0605    0.1311   29.8573 C.3     1  UNL1        0.1047
@<TRIPOS>BOND
     1    14    15    1
     2    15    16   am
     3    16    17    2
     4    16    18    1
     5    18    19    1
     6    19    20   am
     7    20    21    2
     8    20    22    1
     9    22    23    1
    10    23    24    1
    11    24    25   ar
    12    25    26   ar
    13    26    27    1
    14    26    28   ar
    15    28    29    1
    16    28    30   ar
    17    30    31   ar
    18    15     1    1
    19     1    32    1
    20    32    33    1
    21    33    34    1
    22    34    35    1
    23    35    36    1
    24    36    37    1
    25    37    38    1
    26     1     2    1
    27     2     3   ar
    28     3     4   ar
    29     4     5   ar
    30     5     8    1
    31     8     9   ar
    32     9    10   ar
    33    10    11   ar
    34    11    12   ar
    35    12    13   ar
    36     5     6   ar
    37     6     7   ar
    38    31    19    1
    39    38    33    1
    40     7     2   ar
    41    31    24   ar
    42    13     8   ar
@<TRIPOS>MOLECULE
*****
 38 42 0 0 0
SMALL
GASTEIGER

@<TRIPOS>ATOM
      1 C           4.1766   -2.1048   18.7992 C.3     1  UNL1        0.1139
      2 C           3.1580   -1.0116   18.9305 C.ar    1  UNL1       -0.0029
      3 C           3.3210    0.2623   18.1555 C.ar    1  UNL1       -0.0026
      4 C           2.3024    1.3556   18.2867 C.ar    1  UNL1       -0.0003
      5 C           1.1208    1.1750   19.1930 C.ar    1  UNL1       -0.0000
      6 C           0.9579   -0.0989   19.9680 C.ar    1  UNL1       -0.0003
      7 C           1.9764   -1.1922   19.8367 C.ar    1  UNL1       -0.0026
      8 C           0.1022    2.2683   19.3242 C.ar    1  UNL1       -0.0000
      9 C          -0.1877    3.1670   18.1588 C.ar    1  UNL1       -0.0000
     10 C          -1.2063    4.2603   18.2901 C.ar    1  UNL1        0.0000
     11 C          -1.9349    4.4548   19.5867 C.ar    1  UNL1        0.0000
     12 C          -1.6450    3.5560   20.7521 C.ar    1  UNL1        0.0000
     13 C          -0.6264    2.4628   20.6208 C.ar    1  UNL1       -0.0000
     14 C           3.4132   -4.5814   18.9835 C.3     1  UNL1        0.1152
     15 N           4.0333   -3.3637   19.6021 N.am    1  UNL1       -0.2729
     16 C           4.5102   -3.4049   21.0238 C.2     1  UNL1        0.2465
     17 O           4.3669   -4.6638   21.8267 O.2     1  UNL1       -0.2730
     18 C           5.1303   -2.1872   21.6424 C.3     1  UNL1        0.1835
     19 N           5.2925   -2.1023   23.1313 N.am    1  UNL1       -0.2439
     20 C           6.4141   -2.8345   23.8064 C.2     1  UNL1        0.2744
     21 O           7.3734   -3.6516   22.9929 O.2     1  UNL1       -0.2705
     22 C           6.5762   -2.7496   25.2952 C.3     1  UNL1        0.2900
     23 O           5.6169   -1.9325   26.1088 O.3     1  UNL1       -0.4643
     24 C           4.4953   -1.2003   25.4336 C.ar    1  UNL1        0.1537
     25 C           3.5359   -0.3832   26.2472 C.ar    1  UNL1        0.0504
     26 C           2.4143    0.3490   25.5720 C.ar    1  UNL1        0.0713
     27 CL          1.4549    1.1661   26.3855 Cl      1  UNL1       -0.0813
     28 C           2.2521    0.2641   24.0831 C.ar    1  UNL1        0.0696
     29 CL          1.1305    0.9963   23.4080 Cl      1  UNL1       -0.0813
     30 C           3.2115   -0.5530   23.2696 C.ar    1  UNL1        0.0302
     31 C           4.3331   -1.2852   23.9448 C.ar    1  UNL1        0.0894
     32 C           5.3384   -1.9392   17.8650 C.3     1  UNL1        0.0968
     33 N           6.6559   -1.4469   18.3866 N.3     1  UNL1       -0.2667
     34 C           6.9942    0.0125   18.3113 C.3     1  UNL1        0.1047
     35 C           8.3117    0.5048   18.8329 C.3     1  UNL1        0.1595
     36 O           9.2907   -0.4623   19.4297 O.3     1  UNL1       -0.3508
     37 C           8.9524   -1.9217   19.5049 C.3     1  UNL1        0.1595
     38 C           7.6349   -2.4140   18.9833 C.3     1  UNL1        0.1047
@<TRIPOS>BOND
     1    14    15    1
     2    15    16   am
     3    16    17    2
     4    16    18    1
     5    18    19    1
     6    19    20   am
     7    20    21    2
     8    20    22    1
     9    22    23    1
    10    23    24    1
    11    24    25   ar
    12    25    26   ar
    13    26    27    1
    14    26    28   ar
    15    28    29    1
    16    28    30   ar
    17    30    31   ar
    18    15     1    1
    19     1    32    1
    20    32    33    1
    21    33    34    1
    22    34    35    1
    23    35    36    1
    24    36    37    1
    25    37    38    1
    26     1     2    1
    27     2     3   ar
    28     3     4   ar
    29     4     5   ar
    30     5     8    1
    31     8     9   ar
    32     9    10   ar
    33    10    11   ar
    34    11    12   ar
    35    12    13   ar
    36     5     6   ar
    37     6     7   ar
    38    31    19    1
    39    38    33    1
    40     7     2   ar
    41    31    24   ar
    42    13     8   ar
@<TRIPOS>MOLECULE
*****
 38 42 0 0 0
SMALL
GASTEIGER

@<TRIPOS>ATOM
      1 C           5.7390   -2.5578   22.8822 C.3     1  UNL1        0.1139
      2 C           4.7036   -1.7073   23.5564 C.ar    1  UNL1       -0.0029
      3 C           3.6819   -0.9778   22.7356 C.ar    1  UNL1       -0.0026
      4 C           2.6465   -0.1272   23.4099 C.ar    1  UNL1       -0.0003
      5 C           2.6328   -0.0064   24.9049 C.ar    1  UNL1       -0.0000
      6 C           3.6546   -0.7360   25.7257 C.ar    1  UNL1       -0.0003
      7 C           4.6899   -1.5865   25.0515 C.ar    1  UNL1       -0.0026
      8 C           1.5974    0.8441   25.5792 C.ar    1  UNL1       -0.0000
      9 C           1.8094    1.3060   26.9904 C.ar    1  UNL1       -0.0000
     10 C           0.7740    2.1565   27.6648 C.ar    1  UNL1        0.0000
     11 C          -0.4734    2.5451   26.9278 C.ar    1  UNL1        0.0000
     12 C          -0.6853    2.0831   25.5164 C.ar    1  UNL1        0.0000
     13 C           0.3501    1.2327   24.8422 C.ar    1  UNL1       -0.0000
     14 C           8.0767   -1.4244   22.8643 C.3     1  UNL1        0.1152
     15 N           7.1646   -2.5132   23.3465 N.am    1  UNL1       -0.2729
     16 C           7.6781   -3.5574   24.2931 C.2     1  UNL1        0.2465
     17 O           9.1037   -3.5127   24.7575 O.2     1  UNL1       -0.2730
     18 C           6.7660   -4.6462   24.7753 C.3     1  UNL1        0.1835
     19 N           7.2436   -5.6212   25.8104 N.am    1  UNL1       -0.2439
     20 C           7.8164   -6.9419   25.3890 C.2     1  UNL1        0.2744
     21 O           7.9115   -7.2877   23.9325 O.2     1  UNL1       -0.2705
     22 C           8.2940   -7.9168   26.4241 C.3     1  UNL1        0.2900
     23 O           8.1988   -7.5710   27.8806 O.3     1  UNL1       -0.4643
     24 C           7.6261   -6.2502   28.3020 C.ar    1  UNL1        0.1537
     25 C           7.5309   -5.9044   29.7585 C.ar    1  UNL1        0.0504
     26 C           6.9582   -4.5837   30.1799 C.ar    1  UNL1        0.0713
     27 CL          6.8630   -4.2379   31.6364 Cl      1  UNL1       -0.0813
     28 C           6.4806   -3.6087   29.1448 C.ar    1  UNL1        0.0696
     29 CL          5.9078   -2.2880   29.5662 Cl      1  UNL1       -0.0813
     30 C           6.5757   -3.9545   27.6883 C.ar    1  UNL1        0.0302
     31 C           7.1485   -5.2753   27.2669 C.ar    1  UNL1        0.0894
     32 C           5.3488   -3.4530   21.7435 C.3     1  UNL1        0.0968
     33 N           5.4526   -2.9585   20.3312 N.3     1  UNL1       -0.2667
     34 C           6.7994   -2.7918   19.6920 C.3     1  UNL1        0.1047
     35 C           6.9032   -2.2973   18.2796 C.3     1  UNL1        0.1595
     36 O           5.6602   -1.9694   17.5065 O.3     1  UNL1       -0.3508
     37 C           4.3136   -2.1361   18.1457 C.3     1  UNL1        0.1595
     38 C           4.2097   -2.6306   19.5581 C.3     1  UNL1        0.1047
@<TRIPOS>BOND
     1    14    15    1
     2    15    16   am
     3    16    17    2
     4    16    18    1
     5    18    19    1
     6    19    20   am
     7    20    21    2
     8    20    22    1
     9    22    23    1
    10    23    24    1
    11    24    25   ar
    12    25    26   ar
    13    26    27    1
    14    26    28   ar
    15    28    29    1
    16    28    30   ar
    17    30    31   ar
    18    15     1    1
    19     1    32    1
    20    32    33    1
    21    33    34    1
    22    34    35    1
    23    35    36    1
    24    36    37    1
    25    37    38    1
    26     1     2    1
    27     2     3   ar
    28     3     4   ar
    29     4     5   ar
    30     5     8    1
    31     8     9   ar
    32     9    10   ar
    33    10    11   ar
    34    11    12   ar
    35    12    13   ar
    36     5     6   ar
    37     6     7   ar
    38    31    19    1
    39    38    33    1
    40     7     2   ar
    41    31    24   ar
    42    13     8   ar
@<TRIPOS>MOLECULE
*****
 38 42 0 0 0
SMALL
GASTEIGER

@<TRIPOS>ATOM
      1 C           2.8518    0.2391   26.9988 C.3     1  UNL1        0.1139
      2 C           1.5880    0.9726   26.6600 C.ar    1  UNL1       -0.0029
      3 C           1.4346    1.6212   25.3162 C.ar    1  UNL1       -0.0026
      4 C           0.1708    2.3547   24.9773 C.ar    1  UNL1       -0.0003
      5 C          -0.9396    2.4396   25.9823 C.ar    1  UNL1       -0.0000
      6 C          -0.7861    1.7910   27.3261 C.ar    1  UNL1       -0.0003
      7 C           0.4777    1.0575   27.6649 C.ar    1  UNL1       -0.0026
      8 C          -2.2033    3.1731   25.6435 C.ar    1  UNL1       -0.0000
      9 C          -2.5185    3.5038   24.2148 C.ar    1  UNL1       -0.0000
     10 C          -3.7823    4.2374   23.8759 C.ar    1  UNL1        0.0000
     11 C          -4.7309    4.6401   24.9658 C.ar    1  UNL1        0.0000
     12 C          -4.4157    4.3094   26.3946 C.ar    1  UNL1        0.0000
     13 C          -3.1519    3.5759   26.7334 C.ar    1  UNL1       -0.0000
     14 C           4.9394    1.7754   26.8208 C.3     1  UNL1        0.1152
     15 N           4.1383    0.6094   26.3222 N.am    1  UNL1       -0.2729
     16 C           4.6237   -0.1863   25.1468 C.2     1  UNL1        0.2465
     17 O           5.9102    0.1840   24.4702 O.2     1  UNL1       -0.2730
     18 C           3.8226   -1.3523   24.6482 C.3     1  UNL1        0.1835
     19 N           4.0529   -1.8837   23.2644 N.am    1  UNL1       -0.2439
     20 C           5.0126   -3.0156   23.0458 C.2     1  UNL1        0.2744
     21 O           5.7419   -3.6161   24.2109 O.2     1  UNL1       -0.2705
     22 C           5.2429   -3.5469   21.6622 C.3     1  UNL1        0.2900
     23 O           4.5136   -2.9463   20.4971 O.3     1  UNL1       -0.4643
     24 C           3.5539   -1.8144   20.7157 C.ar    1  UNL1        0.1537
     25 C           2.8246   -1.2139   19.5506 C.ar    1  UNL1        0.0504
     26 C           1.8649   -0.0820   19.7692 C.ar    1  UNL1        0.0713
     27 CL          1.1356    0.5186   18.6042 Cl      1  UNL1       -0.0813
     28 C           1.6346    0.4494   21.1530 C.ar    1  UNL1        0.0696
     29 CL          0.6749    1.5813   21.3716 Cl      1  UNL1       -0.0813
     30 C           2.3639   -0.1511   22.3180 C.ar    1  UNL1        0.0302
     31 C           3.3236   -1.2831   22.0994 C.ar    1  UNL1        0.0894
     32 C           2.8291   -0.8648   28.0142 C.3     1  UNL1        0.0968
     33 N           3.4454   -0.6536   29.3654 N.3     1  UNL1       -0.2667
     34 C           4.9194   -0.8549   29.5571 C.3     1  UNL1        0.1047
     35 C           5.5357   -0.6437   30.9083 C.3     1  UNL1        0.1595
     36 O           4.6779   -0.2314   32.0677 O.3     1  UNL1       -0.3508
     37 C           3.2039   -0.0301   31.8759 C.3     1  UNL1        0.1595
     38 C           2.5876   -0.2413   30.5248 C.3     1  UNL1        0.1047
@<TRIPOS>BOND
     1    14    15    1
     2    15    16   am
     3    16    17    2
     4    16    18    1
     5    18    19    1
     6    19    20   am
     7    20    21    2
     8    20    22    1
     9    22    23    1
    10    23    24    1
    11    24    25   ar
    12    25    26   ar
    13    26    27    1
    14    26    28   ar
    15    28    29    1
    16    28    30   ar
    17    30    31   ar
    18    15     1    1
    19     1    32    1
    20    32    33    1
    21    33    34    1
    22    34    35    1
    23    35    36    1
    24    36    37    1
    25    37    38    1
    26     1     2    1
    27     2     3   ar
    28     3     4   ar
    29     4     5   ar
    30     5     8    1
    31     8     9   ar
    32     9    10   ar
    33    10    11   ar
    34    11    12   ar
    35    12    13   ar
    36     5     6   ar
    37     6     7   ar
    38    31    19    1
    39    38    33    1
    40     7     2   ar
    41    31    24   ar
    42    13     8   ar
@<TRIPOS>MOLECULE
*****
 38 42 0 0 0
SMALL
GASTEIGER

@<TRIPOS>ATOM
      1 C           4.2307   -0.5724   28.6039 C.3     1  UNL1        0.1139
      2 C           3.9270   -0.6160   27.1357 C.ar    1  UNL1       -0.0029
      3 C           2.9553    0.3602   26.5416 C.ar    1  UNL1       -0.0026
      4 C           2.6516    0.3167   25.0733 C.ar    1  UNL1       -0.0003
      5 C           3.3195   -0.7030   24.1991 C.ar    1  UNL1       -0.0000
      6 C           4.2911   -1.6792   24.7933 C.ar    1  UNL1       -0.0003
      7 C           4.5949   -1.6357   26.2615 C.ar    1  UNL1       -0.0026
      8 C           3.0157   -0.7465   22.7309 C.ar    1  UNL1       -0.0000
      9 C           2.0229    0.2111   22.1417 C.ar    1  UNL1       -0.0000
     10 C           1.7191    0.1676   20.6734 C.ar    1  UNL1        0.0000
     11 C           2.4082   -0.8336   19.7943 C.ar    1  UNL1        0.0000
     12 C           3.4011   -1.7912   20.3835 C.ar    1  UNL1        0.0000
     13 C           3.7048   -1.7477   21.8518 C.ar    1  UNL1       -0.0000
     14 C           6.2657    0.9469   29.1517 C.3     1  UNL1        0.1152
     15 N           5.6471   -0.4173   29.0725 N.am    1  UNL1       -0.2729
     16 C           6.4450   -1.6263   29.4620 C.2     1  UNL1        0.2465
     17 O           7.8614   -1.4712   29.9306 O.2     1  UNL1       -0.2730
     18 C           5.8264   -2.9905   29.3829 C.3     1  UNL1        0.1835
     19 N           6.6667   -4.2101   29.6212 N.am    1  UNL1       -0.2439
     20 C           7.0216   -4.6144   31.0214 C.2     1  UNL1        0.2744
     21 O           6.5363   -3.7993   32.1833 O.2     1  UNL1       -0.2705
     22 C           7.8618   -5.8339   31.2596 C.3     1  UNL1        0.2900
     23 O           8.3471   -6.6491   30.0977 O.3     1  UNL1       -0.4643
     24 C           7.9922   -6.2447   28.6975 C.ar    1  UNL1        0.1537
     25 C           8.4775   -7.0598   27.5356 C.ar    1  UNL1        0.0504
     26 C           8.1226   -6.6554   26.1355 C.ar    1  UNL1        0.0713
     27 CL          8.6079   -7.4706   24.9736 Cl      1  UNL1       -0.0813
     28 C           7.2823   -5.4359   25.8972 C.ar    1  UNL1        0.0696
     29 CL          6.9274   -5.0315   24.4970 Cl      1  UNL1       -0.0813
     30 C           6.7970   -4.6208   27.0591 C.ar    1  UNL1        0.0302
     31 C           7.1520   -5.0252   28.4593 C.ar    1  UNL1        0.0894
     32 C           3.1179   -0.6841   29.6037 C.3     1  UNL1        0.0968
     33 N           3.3497   -0.2864   31.0313 N.3     1  UNL1       -0.2667
     34 C           3.9115   -1.2797   32.0049 C.3     1  UNL1        0.1047
     35 C           4.1432   -0.8820   33.4325 C.3     1  UNL1        0.1595
     36 O           3.8131    0.5090   33.8866 O.3     1  UNL1       -0.3508
     37 C           3.2513    1.5023   32.9130 C.3     1  UNL1        0.1595
     38 C           3.0196    1.1046   31.4854 C.3     1  UNL1        0.1047
@<TRIPOS>BOND
     1    14    15    1
     2    15    16   am
     3    16    17    2
     4    16    18    1
     5    18    19    1
     6    19    20   am
     7    20    21    2
     8    20    22    1
     9    22    23    1
    10    23    24    1
    11    24    25   ar
    12    25    26   ar
    13    26    27    1
    14    26    28   ar
    15    28    29    1
    16    28    30   ar
    17    30    31   ar
    18    15     1    1
    19     1    32    1
    20    32    33    1
    21    33    34    1
    22    34    35    1
    23    35    36    1
    24    36    37    1
    25    37    38    1
    26     1     2    1
    27     2     3   ar
    28     3     4   ar
    29     4     5   ar
    30     5     8    1
    31     8     9   ar
    32     9    10   ar
    33    10    11   ar
    34    11    12   ar
    35    12    13   ar
    36     5     6   ar
    37     6     7   ar
    38    31    19    1
    39    38    33    1
    40     7     2   ar
    41    31    24   ar
    42    13     8   ar
@<TRIPOS>MOLECULE
*****
 38 42 0 0 0
SMALL
GASTEIGER

@<TRIPOS>ATOM
      1 C           4.1447   -0.9452   22.3808 C.3     1  UNL1        0.1139
      2 C           3.0262   -0.1764   23.0194 C.ar    1  UNL1       -0.0029
      3 C           1.9649    0.4518   22.1657 C.ar    1  UNL1       -0.0026
      4 C           0.8463    1.2207   22.8043 C.ar    1  UNL1       -0.0003
      5 C           0.7891    1.3612   24.2966 C.ar    1  UNL1       -0.0000
      6 C           1.8505    0.7329   25.1503 C.ar    1  UNL1       -0.0003
      7 C           2.9690   -0.0359   24.5117 C.ar    1  UNL1       -0.0026
      8 C          -0.3294    2.1300   24.9352 C.ar    1  UNL1       -0.0000
      9 C          -0.6322    1.9424   26.3922 C.ar    1  UNL1       -0.0000
     10 C          -1.7508    2.7112   27.0309 C.ar    1  UNL1        0.0000
     11 C          -2.5664    3.6676   26.2125 C.ar    1  UNL1        0.0000
     12 C          -2.2636    3.8553   24.7553 C.ar    1  UNL1        0.0000
     13 C          -1.1451    3.0865   24.1167 C.ar    1  UNL1       -0.0000
     14 C           6.2396    0.5627   22.0852 C.3     1  UNL1        0.1152
     15 N           5.5688   -0.6189   22.7206 N.am    1  UNL1       -0.2729
     16 C           6.3221   -1.4743   23.6958 C.2     1  UNL1        0.2465
     17 O           7.7462   -1.1480   24.0356 O.2     1  UNL1       -0.2730
     18 C           5.6513   -2.6559   24.3312 C.3     1  UNL1        0.1835
     19 N           6.4777   -3.7609   24.9193 N.am    1  UNL1       -0.2439
     20 C           7.0732   -4.8088   24.0265 C.2     1  UNL1        0.2744
     21 O           6.8423   -4.7518   22.5455 O.2     1  UNL1       -0.2705
     22 C           7.8997   -5.9138   24.6147 C.3     1  UNL1        0.2900
     23 O           8.1306   -5.9708   26.0958 O.3     1  UNL1       -0.4643
     24 C           7.5351   -4.9229   26.9886 C.ar    1  UNL1        0.1537
     25 C           7.7660   -4.9800   28.4696 C.ar    1  UNL1        0.0504
     26 C           7.1705   -3.9320   29.3624 C.ar    1  UNL1        0.0713
     27 CL          7.4014   -3.9891   30.8434 Cl      1  UNL1       -0.0813
     28 C           6.3440   -2.8270   28.7742 C.ar    1  UNL1        0.0696
     29 CL          5.7485   -1.7791   29.6670 Cl      1  UNL1       -0.0813
     30 C           6.1131   -2.7699   27.2932 C.ar    1  UNL1        0.0302
     31 C           6.7086   -3.8180   26.4004 C.ar    1  UNL1        0.0894
     32 C           3.8391   -2.0404   21.4023 C.3     1  UNL1        0.0968
     33 N           4.3315   -1.9422   19.9888 N.3     1  UNL1       -0.2667
     34 C           5.6453   -2.5578   19.6078 C.3     1  UNL1        0.1047
     35 C           6.1377   -2.4596   18.1943 C.3     1  UNL1        0.1595
     36 O           5.3163   -1.7457   17.1619 O.3     1  UNL1       -0.3508
     37 C           4.0027   -1.1302   17.5429 C.3     1  UNL1        0.1595
     38 C           3.5103   -1.2284   18.9564 C.3     1  UNL1        0.1047
@<TRIPOS>BOND
     1    14    15    1
     2    15    16   am
     3    16    17    2
     4    16    18    1
     5    18    19    1
     6    19    20   am
     7    20    21    2
     8    20    22    1
     9    22    23    1
    10    23    24    1
    11    24    25   ar
    12    25    26   ar
    13    26    27    1
    14    26    28   ar
    15    28    29    1
    16    28    30   ar
    17    30    31   ar
    18    15     1    1
    19     1    32    1
    20    32    33    1
    21    33    34    1
    22    34    35    1
    23    35    36    1
    24    36    37    1
    25    37    38    1
    26     1     2    1
    27     2     3   ar
    28     3     4   ar
    29     4     5   ar
    30     5     8    1
    31     8     9   ar
    32     9    10   ar
    33    10    11   ar
    34    11    12   ar
    35    12    13   ar
    36     5     6   ar
    37     6     7   ar
    38    31    19    1
    39    38    33    1
    40     7     2   ar
    41    31    24   ar
    42    13     8   ar
@<TRIPOS>MOLECULE
*****
 38 42 0 0 0
SMALL
GASTEIGER

@<TRIPOS>ATOM
      1 C           1.7221    0.9045   21.8557 C.3     1  UNL1        0.1139
      2 C           0.7024    1.6067   22.7024 C.ar    1  UNL1       -0.0029
      3 C           0.5738    1.2672   24.1578 C.ar    1  UNL1       -0.0026
      4 C          -0.4460    1.9694   25.0045 C.ar    1  UNL1       -0.0003
      5 C          -1.3372    3.0112   24.3959 C.ar    1  UNL1       -0.0000
      6 C          -1.2085    3.3507   22.9404 C.ar    1  UNL1       -0.0003
      7 C          -0.1888    2.6485   22.0937 C.ar    1  UNL1       -0.0026
      8 C          -2.3569    3.7135   25.2425 C.ar    1  UNL1       -0.0000
      9 C          -3.8190    3.4708   25.0115 C.ar    1  UNL1       -0.0000
     10 C          -4.8388    4.1730   25.8582 C.ar    1  UNL1        0.0000
     11 C          -4.3965    5.1180   26.9359 C.ar    1  UNL1        0.0000
     12 C          -2.9343    5.3607   27.1669 C.ar    1  UNL1        0.0000
     13 C          -1.9146    4.6584   26.3202 C.ar    1  UNL1       -0.0000
     14 C           3.7209    2.4538   21.2605 C.3     1  UNL1        0.1152
     15 N           3.1743    1.2581   21.9826 N.am    1  UNL1       -0.2729
     16 C           4.0799    0.4161   22.8318 C.2     1  UNL1        0.2465
     17 O           5.5320    0.7698   22.9587 O.2     1  UNL1       -0.2730
     18 C           3.5333   -0.7796   23.5539 C.3     1  UNL1        0.1835
     19 N           4.3806   -1.4998   24.5606 N.am    1  UNL1       -0.2439
     20 C           4.2116   -1.2156   26.0237 C.2     1  UNL1        0.2744
     21 O           3.1954   -0.2112   26.4802 O.2     1  UNL1       -0.2705
     22 C           5.0589   -1.9359   27.0303 C.3     1  UNL1        0.2900
     23 O           6.0752   -2.9403   26.5739 O.3     1  UNL1       -0.4643
     24 C           6.2441   -3.2245   25.1108 C.ar    1  UNL1        0.1537
     25 C           7.2603   -4.2290   24.6543 C.ar    1  UNL1        0.0504
     26 C           7.4293   -4.5132   23.1913 C.ar    1  UNL1        0.0713
     27 CL          8.4455   -5.5176   22.7348 Cl      1  UNL1       -0.0813
     28 C           6.5820   -3.7929   22.1845 C.ar    1  UNL1        0.0696
     29 CL          6.7509   -4.0771   20.7215 Cl      1  UNL1       -0.0813
     30 C           5.5657   -2.7885   22.6410 C.ar    1  UNL1        0.0302
     31 C           5.3968   -2.5043   24.1042 C.ar    1  UNL1        0.0894
     32 C           1.2897   -0.1516   20.8821 C.3     1  UNL1        0.0968
     33 N           2.2373   -0.6262   19.8206 N.3     1  UNL1       -0.2667
     34 C           3.0055   -1.8998   20.0159 C.3     1  UNL1        0.1047
     35 C           3.9531   -2.3744   18.9544 C.3     1  UNL1        0.1595
     36 O           4.1325   -1.5754   17.6976 O.3     1  UNL1       -0.3508
     37 C           3.3644   -0.3020   17.5023 C.3     1  UNL1        0.1595
     38 C           2.4168    0.1727   18.5638 C.3     1  UNL1        0.1047
@<TRIPOS>BOND
     1    14    15    1
     2    15    16   am
     3    16    17    2
     4    16    18    1
     5    18    19    1
     6    19    20   am
     7    20    21    2
     8    20    22    1
     9    22    23    1
    10    23    24    1
    11    24    25   ar
    12    25    26   ar
    13    26    27    1
    14    26    28   ar
    15    28    29    1
    16    28    30   ar
    17    30    31   ar
    18    15     1    1
    19     1    32    1
    20    32    33    1
    21    33    34    1
    22    34    35    1
    23    35    36    1
    24    36    37    1
    25    37    38    1
    26     1     2    1
    27     2     3   ar
    28     3     4   ar
    29     4     5   ar
    30     5     8    1
    31     8     9   ar
    32     9    10   ar
    33    10    11   ar
    34    11    12   ar
    35    12    13   ar
    36     5     6   ar
    37     6     7   ar
    38    31    19    1
    39    38    33    1
    40     7     2   ar
    41    31    24   ar
    42    13     8   ar
@<TRIPOS>MOLECULE
*****
 38 42 0 0 0
SMALL
GASTEIGER

@<TRIPOS>ATOM
      1 C           4.5324   -0.5545   26.5032 C.3     1  UNL1        0.1139
      2 C           5.2893   -1.8489   26.4653 C.ar    1  UNL1       -0.0029
      3 C           5.6992   -2.4397   25.1489 C.ar    1  UNL1       -0.0026
      4 C           6.4561   -3.7342   25.1110 C.ar    1  UNL1       -0.0003
      5 C           6.8031   -4.4379   26.3894 C.ar    1  UNL1       -0.0000
      6 C           6.3931   -3.8471   27.7058 C.ar    1  UNL1       -0.0003
      7 C           5.6362   -2.5526   27.7437 C.ar    1  UNL1       -0.0026
      8 C           7.5600   -5.7324   26.3515 C.ar    1  UNL1       -0.0000
      9 C           7.9069   -6.4359   27.6300 C.ar    1  UNL1       -0.0000
     10 C           8.6638   -7.7305   27.5921 C.ar    1  UNL1        0.0000
     11 C           9.0737   -8.3213   26.2758 C.ar    1  UNL1        0.0000
     12 C           8.7267   -7.6177   24.9973 C.ar    1  UNL1        0.0000
     13 C           7.9699   -6.3232   25.0351 C.ar    1  UNL1       -0.0000
     14 C           6.1352    1.3877   25.8637 C.3     1  UNL1        0.1152
     15 N           4.9137    0.5646   25.5800 N.am    1  UNL1       -0.2729
     16 C           4.0735    0.8605   24.3731 C.2     1  UNL1        0.2465
     17 O           4.4548    1.9796   23.4499 O.2     1  UNL1       -0.2730
     18 C           2.8521    0.0374   24.0894 C.3     1  UNL1        0.1835
     19 N           2.3157   -0.0516   22.6914 N.am    1  UNL1       -0.2439
     20 C           1.1960    0.8479   22.2590 C.2     1  UNL1        0.2744
     21 O           0.6126    1.8365   23.2245 O.2     1  UNL1       -0.2705
     22 C           0.6597    0.7588   20.8610 C.3     1  UNL1        0.2900
     23 O           1.2431   -0.2298   19.8954 O.3     1  UNL1       -0.4643
     24 C           2.3628   -1.1293   20.3278 C.ar    1  UNL1        0.1537
     25 C           2.9462   -2.1178   19.3622 C.ar    1  UNL1        0.0504
     26 C           4.0660   -3.0174   19.7946 C.ar    1  UNL1        0.0713
     27 CL          4.6494   -4.0059   18.8291 Cl      1  UNL1       -0.0813
     28 C           4.6023   -2.9283   21.1927 C.ar    1  UNL1        0.0696
     29 CL          5.7221   -3.8278   21.6251 Cl      1  UNL1       -0.0813
     30 C           4.0189   -1.9397   22.1582 C.ar    1  UNL1        0.0302
     31 C           2.8991   -1.0402   21.7258 C.ar    1  UNL1        0.0894
     32 C           3.3942   -0.3791   27.4643 C.3     1  UNL1        0.0968
     33 N           3.6693   -0.0294   28.8968 N.3     1  UNL1       -0.2667
     34 C           4.8406    0.8408   29.2448 C.3     1  UNL1        0.1047
     35 C           5.1157    1.1905   30.6773 C.3     1  UNL1        0.1595
     36 O           4.2195    0.6700   31.7618 O.3     1  UNL1       -0.3508
     37 C           3.0483   -0.2000   31.4137 C.3     1  UNL1        0.1595
     38 C           2.7732   -0.5497   29.9813 C.3     1  UNL1        0.1047
@<TRIPOS>BOND
     1    14    15    1
     2    15    16   am
     3    16    17    2
     4    16    18    1
     5    18    19    1
     6    19    20   am
     7    20    21    2
     8    20    22    1
     9    22    23    1
    10    23    24    1
    11    24    25   ar
    12    25    26   ar
    13    26    27    1
    14    26    28   ar
    15    28    29    1
    16    28    30   ar
    17    30    31   ar
    18    15     1    1
    19     1    32    1
    20    32    33    1
    21    33    34    1
    22    34    35    1
    23    35    36    1
    24    36    37    1
    25    37    38    1
    26     1     2    1
    27     2     3   ar
    28     3     4   ar
    29     4     5   ar
    30     5     8    1
    31     8     9   ar
    32     9    10   ar
    33    10    11   ar
    34    11    12   ar
    35    12    13   ar
    36     5     6   ar
    37     6     7   ar
    38    31    19    1
    39    38    33    1
    40     7     2   ar
    41    31    24   ar
    42    13     8   ar
@<TRIPOS>MOLECULE
*****
 38 42 0 0 0
SMALL
GASTEIGER

@<TRIPOS>ATOM
      1 C           6.0295   -1.3447   20.3823 C.3     1  UNL1        0.1139
      2 C           5.0706   -0.8572   21.4276 C.ar    1  UNL1       -0.0029
      3 C           3.7299   -1.5123   21.5795 C.ar    1  UNL1       -0.0026
      4 C           2.7709   -1.0248   22.6249 C.ar    1  UNL1       -0.0003
      5 C           3.1528    0.1180   23.5184 C.ar    1  UNL1       -0.0000
      6 C           4.4936    0.7732   23.3665 C.ar    1  UNL1       -0.0003
      7 C           5.4525    0.2856   22.3211 C.ar    1  UNL1       -0.0026
      8 C           2.1940    0.6055   24.5637 C.ar    1  UNL1       -0.0000
      9 C           2.6163    0.6596   26.0020 C.ar    1  UNL1       -0.0000
     10 C           1.6574    1.1472   27.0475 C.ar    1  UNL1        0.0000
     11 C           0.2762    1.5807   26.6546 C.ar    1  UNL1        0.0000
     12 C          -0.1461    1.5266   25.2162 C.ar    1  UNL1        0.0000
     13 C           0.8128    1.0391   24.1708 C.ar    1  UNL1       -0.0000
     14 C           5.3191   -2.7944   18.3467 C.3     1  UNL1        0.1152
     15 N           5.5902   -1.4490   18.9518 N.am    1  UNL1       -0.2729
     16 C           5.4221   -0.2077   18.1265 C.2     1  UNL1        0.2465
     17 O           4.9828   -0.3120   16.6961 O.2     1  UNL1       -0.2730
     18 C           5.6932    1.1377   18.7317 C.3     1  UNL1        0.1835
     19 N           4.9684    2.3486   18.2232 N.am    1  UNL1       -0.2439
     20 C           5.6913    3.3560   17.3791 C.2     1  UNL1        0.2744
     21 O           7.1391    3.1525   17.0435 O.2     1  UNL1       -0.2705
     22 C           4.9666    4.5668   16.8707 C.3     1  UNL1        0.2900
     23 O           3.5188    4.7703   17.2064 O.3     1  UNL1       -0.4643
     24 C           2.7959    3.7629   18.0505 C.ar    1  UNL1        0.1537
     25 C           1.3481    3.9664   18.3861 C.ar    1  UNL1        0.0504
     26 C           0.6252    2.9590   19.2302 C.ar    1  UNL1        0.0713
     27 CL         -0.8225    3.1625   19.5659 Cl      1  UNL1       -0.0813
     28 C           1.3500    1.7481   19.7387 C.ar    1  UNL1        0.0696
     29 CL          0.6270    0.7408   20.5827 Cl      1  UNL1       -0.0813
     30 C           2.7977    1.5447   19.4030 C.ar    1  UNL1        0.0302
     31 C           3.5207    2.5521   18.5589 C.ar    1  UNL1        0.0894
     32 C           7.4277   -1.7281   20.7673 C.3     1  UNL1        0.0968
     33 N           7.6936   -3.0659   21.3915 N.3     1  UNL1       -0.2667
     34 C           7.1328   -3.3866   22.7453 C.3     1  UNL1        0.1047
     35 C           7.3988   -4.7244   23.3695 C.3     1  UNL1        0.1595
     36 O           8.2254   -5.7414   22.6399 O.3     1  UNL1       -0.3508
     37 C           8.7861   -5.4207   21.2861 C.3     1  UNL1        0.1595
     38 C           8.5202   -4.0829   20.6620 C.3     1  UNL1        0.1047
@<TRIPOS>BOND
     1    14    15    1
     2    15    16   am
     3    16    17    2
     4    16    18    1
     5    18    19    1
     6    19    20   am
     7    20    21    2
     8    20    22    1
     9    22    23    1
    10    23    24    1
    11    24    25   ar
    12    25    26   ar
    13    26    27    1
    14    26    28   ar
    15    28    29    1
    16    28    30   ar
    17    30    31   ar
    18    15     1    1
    19     1    32    1
    20    32    33    1
    21    33    34    1
    22    34    35    1
    23    35    36    1
    24    36    37    1
    25    37    38    1
    26     1     2    1
    27     2     3   ar
    28     3     4   ar
    29     4     5   ar
    30     5     8    1
    31     8     9   ar
    32     9    10   ar
    33    10    11   ar
    34    11    12   ar
    35    12    13   ar
    36     5     6   ar
    37     6     7   ar
    38    31    19    1
    39    38    33    1
    40     7     2   ar
    41    31    24   ar
    42    13     8   ar
