@<TRIPOS>MOLECULE
*****
 35 38 0 0 0
SMALL
GASTEIGER

@<TRIPOS>ATOM
      1 N           3.7621    2.0987   36.3061 N.am    1  UNL1       -0.2668
      2 C           2.8301    2.5744   35.2315 C.2     1  UNL1        0.3077
      3 O           1.9823    3.7909   35.4584 O.2     1  UNL1       -0.2522
      4 N           2.7458    1.8336   33.9299 N.am    1  UNL1       -0.2633
      5 C           1.8137    2.3094   32.8552 C.3     1  UNL1        0.0993
      6 C           1.7294    1.5686   31.5536 C.3     1  UNL1        0.0436
      7 C           2.5772    0.3521   31.3267 C.2     1  UNL1       -0.0408
      8 C           2.4929   -0.3887   30.0251 C.2     1  UNL1       -0.0083
      9 C           3.5092   -0.1236   32.4013 C.3     1  UNL1        0.0436
     10 C           3.5935    0.6172   33.7029 C.3     1  UNL1        0.0993
     11 H           4.3186    1.3003   36.1572 H       1  UNL1        0.1565
     12 C           4.0994    5.0618   41.5125 C.3     1  UNL1        0.0521
     13 C           4.0151    4.3210   40.2109 C.ar    1  UNL1        0.0595
     14 C           5.0087    4.6012   39.1228 C.ar    1  UNL1        0.0160
     15 C           4.9244    3.8604   37.8212 C.ar    1  UNL1        0.0175
     16 C           3.8465    2.8395   37.6077 C.ar    1  UNL1        0.0709
     17 C           2.8528    2.5593   38.6959 C.ar    1  UNL1        0.1131
     18 N           2.9371    3.3000   39.9975 N.ar    1  UNL1       -0.2468
     19 C           1.5608    0.0871   28.9504 C.ar    1  UNL1        0.0024
     20 C           0.0817   -0.1143   29.0972 C.ar    1  UNL1        0.0002
     21 C          -0.8505    0.3614   28.0225 C.ar    1  UNL1        0.0031
     22 C          -0.3034    1.0386   26.8010 C.ar    1  UNL1        0.0376
     23 C           1.1758    1.2400   26.6542 C.ar    1  UNL1        0.1472
     24 C           2.1078    0.7642   27.7288 C.ar    1  UNL1        0.0375
     25 O           1.7229    1.9171   25.4326 O.3     1  UNL1       -0.4361
     26 C           1.9701    1.1248   24.1831 C.ar    1  UNL1        0.2297
     27 C           2.8200   -0.1101   24.2339 C.ar    1  UNL1        0.0581
     28 C           3.0671   -0.9024   22.9845 C.ar    1  UNL1        0.0102
     29 C           2.4643   -0.4597   21.6842 C.ar    1  UNL1        0.0907
     30 C           1.6144    0.7752   21.6334 C.ar    1  UNL1        0.1059
     31 N           1.3673    1.5674   22.8828 N.ar    1  UNL1       -0.2099
     32 C           2.7115   -1.2521   20.4347 C.3     1  UNL1        0.4200
     33 F           2.9587   -2.0444   19.1853 F       1  UNL1       -0.1658
     34 F           1.2419   -1.2377   20.1348 F       1  UNL1       -0.1658
     35 F           4.1811   -1.2664   20.7346 F       1  UNL1       -0.1658
@<TRIPOS>BOND
     1    12    13    1
     2    13    14   ar
     3    14    15   ar
     4    15    16   ar
     5    16     1    1
     6     1     2   am
     7     2     3    2
     8     2     4   am
     9     4     5    1
    10     5     6    1
    11     6     7    1
    12     7     8    2
    13     8    19    1
    14    19    20   ar
    15    20    21   ar
    16    21    22   ar
    17    22    23   ar
    18    23    25    1
    19    25    26    1
    20    26    27   ar
    21    27    28   ar
    22    28    29   ar
    23    29    32    1
    24    32    33    1
    25    32    34    1
    26    32    35    1
    27    29    30   ar
    28    30    31   ar
    29    23    24   ar
    30     7     9    1
    31     9    10    1
    32    16    17   ar
    33    17    18   ar
    34    18    13   ar
    35    10     4    1
    36    24    19   ar
    37    31    26   ar
    38     1    11    1
@<TRIPOS>MOLECULE
*****
 35 38 0 0 0
SMALL
GASTEIGER

@<TRIPOS>ATOM
      1 N          -7.6575    4.4459   24.4304 N.am    1  UNL1       -0.2668
      2 C          -6.9360    4.5579   23.1202 C.2     1  UNL1        0.3077
      3 O          -7.6817    4.9722   21.8863 O.2     1  UNL1       -0.2522
      4 N          -5.4687    4.2557   23.0437 N.am    1  UNL1       -0.2633
      5 C          -4.7472    4.3677   21.7333 C.3     1  UNL1        0.0993
      6 C          -3.2800    4.0654   21.6569 C.3     1  UNL1        0.0436
      7 C          -2.5343    3.6511   22.8907 C.2     1  UNL1       -0.0408
      8 C          -1.0670    3.3488   22.8142 C.2     1  UNL1       -0.0083
      9 C          -3.2558    3.5391   24.2010 C.3     1  UNL1        0.0436
     10 C          -4.7230    3.8414   24.2775 C.3     1  UNL1        0.0993
     11 H          -7.1681    4.1740   25.2402 H       1  UNL1        0.1565
     12 C         -13.5264    5.6550   24.7364 C.3     1  UNL1        0.0521
     13 C         -12.0592    5.3528   24.6599 C.ar    1  UNL1        0.0595
     14 C         -11.5903    3.9311   24.5655 C.ar    1  UNL1        0.0160
     15 C         -10.1230    3.6288   24.4890 C.ar    1  UNL1        0.0175
     16 C          -9.1247    4.7482   24.5069 C.ar    1  UNL1        0.0709
     17 C          -9.5937    6.1699   24.6013 C.ar    1  UNL1        0.1131
     18 N         -11.0609    6.4721   24.6778 N.ar    1  UNL1       -0.2468
     19 C          -0.3455    3.4608   21.5039 C.ar    1  UNL1        0.0024
     20 C           0.2609    4.7692   21.0910 C.ar    1  UNL1        0.0002
     21 C           0.9824    4.8812   19.7807 C.ar    1  UNL1        0.0031
     22 C           1.0975    3.6848   18.8832 C.ar    1  UNL1        0.0376
     23 C           0.4910    2.3764   19.2962 C.ar    1  UNL1        0.1472
     24 C          -0.2304    2.2645   20.6064 C.ar    1  UNL1        0.0375
     25 O           0.6061    1.1800   18.3987 O.3     1  UNL1       -0.4361
     26 C           1.6885    0.1682   18.6329 C.ar    1  UNL1        0.2297
     27 C           1.6338   -0.7233   19.8380 C.ar    1  UNL1        0.0581
     28 C           2.7161   -1.7350   20.0721 C.ar    1  UNL1        0.0102
     29 C           3.8531   -1.8554   19.1010 C.ar    1  UNL1        0.0907
     30 C           3.9077   -0.9640   17.8959 C.ar    1  UNL1        0.1059
     31 N           2.8254    0.0478   17.6618 N.ar    1  UNL1       -0.2099
     32 C           4.9354   -2.8673   19.3352 C.3     1  UNL1        0.4200
     33 F           6.0177   -3.8791   19.5694 F       1  UNL1       -0.1658
     34 F           5.3859   -2.7146   17.9126 F       1  UNL1       -0.1658
     35 F           4.4849   -3.0199   20.7577 F       1  UNL1       -0.1658
@<TRIPOS>BOND
     1    12    13    1
     2    13    14   ar
     3    14    15   ar
     4    15    16   ar
     5    16     1    1
     6     1     2   am
     7     2     3    2
     8     2     4   am
     9     4     5    1
    10     5     6    1
    11     6     7    1
    12     7     8    2
    13     8    19    1
    14    19    20   ar
    15    20    21   ar
    16    21    22   ar
    17    22    23   ar
    18    23    25    1
    19    25    26    1
    20    26    27   ar
    21    27    28   ar
    22    28    29   ar
    23    29    32    1
    24    32    33    1
    25    32    34    1
    26    32    35    1
    27    29    30   ar
    28    30    31   ar
    29    23    24   ar
    30     7     9    1
    31     9    10    1
    32    16    17   ar
    33    17    18   ar
    34    18    13   ar
    35    10     4    1
    36    24    19   ar
    37    31    26   ar
    38     1    11    1
@<TRIPOS>MOLECULE
*****
 35 38 0 0 0
SMALL
GASTEIGER

@<TRIPOS>ATOM
      1 N           5.9881   -2.9590   30.8834 N.am    1  UNL1       -0.2668
      2 C           6.1271   -2.1503   29.6278 C.2     1  UNL1        0.3077
      3 O           5.9585   -0.6604   29.6727 O.2     1  UNL1       -0.2522
      4 N           6.4346   -2.8314   28.3272 N.am    1  UNL1       -0.2633
      5 C           6.5735   -2.0226   27.0715 C.3     1  UNL1        0.0993
      6 C           6.8810   -2.7037   25.7709 C.3     1  UNL1        0.0436
      7 C           7.0496   -4.1935   25.7260 C.2     1  UNL1       -0.0408
      8 C           7.3571   -4.8746   24.4254 C.2     1  UNL1       -0.0083
      9 C           6.9107   -5.0022   26.9817 C.3     1  UNL1        0.0436
     10 C           6.6032   -4.3211   28.2823 C.3     1  UNL1        0.0993
     11 H           6.0988   -3.9368   30.8540 H       1  UNL1        0.1565
     12 C           4.7580   -0.2346   36.0858 C.3     1  UNL1        0.0521
     13 C           5.0655   -0.9157   34.7852 C.ar    1  UNL1        0.0595
     14 C           6.4167   -0.7530   34.1545 C.ar    1  UNL1        0.0160
     15 C           6.7242   -1.4340   32.8539 C.ar    1  UNL1        0.0175
     16 C           5.6806   -2.2779   32.1840 C.ar    1  UNL1        0.0709
     17 C           4.3294   -2.4406   32.8148 C.ar    1  UNL1        0.1131
     18 N           4.0219   -1.7595   34.1154 N.ar    1  UNL1       -0.2468
     19 C           7.4961   -4.0658   23.1698 C.ar    1  UNL1        0.0024
     20 C           8.6349   -3.1009   23.0213 C.ar    1  UNL1        0.0002
     21 C           8.7738   -2.2922   21.7656 C.ar    1  UNL1        0.0031
     22 C           7.7739   -2.4483   20.6585 C.ar    1  UNL1        0.0376
     23 C           6.6351   -3.4133   20.8070 C.ar    1  UNL1        0.1472
     24 C           6.4962   -4.2220   22.0626 C.ar    1  UNL1        0.0375
     25 O           5.6352   -3.5695   19.6998 O.3     1  UNL1       -0.4361
     26 C           4.6197   -2.4943   19.4491 C.ar    1  UNL1        0.2297
     27 C           3.6659   -2.0953   20.5359 C.ar    1  UNL1        0.0581
     28 C           2.6505   -1.0202   20.2852 C.ar    1  UNL1        0.0102
     29 C           2.5889   -0.3439   18.9476 C.ar    1  UNL1        0.0907
     30 C           3.5427   -0.7429   17.8609 C.ar    1  UNL1        0.1059
     31 N           4.5581   -1.8181   18.1116 N.ar    1  UNL1       -0.2099
     32 C           1.5734    0.7313   18.6969 C.3     1  UNL1        0.4200
     33 F           0.5580    1.8064   18.4463 F       1  UNL1       -0.1658
     34 F           2.6030    1.5307   17.9549 F       1  UNL1       -0.1658
     35 F           0.5438   -0.0682   19.4390 F       1  UNL1       -0.1658
@<TRIPOS>BOND
     1    12    13    1
     2    13    14   ar
     3    14    15   ar
     4    15    16   ar
     5    16     1    1
     6     1     2   am
     7     2     3    2
     8     2     4   am
     9     4     5    1
    10     5     6    1
    11     6     7    1
    12     7     8    2
    13     8    19    1
    14    19    20   ar
    15    20    21   ar
    16    21    22   ar
    17    22    23   ar
    18    23    25    1
    19    25    26    1
    20    26    27   ar
    21    27    28   ar
    22    28    29   ar
    23    29    32    1
    24    32    33    1
    25    32    34    1
    26    32    35    1
    27    29    30   ar
    28    30    31   ar
    29    23    24   ar
    30     7     9    1
    31     9    10    1
    32    16    17   ar
    33    17    18   ar
    34    18    13   ar
    35    10     4    1
    36    24    19   ar
    37    31    26   ar
    38     1    11    1
@<TRIPOS>MOLECULE
*****
 35 38 0 0 0
SMALL
GASTEIGER

@<TRIPOS>ATOM
      1 N         -17.7008   -0.3051   20.4088 N.am    1  UNL1       -0.2668
      2 C         -16.7825   -1.4588   20.1339 C.2     1  UNL1        0.3077
      3 O         -15.2980   -1.2456   20.1053 O.2     1  UNL1       -0.2522
      4 N         -17.3487   -2.8259   19.8877 N.am    1  UNL1       -0.2633
      5 C         -16.4303   -3.9797   19.6128 C.3     1  UNL1        0.0993
      6 C         -16.9964   -5.3467   19.3666 C.3     1  UNL1        0.0436
      7 C         -18.4810   -5.5600   19.3953 C.2     1  UNL1       -0.0408
      8 C         -19.0471   -6.9271   19.1491 C.2     1  UNL1       -0.0083
      9 C         -19.3993   -4.4063   19.6701 C.3     1  UNL1        0.0436
     10 C         -18.8331   -3.0392   19.9164 C.3     1  UNL1        0.0993
     11 H         -18.6751   -0.4451   20.4276 H       1  UNL1        0.1565
     12 C         -15.4362    5.1631   21.3937 C.3     1  UNL1        0.0521
     13 C         -16.0023    3.7961   21.1474 C.ar    1  UNL1        0.0595
     14 C         -16.8192    3.1203   22.2086 C.ar    1  UNL1        0.0160
     15 C         -17.3853    1.7532   21.9624 C.ar    1  UNL1        0.0175
     16 C         -17.1346    1.0619   20.6550 C.ar    1  UNL1        0.0709
     17 C         -16.3178    1.7377   19.5939 C.ar    1  UNL1        0.1131
     18 N         -15.7516    3.1048   19.8401 N.ar    1  UNL1       -0.2468
     19 C         -18.1287   -8.0808   18.8742 C.ar    1  UNL1        0.0024
     20 C         -18.4489   -9.4408   19.4200 C.ar    1  UNL1        0.0002
     21 C         -17.5305  -10.5946   19.1451 C.ar    1  UNL1        0.0031
     22 C         -16.2920  -10.3883   18.3244 C.ar    1  UNL1        0.0376
     23 C         -15.9719   -9.0282   17.7786 C.ar    1  UNL1        0.1472
     24 C         -16.8902   -7.8745   18.0535 C.ar    1  UNL1        0.0375
     25 O         -14.7333   -8.8219   16.9580 O.3     1  UNL1       -0.4361
     26 C         -13.6458   -7.9168   17.4560 C.ar    1  UNL1        0.2297
     27 C         -13.8320   -7.1530   18.7334 C.ar    1  UNL1        0.0581
     28 C         -12.7444   -6.2479   19.2314 C.ar    1  UNL1        0.0102
     29 C         -11.4707   -6.1066   18.4519 C.ar    1  UNL1        0.0907
     30 C         -11.2845   -6.8703   17.1744 C.ar    1  UNL1        0.1059
     31 N         -12.3720   -7.7754   16.6765 N.ar    1  UNL1       -0.2099
     32 C         -10.3831   -5.2014   18.9499 C.3     1  UNL1        0.4200
     33 F          -9.2956   -4.2963   19.4479 F       1  UNL1       -0.1658
     34 F          -9.3550   -6.2208   18.5577 F       1  UNL1       -0.1658
     35 F         -11.4112   -4.1820   19.3421 F       1  UNL1       -0.1658
@<TRIPOS>BOND
     1    12    13    1
     2    13    14   ar
     3    14    15   ar
     4    15    16   ar
     5    16     1    1
     6     1     2   am
     7     2     3    2
     8     2     4   am
     9     4     5    1
    10     5     6    1
    11     6     7    1
    12     7     8    2
    13     8    19    1
    14    19    20   ar
    15    20    21   ar
    16    21    22   ar
    17    22    23   ar
    18    23    25    1
    19    25    26    1
    20    26    27   ar
    21    27    28   ar
    22    28    29   ar
    23    29    32    1
    24    32    33    1
    25    32    34    1
    26    32    35    1
    27    29    30   ar
    28    30    31   ar
    29    23    24   ar
    30     7     9    1
    31     9    10    1
    32    16    17   ar
    33    17    18   ar
    34    18    13   ar
    35    10     4    1
    36    24    19   ar
    37    31    26   ar
    38     1    11    1
@<TRIPOS>MOLECULE
*****
 35 38 0 0 0
SMALL
GASTEIGER

@<TRIPOS>ATOM
      1 N           0.9026    2.4630   31.6611 N.am    1  UNL1       -0.2668
      2 C           1.4855    3.0949   30.4320 C.2     1  UNL1        0.3077
      3 O           2.4490    4.2374   30.5610 O.2     1  UNL1       -0.2522
      4 N           1.1051    2.5844   29.0738 N.am    1  UNL1       -0.2633
      5 C           1.6881    3.2164   27.8446 C.3     1  UNL1        0.0993
      6 C           1.3076    2.7059   26.4864 C.3     1  UNL1        0.0436
      7 C           0.3442    1.5634   26.3574 C.2     1  UNL1       -0.0408
      8 C          -0.0362    1.0529   24.9992 C.2     1  UNL1       -0.0083
      9 C          -0.2388    0.9315   27.5865 C.3     1  UNL1        0.0436
     10 C           0.1417    1.4420   28.9447 C.3     1  UNL1        0.0993
     11 H           0.2702    1.7132   31.5764 H       1  UNL1        0.1565
     12 C           2.4243    4.5050   37.0938 C.3     1  UNL1        0.0521
     13 C           2.0439    3.9945   35.7356 C.ar    1  UNL1        0.0595
     14 C           1.2323    4.8534   34.8118 C.ar    1  UNL1        0.0160
     15 C           0.8519    4.3429   33.4536 C.ar    1  UNL1        0.0175
     16 C           1.2830    2.9735   33.0193 C.ar    1  UNL1        0.0709
     17 C           2.0946    2.1146   33.9431 C.ar    1  UNL1        0.1131
     18 N           2.4750    2.6250   35.3013 N.ar    1  UNL1       -0.2468
     19 C           0.5468    1.6849   23.7701 C.ar    1  UNL1        0.0024
     20 C          -0.2143    2.7540   23.0435 C.ar    1  UNL1        0.0002
     21 C           0.3688    3.3860   21.8143 C.ar    1  UNL1        0.0031
     22 C           1.7128    2.9489   21.3118 C.ar    1  UNL1        0.0376
     23 C           2.4738    1.8798   22.0385 C.ar    1  UNL1        0.1472
     24 C           1.8908    1.2478   23.2676 C.ar    1  UNL1        0.0375
     25 O           3.8179    1.4427   21.5360 O.3     1  UNL1       -0.4361
     26 C           3.9741    0.1022   20.8810 C.ar    1  UNL1        0.2297
     27 C           2.7627   -0.6542   20.4225 C.ar    1  UNL1        0.0581
     28 C           2.9190   -1.9946   19.7675 C.ar    1  UNL1        0.0102
     29 C           4.2866   -2.5785   19.5711 C.ar    1  UNL1        0.0907
     30 C           5.4980   -1.8220   20.0296 C.ar    1  UNL1        0.1059
     31 N           5.3417   -0.4817   20.6846 N.ar    1  UNL1       -0.2099
     32 C           4.4428   -3.9189   18.9161 C.3     1  UNL1        0.4200
     33 F           4.5991   -5.2592   18.2612 F       1  UNL1       -0.1658
     34 F           2.9988   -4.2200   19.1879 F       1  UNL1       -0.1658
     35 F           5.8869   -3.6178   18.6444 F       1  UNL1       -0.1658
@<TRIPOS>BOND
     1    12    13    1
     2    13    14   ar
     3    14    15   ar
     4    15    16   ar
     5    16     1    1
     6     1     2   am
     7     2     3    2
     8     2     4   am
     9     4     5    1
    10     5     6    1
    11     6     7    1
    12     7     8    2
    13     8    19    1
    14    19    20   ar
    15    20    21   ar
    16    21    22   ar
    17    22    23   ar
    18    23    25    1
    19    25    26    1
    20    26    27   ar
    21    27    28   ar
    22    28    29   ar
    23    29    32    1
    24    32    33    1
    25    32    34    1
    26    32    35    1
    27    29    30   ar
    28    30    31   ar
    29    23    24   ar
    30     7     9    1
    31     9    10    1
    32    16    17   ar
    33    17    18   ar
    34    18    13   ar
    35    10     4    1
    36    24    19   ar
    37    31    26   ar
    38     1    11    1
@<TRIPOS>MOLECULE
*****
 35 38 0 0 0
SMALL
GASTEIGER

@<TRIPOS>ATOM
      1 N           0.7237    1.8960   26.7211 N.am    1  UNL1       -0.2668
      2 C           1.7768    1.1316   25.9751 C.2     1  UNL1        0.3077
      3 O           2.9506    0.5577   26.7120 O.2     1  UNL1       -0.2522
      4 N           1.6563    0.9412   24.4921 N.am    1  UNL1       -0.2633
      5 C           2.7095    0.1768   23.7461 C.3     1  UNL1        0.0993
      6 C           2.5890   -0.0137   22.2631 C.3     1  UNL1        0.0436
      7 C           1.4152    0.5602   21.5262 C.2     1  UNL1       -0.0408
      8 C           1.2947    0.3697   20.0432 C.2     1  UNL1       -0.0083
      9 C           0.3621    1.3245   22.2722 C.3     1  UNL1        0.0436
     10 C           0.4826    1.5150   23.7552 C.3     1  UNL1        0.0993
     11 H          -0.0466    2.2726   26.2374 H       1  UNL1        0.1565
     12 C           1.2059    2.6579   32.6530 C.3     1  UNL1        0.0521
     13 C           1.0853    2.4674   31.1700 C.ar    1  UNL1        0.0595
     14 C           1.4822    3.5729   30.2371 C.ar    1  UNL1        0.0160
     15 C           1.3617    3.3824   28.7542 C.ar    1  UNL1        0.0175
     16 C           0.8442    2.0865   28.2041 C.ar    1  UNL1        0.0709
     17 C           0.4473    0.9810   29.1369 C.ar    1  UNL1        0.1131
     18 N           0.5678    1.1714   30.6199 N.ar    1  UNL1       -0.2468
     19 C           2.3479   -0.3947   19.2972 C.ar    1  UNL1        0.0024
     20 C           2.9084    0.1538   18.0185 C.ar    1  UNL1        0.0002
     21 C           3.9616   -0.6106   17.2725 C.ar    1  UNL1        0.0031
     22 C           4.4543   -1.9234   17.8052 C.ar    1  UNL1        0.0376
     23 C           3.8938   -2.4719   19.0839 C.ar    1  UNL1        0.1472
     24 C           2.8406   -1.7075   19.8299 C.ar    1  UNL1        0.0375
     25 O           4.3865   -3.7847   19.6166 O.3     1  UNL1       -0.4361
     26 C           5.1817   -3.8273   20.8878 C.ar    1  UNL1        0.2297
     27 C           4.5233   -3.5020   22.1957 C.ar    1  UNL1        0.0581
     28 C           5.3185   -3.5447   23.4668 C.ar    1  UNL1        0.0102
     29 C           6.7722   -3.9127   23.4300 C.ar    1  UNL1        0.0907
     30 C           7.4307   -4.2380   22.1222 C.ar    1  UNL1        0.1059
     31 N           6.6354   -4.1953   20.8511 N.ar    1  UNL1       -0.2099
     32 C           7.5674   -3.9553   24.7012 C.3     1  UNL1        0.4200
     33 F           8.3627   -3.9980   25.9723 F       1  UNL1       -0.1658
     34 F           6.6084   -4.9600   25.2675 F       1  UNL1       -0.1658
     35 F           8.5265   -2.9507   24.1349 F       1  UNL1       -0.1658
@<TRIPOS>BOND
     1    12    13    1
     2    13    14   ar
     3    14    15   ar
     4    15    16   ar
     5    16     1    1
     6     1     2   am
     7     2     3    2
     8     2     4   am
     9     4     5    1
    10     5     6    1
    11     6     7    1
    12     7     8    2
    13     8    19    1
    14    19    20   ar
    15    20    21   ar
    16    21    22   ar
    17    22    23   ar
    18    23    25    1
    19    25    26    1
    20    26    27   ar
    21    27    28   ar
    22    28    29   ar
    23    29    32    1
    24    32    33    1
    25    32    34    1
    26    32    35    1
    27    29    30   ar
    28    30    31   ar
    29    23    24   ar
    30     7     9    1
    31     9    10    1
    32    16    17   ar
    33    17    18   ar
    34    18    13   ar
    35    10     4    1
    36    24    19   ar
    37    31    26   ar
    38     1    11    1
@<TRIPOS>MOLECULE
*****
 35 38 0 0 0
SMALL
GASTEIGER

@<TRIPOS>ATOM
      1 N           2.5982   -0.0082   22.4818 N.am    1  UNL1       -0.2668
      2 C           1.5283    1.0154   22.2421 C.2     1  UNL1        0.3077
      3 O           1.2864    1.5371   20.8567 O.2     1  UNL1       -0.2522
      4 N           0.7003    1.5173   23.3878 N.am    1  UNL1       -0.2633
      5 C          -0.3697    2.5409   23.1480 C.3     1  UNL1        0.0993
      6 C          -1.1977    3.0428   24.2936 C.3     1  UNL1        0.0436
      7 C          -0.9557    2.5211   25.6790 C.2     1  UNL1       -0.0408
      8 C          -1.7837    3.0230   26.8247 C.2     1  UNL1       -0.0083
      9 C           0.1142    1.4975   25.9188 C.3     1  UNL1        0.0436
     10 C           0.9422    0.9956   24.7731 C.3     1  UNL1        0.0993
     11 H           2.7570   -0.3506   23.3911 H       1  UNL1        0.1565
     12 C           5.9103   -2.0158   17.8993 C.3     1  UNL1        0.0521
     13 C           5.0823   -1.5139   19.0449 C.ar    1  UNL1        0.0595
     14 C           3.7311   -2.1085   19.3108 C.ar    1  UNL1        0.0160
     15 C           2.9031   -1.6066   20.4565 C.ar    1  UNL1        0.0175
     16 C           3.4262   -0.5101   21.3362 C.ar    1  UNL1        0.0709
     17 C           4.7774    0.0845   21.0703 C.ar    1  UNL1        0.1131
     18 N           5.6054   -0.4174   19.9247 N.ar    1  UNL1       -0.2468
     19 C          -2.8537    4.0466   26.5849 C.ar    1  UNL1        0.0024
     20 C          -2.7603    5.3955   27.2343 C.ar    1  UNL1        0.0002
     21 C          -3.8302    6.4191   26.9945 C.ar    1  UNL1        0.0031
     22 C          -4.9936    6.0938   26.1053 C.ar    1  UNL1        0.0376
     23 C          -5.0870    4.7449   25.4558 C.ar    1  UNL1        0.1472
     24 C          -4.0171    3.7213   25.6956 C.ar    1  UNL1        0.0375
     25 O          -6.2504    4.4196   24.5666 O.3     1  UNL1       -0.4361
     26 C          -6.0337    4.1990   23.0987 C.ar    1  UNL1        0.2297
     27 C          -6.8858    4.9218   22.0979 C.ar    1  UNL1        0.0581
     28 C          -6.6691    4.7012   20.6302 C.ar    1  UNL1        0.0102
     29 C          -5.6004    3.7578   20.1632 C.ar    1  UNL1        0.0907
     30 C          -4.7484    3.0351   21.1640 C.ar    1  UNL1        0.1059
     31 N          -4.9651    3.2557   22.6318 N.ar    1  UNL1       -0.2099
     32 C          -5.3838    3.5373   18.6954 C.3     1  UNL1        0.4200
     33 F          -5.1672    3.3167   17.2276 F       1  UNL1       -0.1658
     34 F          -4.0948    4.3006   18.7709 F       1  UNL1       -0.1658
     35 F          -6.6728    2.7739   18.6199 F       1  UNL1       -0.1658
@<TRIPOS>BOND
     1    12    13    1
     2    13    14   ar
     3    14    15   ar
     4    15    16   ar
     5    16     1    1
     6     1     2   am
     7     2     3    2
     8     2     4   am
     9     4     5    1
    10     5     6    1
    11     6     7    1
    12     7     8    2
    13     8    19    1
    14    19    20   ar
    15    20    21   ar
    16    21    22   ar
    17    22    23   ar
    18    23    25    1
    19    25    26    1
    20    26    27   ar
    21    27    28   ar
    22    28    29   ar
    23    29    32    1
    24    32    33    1
    25    32    34    1
    26    32    35    1
    27    29    30   ar
    28    30    31   ar
    29    23    24   ar
    30     7     9    1
    31     9    10    1
    32    16    17   ar
    33    17    18   ar
    34    18    13   ar
    35    10     4    1
    36    24    19   ar
    37    31    26   ar
    38     1    11    1
@<TRIPOS>MOLECULE
*****
 35 38 0 0 0
SMALL
GASTEIGER

@<TRIPOS>ATOM
      1 N           4.4886   -1.3483   20.1996 N.am    1  UNL1       -0.2668
      2 C           4.4191   -1.8537   21.6101 C.2     1  UNL1        0.3077
      3 O           3.3230   -1.3862   22.5212 O.2     1  UNL1       -0.2522
      4 N           5.4457   -2.8266   22.1096 N.am    1  UNL1       -0.2633
      5 C           5.3762   -3.3320   23.5203 C.3     1  UNL1        0.0993
      6 C           6.4028   -4.3050   24.0198 C.3     1  UNL1        0.0436
      7 C           7.4989   -4.7725   23.1087 C.2     1  UNL1       -0.0408
      8 C           8.5255   -5.7454   23.6082 C.2     1  UNL1       -0.0083
      9 C           7.5683   -4.2671   21.6981 C.3     1  UNL1        0.0436
     10 C           6.5417   -3.2942   21.1986 C.3     1  UNL1        0.0993
     11 H           5.2080   -1.6551   19.6016 H       1  UNL1        0.1565
     12 C           0.3822    2.5434   18.2015 C.3     1  UNL1        0.0521
     13 C           1.4088    1.5705   18.7010 C.ar    1  UNL1        0.0595
     14 C           2.8627    1.9391   18.6832 C.ar    1  UNL1        0.0160
     15 C           3.8892    0.9662   19.1828 C.ar    1  UNL1        0.0175
     16 C           3.4620   -0.3754   19.7001 C.ar    1  UNL1        0.0709
     17 C           2.0081   -0.7440   19.7179 C.ar    1  UNL1        0.1131
     18 N           0.9815    0.2290   19.2183 N.ar    1  UNL1       -0.2468
     19 C           8.4559   -6.2508   25.0188 C.ar    1  UNL1        0.0024
     20 C           7.9694   -7.6428   25.2937 C.ar    1  UNL1        0.0002
     21 C           7.8999   -8.1482   26.7043 C.ar    1  UNL1        0.0031
     22 C           8.3169   -7.2616   27.8400 C.ar    1  UNL1        0.0376
     23 C           8.8035   -5.8695   27.5652 C.ar    1  UNL1        0.1472
     24 C           8.8730   -5.3642   26.1546 C.ar    1  UNL1        0.0375
     25 O           9.2205   -4.9828   28.7009 O.3     1  UNL1       -0.4361
     26 C           8.1814   -4.3370   29.5688 C.ar    1  UNL1        0.2297
     27 C           7.4854   -3.0918   29.1051 C.ar    1  UNL1        0.0581
     28 C           6.4463   -2.4460   29.9730 C.ar    1  UNL1        0.0102
     29 C           6.1033   -3.0454   31.3045 C.ar    1  UNL1        0.0907
     30 C           6.7993   -4.2906   31.7682 C.ar    1  UNL1        0.1059
     31 N           7.8383   -4.9364   30.9003 N.ar    1  UNL1       -0.2099
     32 C           5.0641   -2.3995   32.1724 C.3     1  UNL1        0.4200
     33 F           4.0251   -1.7536   33.0402 F       1  UNL1       -0.1658
     34 F           5.2965   -3.4415   33.2261 F       1  UNL1       -0.1658
     35 F           4.8318   -1.3575   31.1187 F       1  UNL1       -0.1658
@<TRIPOS>BOND
     1    12    13    1
     2    13    14   ar
     3    14    15   ar
     4    15    16   ar
     5    16     1    1
     6     1     2   am
     7     2     3    2
     8     2     4   am
     9     4     5    1
    10     5     6    1
    11     6     7    1
    12     7     8    2
    13     8    19    1
    14    19    20   ar
    15    20    21   ar
    16    21    22   ar
    17    22    23   ar
    18    23    25    1
    19    25    26    1
    20    26    27   ar
    21    27    28   ar
    22    28    29   ar
    23    29    32    1
    24    32    33    1
    25    32    34    1
    26    32    35    1
    27    29    30   ar
    28    30    31   ar
    29    23    24   ar
    30     7     9    1
    31     9    10    1
    32    16    17   ar
    33    17    18   ar
    34    18    13   ar
    35    10     4    1
    36    24    19   ar
    37    31    26   ar
    38     1    11    1
@<TRIPOS>MOLECULE
*****
 35 38 0 0 0
SMALL
GASTEIGER

@<TRIPOS>ATOM
      1 N           6.2617   -4.1797   24.0778 N.am    1  UNL1       -0.2668
      2 C           6.1611   -3.0545   25.0645 C.2     1  UNL1        0.3077
      3 O           5.8480   -1.6664   24.5898 O.2     1  UNL1       -0.2522
      4 N           6.3736   -3.3172   26.5260 N.am    1  UNL1       -0.2633
      5 C           6.2730   -2.1919   27.5127 C.3     1  UNL1        0.0993
      6 C           6.4855   -2.4546   28.9741 C.3     1  UNL1        0.0436
      7 C           6.7986   -3.8427   29.4488 C.2     1  UNL1       -0.0408
      8 C           7.0112   -4.1055   30.9103 C.2     1  UNL1       -0.0083
      9 C           6.8992   -4.9680   28.4621 C.3     1  UNL1        0.0436
     10 C           6.6867   -4.7052   27.0007 C.3     1  UNL1        0.0993
     11 H           6.4672   -5.0907   24.3894 H       1  UNL1        0.1565
     12 C           5.4116   -3.1287   18.2321 C.3     1  UNL1        0.0521
     13 C           5.6241   -3.3914   19.6935 C.ar    1  UNL1        0.0595
     14 C           4.4481   -3.6511   20.5876 C.ar    1  UNL1        0.0160
     15 C           4.6606   -3.9139   22.0490 C.ar    1  UNL1        0.0175
     16 C           6.0491   -3.9169   22.6164 C.ar    1  UNL1        0.0709
     17 C           7.2251   -3.6573   21.7222 C.ar    1  UNL1        0.1131
     18 N           7.0126   -3.3945   20.2608 N.ar    1  UNL1       -0.2468
     19 C           6.9106   -2.9801   31.8970 C.ar    1  UNL1        0.0024
     20 C           8.1530   -2.4141   32.5183 C.ar    1  UNL1        0.0002
     21 C           8.0524   -1.2888   33.5050 C.ar    1  UNL1        0.0031
     22 C           6.7094   -0.7295   33.8704 C.ar    1  UNL1        0.0376
     23 C           5.4669   -1.2957   33.2491 C.ar    1  UNL1        0.1472
     24 C           5.5676   -2.4209   32.2624 C.ar    1  UNL1        0.0375
     25 O           4.1239   -0.7364   33.6146 O.3     1  UNL1       -0.4361
     26 C           3.2637   -0.1026   32.5617 C.ar    1  UNL1        0.2297
     27 C           2.7857    1.3088   32.7333 C.ar    1  UNL1        0.0581
     28 C           1.9256    1.9425   31.6805 C.ar    1  UNL1        0.0102
     29 C           1.5433    1.1648   30.4561 C.ar    1  UNL1        0.0907
     30 C           2.0212   -0.2466   30.2845 C.ar    1  UNL1        0.1059
     31 N           2.8814   -0.8803   31.3373 N.ar    1  UNL1       -0.2099
     32 C           0.6831    1.7987   29.4033 C.3     1  UNL1        0.4200
     33 F          -0.1770    2.4325   28.3505 F       1  UNL1       -0.1658
     34 F          -0.4791    0.9617   29.8490 F       1  UNL1       -0.1658
     35 F           1.8453    2.6356   28.9576 F       1  UNL1       -0.1658
@<TRIPOS>BOND
     1    12    13    1
     2    13    14   ar
     3    14    15   ar
     4    15    16   ar
     5    16     1    1
     6     1     2   am
     7     2     3    2
     8     2     4   am
     9     4     5    1
    10     5     6    1
    11     6     7    1
    12     7     8    2
    13     8    19    1
    14    19    20   ar
    15    20    21   ar
    16    21    22   ar
    17    22    23   ar
    18    23    25    1
    19    25    26    1
    20    26    27   ar
    21    27    28   ar
    22    28    29   ar
    23    29    32    1
    24    32    33    1
    25    32    34    1
    26    32    35    1
    27    29    30   ar
    28    30    31   ar
    29    23    24   ar
    30     7     9    1
    31     9    10    1
    32    16    17   ar
    33    17    18   ar
    34    18    13   ar
    35    10     4    1
    36    24    19   ar
    37    31    26   ar
    38     1    11    1
