@<TRIPOS>MOLECULE
*****
 35 39 0 0 0
SMALL
GASTEIGER

@<TRIPOS>ATOM
      1 C           7.6054   -4.8978   23.3239 C.ar    1  UNL1        0.0644
      2 C           8.3267   -6.2101   23.4107 C.ar    1  UNL1        0.0155
      3 C           8.5091   -6.8791   24.7409 C.ar    1  UNL1       -0.0032
      4 C           7.9701   -6.2357   25.9841 C.ar    1  UNL1       -0.0246
      5 C           7.2489   -4.9235   25.8972 C.ar    1  UNL1       -0.0234
      6 C           7.0665   -4.2544   24.5672 C.ar    1  UNL1        0.0113
      7 C           6.6382   -4.1167   27.0047 C.3     1  UNL1        0.0434
      8 C           6.5981   -4.4232   28.4726 C.3     1  UNL1        0.0771
      9 N           7.1586   -5.6120   29.1954 N.3     1  UNL1       -0.2671
     10 C           7.8978   -6.7880   28.6290 C.3     1  UNL1        0.0771
     11 C           8.2589   -7.0656   27.1999 C.3     1  UNL1        0.0434
     12 N           7.4231   -4.2288   21.9938 N.pl3   1  UNL1       -0.2150
     13 H           8.0683   -4.3917   21.2682 H       1  UNL1        0.1737
     14 S           6.2576   -3.3117   21.7691 S.O2    1  UNL1        0.0736
     15 O           7.1547   -2.1248   21.9599 O.2     1  UNL1       -0.1499
     16 O           5.3604   -4.4986   21.5782 O.2     1  UNL1       -0.1499
     17 C           0.2004    1.5408   20.2615 C.3     1  UNL1        0.0436
     18 C           1.3248    0.9037   19.4999 C.3     1  UNL1        0.1336
     19 C           0.6636    1.6718   18.3941 C.3     1  UNL1        0.0436
     20 C           2.2196    0.5334   18.3544 C.3     1  UNL1        0.0448
     21 C           3.3851   -0.3838   18.5791 C.3     1  UNL1        0.0330
     22 C           3.6558   -0.9306   19.9493 C.ar    1  UNL1        0.0132
     23 C           4.8213   -1.8477   20.1740 C.ar    1  UNL1        0.0189
     24 C           5.0921   -2.3946   21.5444 C.ar    1  UNL1        0.1251
     25 C           4.1973   -2.0243   22.6900 C.ar    1  UNL1        0.0233
     26 C           3.0319   -1.1071   22.4652 C.ar    1  UNL1        0.0379
     27 C           2.7611   -0.5603   21.0950 C.ar    1  UNL1        0.1342
     28 O           1.5956    0.3569   20.8702 O.3     1  UNL1       -0.4829
     29 C           6.9528   -5.6268   30.6811 C.3     1  UNL1        0.1180
     30 C           7.0314   -4.3484   31.4620 C.ar    1  UNL1        0.0693
     31 C           8.2713   -3.5413   31.7096 C.ar    1  UNL1        0.0379
     32 C           7.8901   -2.3470   32.5330 C.ar    1  UNL1        0.1211
     33 N           6.4147   -2.4158   32.7944 N.ar    1  UNL1       -0.1713
     34 N           5.8839   -3.6529   32.1325 N.ar    1  UNL1       -0.2784
     35 H           4.9470   -3.9552   32.1372 H       1  UNL1        0.1886
@<TRIPOS>BOND
     1    17    18    1
     2    18    19    1
     3    18    20    1
     4    20    21    1
     5    21    22    1
     6    22    23   ar
     7    23    24   ar
     8    24    14    1
     9    14    15    2
    10    14    16    2
    11    14    12    1
    12    12     1    1
    13     1     2   ar
    14     2     3   ar
    15     3     4   ar
    16     4     5   ar
    17     5     6   ar
    18     5     7    1
    19     7     8    1
    20     8     9    1
    21     9    29    1
    22    29    30    1
    23    30    31   ar
    24    31    32   ar
    25    32    33   ar
    26    33    34   ar
    27     9    10    1
    28    10    11    1
    29    24    25   ar
    30    25    26   ar
    31    26    27   ar
    32    27    28    1
    33    28    18    1
    34    27    22   ar
    35     6     1   ar
    36    34    30   ar
    37    11     4    1
    38    12    13    1
    39    34    35    1
@<TRIPOS>MOLECULE
*****
 35 39 0 0 0
SMALL
GASTEIGER

@<TRIPOS>ATOM
      1 C           8.5049   -5.1173   22.5915 C.ar    1  UNL1        0.0644
      2 C           8.8961   -6.5623   22.6853 C.ar    1  UNL1        0.0155
      3 C           8.7813   -7.2870   23.9936 C.ar    1  UNL1       -0.0032
      4 C           8.2754   -6.5665   25.2082 C.ar    1  UNL1       -0.0246
      5 C           7.8843   -5.1216   25.1144 C.ar    1  UNL1       -0.0234
      6 C           7.9990   -4.3969   23.8061 C.ar    1  UNL1        0.0113
      7 C           7.3602   -4.2225   26.1947 C.3     1  UNL1        0.0434
      8 C           7.0979   -4.5465   27.6357 C.3     1  UNL1        0.0771
      9 N           7.2949   -5.8494   28.3521 N.3     1  UNL1       -0.2671
     10 C           7.8028   -7.1503   27.8046 C.3     1  UNL1        0.0771
     11 C           8.2392   -7.4695   26.4055 C.3     1  UNL1        0.0434
     12 N           8.6196   -4.3927   21.2832 N.pl3   1  UNL1       -0.2150
     13 H           9.4554   -4.4412   20.7652 H       1  UNL1        0.1737
     14 S           7.4609   -3.5940   20.7641 S.O2    1  UNL1        0.0736
     15 O           8.2257   -2.3267   21.0065 O.2     1  UNL1       -0.1499
     16 O           6.6960   -4.8614   20.5216 O.2     1  UNL1       -0.1499
     17 C           1.2282    0.6226   18.3386 C.3     1  UNL1        0.0436
     18 C           1.7399    0.0421   19.6236 C.3     1  UNL1        0.1336
     19 C           0.4764    0.6852   20.1133 C.3     1  UNL1        0.0436
     20 C           1.8129   -0.3151   21.0787 C.3     1  UNL1        0.0448
     21 C           2.9717   -1.1137   21.5978 C.3     1  UNL1        0.0330
     22 C           4.0575   -1.5552   20.6618 C.ar    1  UNL1        0.0132
     23 C           5.2162   -2.3538   21.1809 C.ar    1  UNL1        0.0189
     24 C           6.3021   -2.7954   20.2450 C.ar    1  UNL1        0.1251
     25 C           6.2292   -2.4383   18.7899 C.ar    1  UNL1        0.0233
     26 C           5.0705   -1.6396   18.2709 C.ar    1  UNL1        0.0379
     27 C           3.9846   -1.1981   19.2067 C.ar    1  UNL1        0.1342
     28 O           2.8258   -0.3995   18.6877 O.3     1  UNL1       -0.4829
     29 C           6.9365   -5.8519   29.8086 C.3     1  UNL1        0.1180
     30 C           7.4424   -4.7626   30.7074 C.ar    1  UNL1        0.0693
     31 C           6.6144   -3.6784   31.3310 C.ar    1  UNL1        0.0379
     32 C           7.5255   -2.8121   32.1493 C.ar    1  UNL1        0.1211
     33 N           8.9164   -3.3609   32.0315 N.ar    1  UNL1       -0.1713
     34 N           8.8652   -4.5665   31.1403 N.ar    1  UNL1       -0.2784
     35 H           9.6308   -5.1300   30.8845 H       1  UNL1        0.1886
@<TRIPOS>BOND
     1    17    18    1
     2    18    19    1
     3    18    20    1
     4    20    21    1
     5    21    22    1
     6    22    23   ar
     7    23    24   ar
     8    24    14    1
     9    14    15    2
    10    14    16    2
    11    14    12    1
    12    12     1    1
    13     1     2   ar
    14     2     3   ar
    15     3     4   ar
    16     4     5   ar
    17     5     6   ar
    18     5     7    1
    19     7     8    1
    20     8     9    1
    21     9    29    1
    22    29    30    1
    23    30    31   ar
    24    31    32   ar
    25    32    33   ar
    26    33    34   ar
    27     9    10    1
    28    10    11    1
    29    24    25   ar
    30    25    26   ar
    31    26    27   ar
    32    27    28    1
    33    28    18    1
    34    27    22   ar
    35     6     1   ar
    36    34    30   ar
    37    11     4    1
    38    12    13    1
    39    34    35    1
@<TRIPOS>MOLECULE
*****
 35 39 0 0 0
SMALL
GASTEIGER

@<TRIPOS>ATOM
      1 C           8.1510   -7.0208   27.1265 C.ar    1  UNL1        0.0644
      2 C           9.1053   -7.8920   26.3646 C.ar    1  UNL1        0.0155
      3 C           9.3130   -7.6711   24.8955 C.ar    1  UNL1       -0.0032
      4 C           8.5664   -6.5790   24.1884 C.ar    1  UNL1       -0.0246
      5 C           7.6122   -5.7080   24.9502 C.ar    1  UNL1       -0.0234
      6 C           7.4045   -5.9288   26.4192 C.ar    1  UNL1        0.0113
      7 C           6.7740   -4.5721   24.4429 C.3     1  UNL1        0.0434
      8 C           6.6831   -4.0269   23.0484 C.3     1  UNL1        0.0771
      9 N           7.4078   -4.4829   21.8169 N.3     1  UNL1       -0.2671
     10 C           8.4026   -5.5967   21.6756 C.3     1  UNL1        0.0771
     11 C           8.9182   -6.5296   22.7310 C.3     1  UNL1        0.0434
     12 N           7.9433   -7.2417   28.5955 N.pl3   1  UNL1       -0.2150
     13 H           7.7517   -8.1457   28.9351 H       1  UNL1        0.1737
     14 S           8.0277   -6.0853   29.5471 S.O2    1  UNL1        0.0736
     15 O           6.5301   -6.0169   29.5967 O.2     1  UNL1       -0.1499
     16 O           9.5253   -6.1537   29.4974 O.2     1  UNL1       -0.1499
     17 C           8.1375    0.0195   34.5698 C.3     1  UNL1        0.0436
     18 C           7.1103   -0.8237   33.8743 C.3     1  UNL1        0.1336
     19 C           6.2121    0.1049   34.6367 C.3     1  UNL1        0.0436
     20 C           5.7711   -1.3444   33.4435 C.3     1  UNL1        0.0448
     21 C           5.6867   -2.5009   32.4919 C.3     1  UNL1        0.0330
     22 C           6.9416   -3.1366   31.9711 C.ar    1  UNL1        0.0132
     23 C           6.8572   -4.2930   31.0195 C.ar    1  UNL1        0.0189
     24 C           8.1120   -4.9288   30.4987 C.ar    1  UNL1        0.1251
     25 C           9.4512   -4.4081   30.9294 C.ar    1  UNL1        0.0233
     26 C           9.5355   -3.2517   31.8810 C.ar    1  UNL1        0.0379
     27 C           8.2807   -2.6159   32.4018 C.ar    1  UNL1        0.1342
     28 O           8.3650   -1.4594   33.3534 O.3     1  UNL1       -0.4829
     29 C           7.0968   -3.7249   20.5605 C.3     1  UNL1        0.1180
     30 C           5.6805   -3.6237   20.0767 C.ar    1  UNL1        0.0693
     31 C           4.9394   -4.6668   19.2939 C.ar    1  UNL1        0.0379
     32 C           3.5576   -4.1493   19.0243 C.ar    1  UNL1        0.1211
     33 N           3.4446   -2.7864   19.6405 N.ar    1  UNL1       -0.1713
     34 N           4.7566   -2.4615   20.2910 N.ar    1  UNL1       -0.2784
     35 H           4.9733   -1.6313   20.7737 H       1  UNL1        0.1886
@<TRIPOS>BOND
     1    17    18    1
     2    18    19    1
     3    18    20    1
     4    20    21    1
     5    21    22    1
     6    22    23   ar
     7    23    24   ar
     8    24    14    1
     9    14    15    2
    10    14    16    2
    11    14    12    1
    12    12     1    1
    13     1     2   ar
    14     2     3   ar
    15     3     4   ar
    16     4     5   ar
    17     5     6   ar
    18     5     7    1
    19     7     8    1
    20     8     9    1
    21     9    29    1
    22    29    30    1
    23    30    31   ar
    24    31    32   ar
    25    32    33   ar
    26    33    34   ar
    27     9    10    1
    28    10    11    1
    29    24    25   ar
    30    25    26   ar
    31    26    27   ar
    32    27    28    1
    33    28    18    1
    34    27    22   ar
    35     6     1   ar
    36    34    30   ar
    37    11     4    1
    38    12    13    1
    39    34    35    1
@<TRIPOS>MOLECULE
*****
 35 39 0 0 0
SMALL
GASTEIGER

@<TRIPOS>ATOM
      1 C           1.7942    1.3728   25.8035 C.ar    1  UNL1        0.0644
      2 C           2.8142    0.4763   26.4406 C.ar    1  UNL1        0.0155
      3 C           3.5367   -0.5450   25.6129 C.ar    1  UNL1       -0.0032
      4 C           3.2391   -0.6697   24.1479 C.ar    1  UNL1       -0.0246
      5 C           2.2191    0.2267   23.5109 C.ar    1  UNL1       -0.0234
      6 C           1.4966    1.2480   24.3386 C.ar    1  UNL1        0.0113
      7 C           1.7749    0.2684   22.0787 C.3     1  UNL1        0.0434
      8 C           2.2410   -0.5762   20.9300 C.3     1  UNL1        0.0771
      9 N           3.2664   -1.6708   20.9298 N.3     1  UNL1       -0.2671
     10 C           4.0790   -2.1915   22.0781 C.3     1  UNL1        0.0771
     11 C           4.0669   -1.7459   23.5103 C.3     1  UNL1        0.0434
     12 N           1.0718    2.3939   26.6313 N.pl3   1  UNL1       -0.2150
     13 H           1.5177    2.8028   27.4080 H       1  UNL1        0.1737
     14 S          -0.3300    2.7921   26.2757 S.O2    1  UNL1        0.0736
     15 O           0.1842    4.0676   25.6769 O.2     1  UNL1       -0.1499
     16 O          -0.8442    1.5165   26.8746 O.2     1  UNL1       -0.1499
     17 C          -7.6434    4.8405   24.0789 C.3     1  UNL1        0.0436
     18 C          -6.3723    4.3965   23.4179 C.3     1  UNL1        0.1336
     19 C          -7.2488    4.5624   22.2119 C.3     1  UNL1        0.0436
     20 C          -5.4055    4.0100   22.3380 C.3     1  UNL1        0.0448
     21 C          -4.0037    3.6119   22.6936 C.3     1  UNL1        0.0330
     22 C          -3.5687    3.6002   24.1290 C.ar    1  UNL1        0.0132
     23 C          -2.1669    3.2020   24.4846 C.ar    1  UNL1        0.0189
     24 C          -1.7318    3.1903   25.9201 C.ar    1  UNL1        0.1251
     25 C          -2.6985    3.5767   27.0001 C.ar    1  UNL1        0.0233
     26 C          -4.1003    3.9748   26.6444 C.ar    1  UNL1        0.0379
     27 C          -4.5354    3.9866   25.2090 C.ar    1  UNL1        0.1342
     28 O          -5.9372    4.3847   24.8533 O.3     1  UNL1       -0.4829
     29 C           3.5117   -2.3325   19.6061 C.3     1  UNL1        0.1180
     30 C           4.7635   -2.0301   18.8369 C.ar    1  UNL1        0.0693
     31 C           5.5044   -0.7258   18.8359 C.ar    1  UNL1        0.0379
     32 C           6.6929   -0.8686   17.9321 C.ar    1  UNL1        0.1211
     33 N           6.6867   -2.2610   17.3745 N.ar    1  UNL1       -0.1713
     34 N           5.4942   -2.9790   17.9337 N.ar    1  UNL1       -0.2784
     35 H           5.2364   -3.9095   17.7416 H       1  UNL1        0.1886
@<TRIPOS>BOND
     1    17    18    1
     2    18    19    1
     3    18    20    1
     4    20    21    1
     5    21    22    1
     6    22    23   ar
     7    23    24   ar
     8    24    14    1
     9    14    15    2
    10    14    16    2
    11    14    12    1
    12    12     1    1
    13     1     2   ar
    14     2     3   ar
    15     3     4   ar
    16     4     5   ar
    17     5     6   ar
    18     5     7    1
    19     7     8    1
    20     8     9    1
    21     9    29    1
    22    29    30    1
    23    30    31   ar
    24    31    32   ar
    25    32    33   ar
    26    33    34   ar
    27     9    10    1
    28    10    11    1
    29    24    25   ar
    30    25    26   ar
    31    26    27   ar
    32    27    28    1
    33    28    18    1
    34    27    22   ar
    35     6     1   ar
    36    34    30   ar
    37    11     4    1
    38    12    13    1
    39    34    35    1
@<TRIPOS>MOLECULE
*****
 35 39 0 0 0
SMALL
GASTEIGER

@<TRIPOS>ATOM
      1 C           1.6369    0.5894   29.4175 C.ar    1  UNL1        0.0644
      2 C           1.1476    1.8856   29.9923 C.ar    1  UNL1        0.0155
      3 C           1.5385    2.2837   31.3847 C.ar    1  UNL1       -0.0032
      4 C           2.4188    1.3855   32.2023 C.ar    1  UNL1       -0.0246
      5 C           2.9081    0.0894   31.6275 C.ar    1  UNL1       -0.0234
      6 C           2.5172   -0.3087   30.2351 C.ar    1  UNL1        0.0113
      7 C           3.7871   -0.9446   32.2666 C.3     1  UNL1        0.0434
      8 C           4.3937   -0.9376   33.6386 C.3     1  UNL1        0.0771
      9 N           4.2713    0.1049   34.7099 N.3     1  UNL1       -0.2671
     10 C           3.5119    1.3980   34.6743 C.3     1  UNL1        0.0771
     11 C           2.6875    1.9680   33.5583 C.3     1  UNL1        0.0434
     12 N           1.2460    0.1914   28.0251 N.pl3   1  UNL1       -0.2150
     13 H           1.5780   -0.6529   27.6429 H       1  UNL1        0.1737
     14 S           0.3491    1.0800   27.2151 S.O2    1  UNL1        0.0736
     15 O          -0.8506    0.4850   27.8908 O.2     1  UNL1       -0.1499
     16 O           1.5489    1.6749   26.5394 O.2     1  UNL1       -0.1499
     17 C          -4.5781    5.7927   23.2125 C.3     1  UNL1        0.0436
     18 C          -4.4794    5.2090   24.5908 C.3     1  UNL1        0.1336
     19 C          -5.7547    5.9867   24.7280 C.3     1  UNL1        0.0436
     20 C          -4.8235    4.8954   26.0167 C.3     1  UNL1        0.0448
     21 C          -3.9267    4.0069   26.8268 C.3     1  UNL1        0.0330
     22 C          -2.6857    3.4320   26.2109 C.ar    1  UNL1        0.0132
     23 C          -1.7888    2.5435   27.0209 C.ar    1  UNL1        0.0189
     24 C          -0.5477    1.9685   26.4050 C.ar    1  UNL1        0.1251
     25 C          -0.2035    2.2821   24.9791 C.ar    1  UNL1        0.0233
     26 C          -1.1005    3.1706   24.1691 C.ar    1  UNL1        0.0379
     27 C          -2.3415    3.7455   24.7849 C.ar    1  UNL1        0.1342
     28 O          -3.2384    4.6341   23.9750 O.3     1  UNL1       -0.4829
     29 C           5.0052   -0.1838   35.9859 C.3     1  UNL1        0.1180
     30 C           4.7385    0.6437   37.2083 C.ar    1  UNL1        0.0693
     31 C           5.5974    1.7614   37.7210 C.ar    1  UNL1        0.0379
     32 C           4.9558    2.3071   38.9622 C.ar    1  UNL1        0.1211
     33 N           3.7004    1.5267   39.2166 N.ar    1  UNL1       -0.1713
     34 N           3.5661    0.4985   38.1326 N.ar    1  UNL1       -0.2784
     35 H           2.8365   -0.1565   38.0435 H       1  UNL1        0.1886
@<TRIPOS>BOND
     1    17    18    1
     2    18    19    1
     3    18    20    1
     4    20    21    1
     5    21    22    1
     6    22    23   ar
     7    23    24   ar
     8    24    14    1
     9    14    15    2
    10    14    16    2
    11    14    12    1
    12    12     1    1
    13     1     2   ar
    14     2     3   ar
    15     3     4   ar
    16     4     5   ar
    17     5     6   ar
    18     5     7    1
    19     7     8    1
    20     8     9    1
    21     9    29    1
    22    29    30    1
    23    30    31   ar
    24    31    32   ar
    25    32    33   ar
    26    33    34   ar
    27     9    10    1
    28    10    11    1
    29    24    25   ar
    30    25    26   ar
    31    26    27   ar
    32    27    28    1
    33    28    18    1
    34    27    22   ar
    35     6     1   ar
    36    34    30   ar
    37    11     4    1
    38    12    13    1
    39    34    35    1
@<TRIPOS>MOLECULE
*****
 35 39 0 0 0
SMALL
GASTEIGER

@<TRIPOS>ATOM
      1 C         -16.4185    1.3711   19.9196 C.ar    1  UNL1        0.0644
      2 C         -15.4835    2.4624   19.4895 C.ar    1  UNL1        0.0155
      3 C         -15.3950    3.7310   20.2850 C.ar    1  UNL1       -0.0032
      4 C         -16.2415    3.9083   21.5106 C.ar    1  UNL1       -0.0246
      5 C         -17.1764    2.8171   21.9406 C.ar    1  UNL1       -0.0234
      6 C         -17.2650    1.5485   21.1452 C.ar    1  UNL1        0.0113
      7 C         -18.1016    2.7894   23.1211 C.3     1  UNL1        0.0434
      8 C         -18.3202    3.8462   24.1630 C.3     1  UNL1        0.0771
      9 N         -17.6676    5.1915   24.2817 N.3     1  UNL1       -0.2671
     10 C         -16.6353    5.8125   23.3880 C.3     1  UNL1        0.0771
     11 C         -16.0006    5.2414   22.1547 C.3     1  UNL1        0.0434
     12 N         -16.5070    0.1026   19.1240 N.pl3   1  UNL1       -0.2150
     13 H         -17.3474   -0.1363   18.6702 H       1  UNL1        0.1737
     14 S         -15.3150   -0.8021   19.0200 S.O2    1  UNL1        0.0736
     15 O         -15.5144   -1.2286   20.4442 O.2     1  UNL1       -0.1499
     16 O         -15.1156   -0.3755   17.5958 O.2     1  UNL1       -0.1499
     17 C          -9.2345   -5.8313   18.5269 C.3     1  UNL1        0.0436
     18 C         -10.7137   -5.9025   18.7653 C.3     1  UNL1        0.1336
     19 C         -10.3668   -7.3597   18.8441 C.3     1  UNL1        0.0436
     20 C         -12.0725   -6.4798   19.0310 C.3     1  UNL1        0.0448
     21 C         -13.2645   -5.5751   19.1350 C.3     1  UNL1        0.0330
     22 C         -13.0977   -4.0933   18.9734 C.ar    1  UNL1        0.0132
     23 C         -14.2897   -3.1886   19.0775 C.ar    1  UNL1        0.0189
     24 C         -14.1230   -1.7067   18.9159 C.ar    1  UNL1        0.1251
     25 C         -12.7643   -1.1293   18.6502 C.ar    1  UNL1        0.0233
     26 C         -11.5723   -2.0340   18.5461 C.ar    1  UNL1        0.0379
     27 C         -11.7390   -3.5159   18.7077 C.ar    1  UNL1        0.1342
     28 O         -10.5471   -4.4206   18.6037 O.3     1  UNL1       -0.4829
     29 C         -18.1053    6.0263   25.4486 C.3     1  UNL1        0.1180
     30 C         -17.5220    5.7792   26.8084 C.ar    1  UNL1        0.0693
     31 C         -18.1844    6.0808   28.1200 C.ar    1  UNL1        0.0379
     32 C         -17.2457    5.6751   29.2173 C.ar    1  UNL1        0.1211
     33 N         -16.0032    5.1228   28.5841 N.ar    1  UNL1       -0.1713
     34 N         -16.1739    5.1872   27.0951 N.ar    1  UNL1       -0.2784
     35 H         -15.5166    4.8926   26.4240 H       1  UNL1        0.1886
@<TRIPOS>BOND
     1    17    18    1
     2    18    19    1
     3    18    20    1
     4    20    21    1
     5    21    22    1
     6    22    23   ar
     7    23    24   ar
     8    24    14    1
     9    14    15    2
    10    14    16    2
    11    14    12    1
    12    12     1    1
    13     1     2   ar
    14     2     3   ar
    15     3     4   ar
    16     4     5   ar
    17     5     6   ar
    18     5     7    1
    19     7     8    1
    20     8     9    1
    21     9    29    1
    22    29    30    1
    23    30    31   ar
    24    31    32   ar
    25    32    33   ar
    26    33    34   ar
    27     9    10    1
    28    10    11    1
    29    24    25   ar
    30    25    26   ar
    31    26    27   ar
    32    27    28    1
    33    28    18    1
    34    27    22   ar
    35     6     1   ar
    36    34    30   ar
    37    11     4    1
    38    12    13    1
    39    34    35    1
@<TRIPOS>MOLECULE
*****
 35 39 0 0 0
SMALL
GASTEIGER

@<TRIPOS>ATOM
      1 C           2.3122    0.6144   26.0830 C.ar    1  UNL1        0.0644
      2 C           3.2691   -0.3255   26.7546 C.ar    1  UNL1        0.0155
      3 C           4.0579   -1.3042   25.9361 C.ar    1  UNL1       -0.0032
      4 C           3.8897   -1.3431   24.4460 C.ar    1  UNL1       -0.0246
      5 C           2.9329   -0.4032   23.7745 C.ar    1  UNL1       -0.0234
      6 C           2.1441    0.5755   24.5929 C.ar    1  UNL1        0.0113
      7 C           2.6164   -0.2765   22.3137 C.3     1  UNL1        0.0434
      8 C           3.1787   -1.0585   21.1637 C.3     1  UNL1        0.0771
      9 N           4.1963   -2.1601   21.1905 N.3     1  UNL1       -0.2671
     10 C           4.9030   -2.7520   22.3738 C.3     1  UNL1        0.0771
     11 C           4.7666   -2.3884   23.8227 C.3     1  UNL1        0.0434
     12 N           1.5234    1.5930   26.9015 N.pl3   1  UNL1       -0.2150
     13 H           1.8076    1.8092   27.8190 H       1  UNL1        0.1737
     14 S           0.3016    2.2424   26.3221 S.O2    1  UNL1        0.0736
     15 O          -0.5134    1.0385   26.6915 O.2     1  UNL1       -0.1499
     16 O           1.1166    3.4463   25.9528 O.2     1  UNL1       -0.1499
     17 C          -6.2617    5.6924   23.5784 C.3     1  UNL1        0.0436
     18 C          -5.6984    5.2834   24.9071 C.3     1  UNL1        0.1336
     19 C          -7.0070    5.8693   25.3482 C.3     1  UNL1        0.0436
     20 C          -5.5895    5.0779   26.3890 C.3     1  UNL1        0.0448
     21 C          -4.3677    4.4286   26.9684 C.3     1  UNL1        0.0330
     22 C          -3.2549    3.9848   26.0659 C.ar    1  UNL1        0.0132
     23 C          -2.0331    3.3355   26.6453 C.ar    1  UNL1        0.0189
     24 C          -0.9202    2.8917   25.7428 C.ar    1  UNL1        0.1251
     25 C          -1.0290    3.0971   24.2609 C.ar    1  UNL1        0.0233
     26 C          -2.2508    3.7464   23.6816 C.ar    1  UNL1        0.0379
     27 C          -3.3637    4.1903   24.5840 C.ar    1  UNL1        0.1342
     28 O          -4.5855    4.8396   24.0047 O.3     1  UNL1       -0.4829
     29 C           4.5546   -2.7476   19.8577 C.3     1  UNL1        0.1180
     30 C           4.6238   -1.8681   18.6445 C.ar    1  UNL1        0.0693
     31 C           5.5259   -0.6833   18.4646 C.ar    1  UNL1        0.0379
     32 C           5.2626   -0.1021   17.1071 C.ar    1  UNL1        0.1211
     33 N           4.1978   -0.9277   16.4479 N.ar    1  UNL1       -0.1713
     34 N           3.8030   -2.0193   17.3981 N.ar    1  UNL1       -0.2784
     35 H           3.1243   -2.7130   17.2327 H       1  UNL1        0.1886
@<TRIPOS>BOND
     1    17    18    1
     2    18    19    1
     3    18    20    1
     4    20    21    1
     5    21    22    1
     6    22    23   ar
     7    23    24   ar
     8    24    14    1
     9    14    15    2
    10    14    16    2
    11    14    12    1
    12    12     1    1
    13     1     2   ar
    14     2     3   ar
    15     3     4   ar
    16     4     5   ar
    17     5     6   ar
    18     5     7    1
    19     7     8    1
    20     8     9    1
    21     9    29    1
    22    29    30    1
    23    30    31   ar
    24    31    32   ar
    25    32    33   ar
    26    33    34   ar
    27     9    10    1
    28    10    11    1
    29    24    25   ar
    30    25    26   ar
    31    26    27   ar
    32    27    28    1
    33    28    18    1
    34    27    22   ar
    35     6     1   ar
    36    34    30   ar
    37    11     4    1
    38    12    13    1
    39    34    35    1
@<TRIPOS>MOLECULE
*****
 35 39 0 0 0
SMALL
GASTEIGER

@<TRIPOS>ATOM
      1 C           8.0305   -5.2798   24.1982 C.ar    1  UNL1        0.0644
      2 C           7.9031   -6.6851   24.7069 C.ar    1  UNL1        0.0155
      3 C           7.7184   -6.9379   26.1739 C.ar    1  UNL1       -0.0032
      4 C           7.6610   -5.7852   27.1321 C.ar    1  UNL1       -0.0246
      5 C           7.7884   -4.3800   26.6234 C.ar    1  UNL1       -0.0234
      6 C           7.9732   -4.1272   25.1564 C.ar    1  UNL1        0.0113
      7 C           7.7586   -3.0975   27.4009 C.3     1  UNL1        0.0434
      8 C           7.5939   -2.9037   28.8792 C.3     1  UNL1        0.0771
      9 N           7.4185   -3.9444   29.9450 N.3     1  UNL1       -0.2671
     10 C           7.3644   -5.4360   29.7959 C.3     1  UNL1        0.0771
     11 C           7.4723   -6.2552   28.5440 C.3     1  UNL1        0.0434
     12 N           8.2153   -5.0272   22.7312 N.pl3   1  UNL1       -0.2150
     13 H           8.8375   -5.5846   22.2102 H       1  UNL1        0.1737
     14 S           7.4520   -3.9252   22.0580 S.O2    1  UNL1        0.0736
     15 O           6.1630   -4.6215   22.3798 O.2     1  UNL1       -0.1499
     16 O           8.7411   -3.2289   21.7362 O.2     1  UNL1       -0.1499
     17 C           3.1523    1.6957   18.5330 C.3     1  UNL1        0.0436
     18 C           2.9298    0.3273   19.1056 C.3     1  UNL1        0.1336
     19 C           1.5379    0.6471   18.6469 C.3     1  UNL1        0.0436
     20 C           2.2240   -0.9301   19.5189 C.3     1  UNL1        0.0448
     21 C           2.9872   -2.0321   20.1921 C.3     1  UNL1        0.0330
     22 C           4.4563   -1.8766   20.4519 C.ar    1  UNL1        0.0132
     23 C           5.2196   -2.9786   21.1250 C.ar    1  UNL1        0.0189
     24 C           6.6888   -2.8232   21.3849 C.ar    1  UNL1        0.1251
     25 C           7.3947   -1.5659   20.9716 C.ar    1  UNL1        0.0233
     26 C           6.6313   -0.4640   20.2984 C.ar    1  UNL1        0.0379
     27 C           5.1622   -0.6193   20.0386 C.ar    1  UNL1        0.1342
     28 O           4.3989    0.4826   19.3654 O.3     1  UNL1       -0.4829
     29 C           7.2787   -3.4248   31.3452 C.3     1  UNL1        0.1180
     30 C           5.9891   -2.7996   31.7880 C.ar    1  UNL1        0.0693
     31 C           5.3858   -1.5403   31.2399 C.ar    1  UNL1        0.0379
     32 C           4.1003   -1.2865   31.9699 C.ar    1  UNL1        0.1211
     33 N           3.9090   -2.3887   32.9691 N.ar    1  UNL1       -0.1713
     34 N           5.0764   -3.3240   32.8567 N.ar    1  UNL1       -0.2784
     35 H           5.2185   -4.1388   33.3906 H       1  UNL1        0.1886
@<TRIPOS>BOND
     1    17    18    1
     2    18    19    1
     3    18    20    1
     4    20    21    1
     5    21    22    1
     6    22    23   ar
     7    23    24   ar
     8    24    14    1
     9    14    15    2
    10    14    16    2
    11    14    12    1
    12    12     1    1
    13     1     2   ar
    14     2     3   ar
    15     3     4   ar
    16     4     5   ar
    17     5     6   ar
    18     5     7    1
    19     7     8    1
    20     8     9    1
    21     9    29    1
    22    29    30    1
    23    30    31   ar
    24    31    32   ar
    25    32    33   ar
    26    33    34   ar
    27     9    10    1
    28    10    11    1
    29    24    25   ar
    30    25    26   ar
    31    26    27   ar
    32    27    28    1
    33    28    18    1
    34    27    22   ar
    35     6     1   ar
    36    34    30   ar
    37    11     4    1
    38    12    13    1
    39    34    35    1
@<TRIPOS>MOLECULE
*****
 35 39 0 0 0
SMALL
GASTEIGER

@<TRIPOS>ATOM
      1 C           1.6921    1.3725   29.7972 C.ar    1  UNL1        0.0644
      2 C           2.1336   -0.0049   29.3997 C.ar    1  UNL1        0.0155
      3 C           2.9080   -0.8522   30.3654 C.ar    1  UNL1       -0.0032
      4 C           3.2408   -0.3220   31.7286 C.ar    1  UNL1       -0.0246
      5 C           2.7993    1.0552   32.1260 C.ar    1  UNL1       -0.0234
      6 C           2.0249    1.9025   31.1604 C.ar    1  UNL1        0.0113
      7 C           3.0237    1.7708   33.4251 C.3     1  UNL1        0.0434
      8 C           3.7452    1.2858   34.6476 C.3     1  UNL1        0.0771
      9 N           4.4204   -0.0345   34.8727 N.3     1  UNL1       -0.2671
     10 C           4.5409   -1.1960   33.9312 C.3     1  UNL1        0.0771
     11 C           4.0159   -1.3240   32.5319 C.3     1  UNL1        0.0434
     12 N           0.9177    2.2196   28.8315 N.pl3   1  UNL1       -0.2150
     13 H           0.3814    2.9766   29.1610 H       1  UNL1        0.1737
     14 S           0.9606    1.9135   27.3637 S.O2    1  UNL1        0.0736
     15 O          -0.3594    1.2091   27.4721 O.2     1  UNL1       -0.1499
     16 O           2.2805    2.6178   27.2553 O.2     1  UNL1       -0.1499
     17 C           1.4376    0.0862   19.6863 C.3     1  UNL1        0.0436
     18 C           2.1287   -0.2981   20.9610 C.3     1  UNL1        0.1336
     19 C           2.8855   -1.1516   19.9868 C.3     1  UNL1        0.0436
     20 C           3.0826   -0.9789   21.8973 C.3     1  UNL1        0.0448
     21 C           3.0398   -0.6727   23.3651 C.3     1  UNL1        0.0330
     22 C           2.0430    0.3142   23.8966 C.ar    1  UNL1        0.0132
     23 C           2.0002    0.6204   25.3644 C.ar    1  UNL1        0.0189
     24 C           1.0034    1.6073   25.8959 C.ar    1  UNL1        0.1251
     25 C           0.0495    2.2881   24.9596 C.ar    1  UNL1        0.0233
     26 C           0.0924    1.9819   23.4918 C.ar    1  UNL1        0.0379
     27 C           1.0891    0.9950   22.9603 C.ar    1  UNL1        0.1342
     28 O           1.1320    0.6888   21.4925 O.3     1  UNL1       -0.4829
     29 C           5.0596   -0.2177   36.2173 C.3     1  UNL1        0.1180
     30 C           4.6724    0.6741   37.3597 C.ar    1  UNL1        0.0693
     31 C           5.4439    1.8630   37.8508 C.ar    1  UNL1        0.0379
     32 C           4.6940    2.4571   39.0061 C.ar    1  UNL1        0.1211
     33 N           3.4590    1.6355   39.2289 N.ar    1  UNL1       -0.1713
     34 N           3.4456    0.5334   38.2113 N.ar    1  UNL1       -0.2784
     35 H           2.7533   -0.1603   38.1187 H       1  UNL1        0.1886
@<TRIPOS>BOND
     1    17    18    1
     2    18    19    1
     3    18    20    1
     4    20    21    1
     5    21    22    1
     6    22    23   ar
     7    23    24   ar
     8    24    14    1
     9    14    15    2
    10    14    16    2
    11    14    12    1
    12    12     1    1
    13     1     2   ar
    14     2     3   ar
    15     3     4   ar
    16     4     5   ar
    17     5     6   ar
    18     5     7    1
    19     7     8    1
    20     8     9    1
    21     9    29    1
    22    29    30    1
    23    30    31   ar
    24    31    32   ar
    25    32    33   ar
    26    33    34   ar
    27     9    10    1
    28    10    11    1
    29    24    25   ar
    30    25    26   ar
    31    26    27   ar
    32    27    28    1
    33    28    18    1
    34    27    22   ar
    35     6     1   ar
    36    34    30   ar
    37    11     4    1
    38    12    13    1
    39    34    35    1
