@<TRIPOS>MOLECULE
*****
 37 41 0 0 0
SMALL
GASTEIGER

@<TRIPOS>ATOM
      1 C           6.6160   -3.9186   26.2597 C.3     1  UNL1        0.0933
      2 C           6.7197   -2.7648   27.2127 C.3     1  UNL1        0.0442
      3 C           6.8047   -3.0167   28.6889 C.3     1  UNL1        0.0953
      4 N           6.7858   -4.4224   29.2122 N.am    1  UNL1       -0.2794
      5 C           6.8708   -4.6743   30.6885 C.2     1  UNL1        0.2252
      6 O           6.8520   -6.0799   31.2118 O.2     1  UNL1       -0.2749
      7 C           6.6821   -5.5761   28.2593 C.3     1  UNL1        0.0953
      8 C           6.5971   -5.3241   26.7830 C.3     1  UNL1        0.0442
      9 N           5.8597   -2.7727   22.6292 N.ar    1  UNL1       -0.2799
     10 C           5.6064   -2.6993   24.1058 C.ar    1  UNL1        0.3315
     11 O           4.6043   -1.8139   24.7855 O.2     1  UNL1       -0.2463
     12 N           6.5310   -3.6667   24.7834 N.ar    1  UNL1       -0.2817
     13 C           7.3559   -4.3380   23.7256 C.ar    1  UNL1        0.0796
     14 C           8.4311   -5.3810   23.8027 C.ar    1  UNL1        0.0188
     15 C           9.0914   -5.8715   22.5483 C.ar    1  UNL1        0.0016
     16 C           8.6766   -5.3189   21.2170 C.ar    1  UNL1        0.0016
     17 C           7.6013   -4.2759   21.1399 C.ar    1  UNL1        0.0188
     18 C           6.9410   -3.7855   22.3942 C.ar    1  UNL1        0.0797
     19 C           5.1555   -1.9736   21.5730 C.3     1  UNL1        0.1120
     20 C           3.8054   -2.4046   21.0819 C.3     1  UNL1        0.0419
     21 C           3.5943   -2.6938   19.6253 C.3     1  UNL1        0.0742
     22 C           4.5627   -4.9766   18.8500 C.3     1  UNL1        0.0897
     23 N           4.6189   -3.4777   18.8600 N.3     1  UNL1       -0.2703
     24 C           5.6998   -2.7627   18.1048 C.3     1  UNL1        0.0897
     25 C           6.9745   -3.5205   31.6414 C.3     1  UNL1        0.0795
     26 C           5.7326   -2.9212   32.2317 C.3     1  UNL1        0.0264
     27 C           5.8364   -1.7674   33.1847 C.3     1  UNL1        0.0729
     28 N           7.1822   -1.2129   33.5472 N.3     1  UNL1       -0.2689
     29 C           8.4241   -1.8122   32.9569 C.3     1  UNL1        0.0729
     30 C           8.3203   -2.9659   32.0040 C.3     1  UNL1        0.0264
     31 C           7.2860   -0.0591   34.5001 C.3     1  UNL1        0.0992
     32 C           6.0525    0.4813   35.1607 C.ar    1  UNL1       -0.0031
     33 C           5.6307   -0.0398   36.5025 C.ar    1  UNL1        0.0178
     34 C           4.3972    0.5006   37.1631 C.ar    1  UNL1        0.0986
     35 N           3.5855    1.5623   36.4819 N.ar    1  UNL1       -0.2423
     36 C           4.0073    2.0834   35.1401 C.ar    1  UNL1        0.0986
     37 C           5.2408    1.5430   34.4795 C.ar    1  UNL1        0.0178
@<TRIPOS>BOND
     1    22    23    1
     2    23    24    1
     3    23    21    1
     4    21    20    1
     5    20    19    1
     6    19     9    1
     7     9    10   ar
     8    10    11    2
     9    10    12   ar
    10    12     1    1
    11     1     2    1
    12     2     3    1
    13     3     4    1
    14     4     5   am
    15     5     6    2
    16     5    25    1
    17    25    26    1
    18    26    27    1
    19    27    28    1
    20    28    31    1
    21    31    32    1
    22    32    33   ar
    23    33    34   ar
    24    34    35   ar
    25    35    36   ar
    26    36    37   ar
    27    28    29    1
    28    29    30    1
    29     4     7    1
    30     7     8    1
    31    12    13   ar
    32    13    14   ar
    33    14    15   ar
    34    15    16   ar
    35    16    17   ar
    36    17    18   ar
    37    18     9   ar
    38     8     1    1
    39    18    13   ar
    40    30    25    1
    41    37    32   ar
@<TRIPOS>MOLECULE
*****
 37 41 0 0 0
SMALL
GASTEIGER

@<TRIPOS>ATOM
      1 C           1.6299    0.8213   19.6796 C.3     1  UNL1        0.0933
      2 C           0.5084    0.8988   20.6728 C.3     1  UNL1        0.0442
      3 C          -0.5254    1.9791   20.5539 C.3     1  UNL1        0.0953
      4 N          -0.4378    2.9819   19.4418 N.am    1  UNL1       -0.2794
      5 C          -1.4716    4.0622   19.3229 C.2     1  UNL1        0.2252
      6 O          -1.3840    5.0650   18.2108 O.2     1  UNL1       -0.2749
      7 C           0.6837    2.9044   18.4487 C.3     1  UNL1        0.0953
      8 C           1.7175    1.8241   18.5676 C.3     1  UNL1        0.0442
      9 N           4.3170   -1.9439   19.2346 N.ar    1  UNL1       -0.2799
     10 C           3.3725   -0.9304   18.6597 C.ar    1  UNL1        0.3315
     11 O           3.1719   -0.6393   17.2019 O.2     1  UNL1       -0.2463
     12 N           2.6637   -0.2590   19.7985 N.ar    1  UNL1       -0.2817
     13 C           3.1703   -0.8577   21.0772 C.ar    1  UNL1        0.0796
     14 C           2.8331   -0.5891   22.5139 C.ar    1  UNL1        0.0188
     15 C           3.5177   -1.3618   23.6021 C.ar    1  UNL1        0.0016
     16 C           4.5396   -2.4032   23.2535 C.ar    1  UNL1        0.0016
     17 C           4.8768   -2.6717   21.8168 C.ar    1  UNL1        0.0188
     18 C           4.1921   -1.8990   20.7287 C.ar    1  UNL1        0.0797
     19 C           5.2269   -2.8443   18.4526 C.3     1  UNL1        0.1120
     20 C           6.4848   -2.2965   17.8466 C.3     1  UNL1        0.0419
     21 C           7.1921   -1.1456   18.4988 C.3     1  UNL1        0.0742
     22 C           6.3297    1.1901   19.2408 C.3     1  UNL1        0.0897
     23 N           6.8026    0.2629   18.1607 N.3     1  UNL1       -0.2703
     24 C           6.8859    0.7443   16.7425 C.3     1  UNL1        0.0897
     25 C          -2.5930    4.1397   20.3160 C.3     1  UNL1        0.0795
     26 C          -2.5079    5.0935   21.4706 C.3     1  UNL1        0.0264
     27 C          -3.6294    5.1709   22.4638 C.3     1  UNL1        0.0729
     28 N          -4.8360    4.2944   22.3024 N.3     1  UNL1       -0.2689
     29 C          -4.9211    3.3406   21.1478 C.3     1  UNL1        0.0729
     30 C          -3.7997    3.2633   20.1547 C.3     1  UNL1        0.0264
     31 C          -5.9574    4.3719   23.2955 C.3     1  UNL1        0.0992
     32 C          -5.6618    4.6425   24.7410 C.ar    1  UNL1       -0.0031
     33 C          -4.5883    3.8667   25.4450 C.ar    1  UNL1        0.0178
     34 C          -4.2927    4.1373   26.8905 C.ar    1  UNL1        0.0986
     35 N          -5.0707    5.1837   27.6319 N.ar    1  UNL1       -0.2423
     36 C          -6.1442    5.9596   26.9279 C.ar    1  UNL1        0.0986
     37 C          -6.4397    5.6890   25.4824 C.ar    1  UNL1        0.0178
@<TRIPOS>BOND
     1    22    23    1
     2    23    24    1
     3    23    21    1
     4    21    20    1
     5    20    19    1
     6    19     9    1
     7     9    10   ar
     8    10    11    2
     9    10    12   ar
    10    12     1    1
    11     1     2    1
    12     2     3    1
    13     3     4    1
    14     4     5   am
    15     5     6    2
    16     5    25    1
    17    25    26    1
    18    26    27    1
    19    27    28    1
    20    28    31    1
    21    31    32    1
    22    32    33   ar
    23    33    34   ar
    24    34    35   ar
    25    35    36   ar
    26    36    37   ar
    27    28    29    1
    28    29    30    1
    29     4     7    1
    30     7     8    1
    31    12    13   ar
    32    13    14   ar
    33    14    15   ar
    34    15    16   ar
    35    16    17   ar
    36    17    18   ar
    37    18     9   ar
    38     8     1    1
    39    18    13   ar
    40    30    25    1
    41    37    32   ar
@<TRIPOS>MOLECULE
*****
 37 41 0 0 0
SMALL
GASTEIGER

@<TRIPOS>ATOM
      1 C           8.0932   -3.9773   24.3966 C.3     1  UNL1        0.0933
      2 C           6.8682   -3.3335   23.8177 C.3     1  UNL1        0.0442
      3 C           6.8554   -2.9021   22.3811 C.3     1  UNL1        0.0953
      4 N           8.0675   -3.1145   21.5234 N.am    1  UNL1       -0.2794
      5 C           8.0546   -2.6832   20.0868 C.2     1  UNL1        0.2252
      6 O           9.2667   -2.8955   19.2291 O.2     1  UNL1       -0.2749
      7 C           9.2924   -3.7582   22.1022 C.3     1  UNL1        0.0953
      8 C           9.3053   -4.1896   23.5388 C.3     1  UNL1        0.0442
      9 N           8.0327   -4.3599   28.2586 N.ar    1  UNL1       -0.2799
     10 C           7.9629   -3.5093   27.0251 C.ar    1  UNL1        0.3315
     11 O           7.7817   -2.0207   26.9897 O.2     1  UNL1       -0.2463
     12 N           8.1061   -4.4086   25.8332 N.ar    1  UNL1       -0.2817
     13 C           8.2644   -5.8151   26.3300 C.ar    1  UNL1        0.0796
     14 C           8.4440   -7.1193   25.6111 C.ar    1  UNL1        0.0188
     15 C           8.5782   -8.3933   26.3912 C.ar    1  UNL1        0.0016
     16 C           8.5329   -8.3632   27.8903 C.ar    1  UNL1        0.0016
     17 C           8.3533   -7.0591   28.6091 C.ar    1  UNL1        0.0188
     18 C           8.2190   -5.7850   27.8290 C.ar    1  UNL1        0.0797
     19 C           7.9335   -3.8713   29.6733 C.3     1  UNL1        0.1120
     20 C           6.7506   -4.2472   30.5154 C.3     1  UNL1        0.0419
     21 C           6.5491   -3.6039   31.8554 C.3     1  UNL1        0.0742
     22 C           5.3407   -1.4694   30.9988 C.3     1  UNL1        0.0897
     23 N           5.4987   -2.5474   32.0299 N.3     1  UNL1       -0.2703
     24 C           4.6063   -2.5687   33.2353 C.3     1  UNL1        0.0897
     25 C           6.8297   -2.0394   19.5080 C.3     1  UNL1        0.0795
     26 C           5.8206   -2.8719   18.7741 C.3     1  UNL1        0.0264
     27 C           4.5955   -2.2281   18.1953 C.3     1  UNL1        0.0729
     28 N           4.3797   -0.7518   18.3505 N.3     1  UNL1       -0.2689
     29 C           5.3888    0.0806   19.0844 C.3     1  UNL1        0.0729
     30 C           6.6138   -0.5632   19.6631 C.3     1  UNL1        0.0264
     31 C           3.1547   -0.1081   17.7717 C.3     1  UNL1        0.0992
     32 C           2.0412    0.3328   18.6748 C.ar    1  UNL1       -0.0031
     33 C           1.3839    1.6639   18.4602 C.ar    1  UNL1        0.0178
     34 C           0.2704    2.1048   19.3634 C.ar    1  UNL1        0.0986
     35 N          -0.1857    1.2147   20.4812 N.ar    1  UNL1       -0.2423
     36 C           0.4717   -0.1164   20.6958 C.ar    1  UNL1        0.0986
     37 C           1.5851   -0.5573   19.7927 C.ar    1  UNL1        0.0178
@<TRIPOS>BOND
     1    22    23    1
     2    23    24    1
     3    23    21    1
     4    21    20    1
     5    20    19    1
     6    19     9    1
     7     9    10   ar
     8    10    11    2
     9    10    12   ar
    10    12     1    1
    11     1     2    1
    12     2     3    1
    13     3     4    1
    14     4     5   am
    15     5     6    2
    16     5    25    1
    17    25    26    1
    18    26    27    1
    19    27    28    1
    20    28    31    1
    21    31    32    1
    22    32    33   ar
    23    33    34   ar
    24    34    35   ar
    25    35    36   ar
    26    36    37   ar
    27    28    29    1
    28    29    30    1
    29     4     7    1
    30     7     8    1
    31    12    13   ar
    32    13    14   ar
    33    14    15   ar
    34    15    16   ar
    35    16    17   ar
    36    17    18   ar
    37    18     9   ar
    38     8     1    1
    39    18    13   ar
    40    30    25    1
    41    37    32   ar
@<TRIPOS>MOLECULE
*****
 37 41 0 0 0
SMALL
GASTEIGER

@<TRIPOS>ATOM
      1 C           6.5161   -2.9733   26.6674 C.3     1  UNL1        0.0933
      2 C           5.6593   -2.2283   25.6871 C.3     1  UNL1        0.0442
      3 C           5.7408   -2.5493   24.2242 C.3     1  UNL1        0.0953
      4 N           6.6791   -3.6154   23.7414 N.am    1  UNL1       -0.2794
      5 C           6.7607   -3.9364   22.2784 C.2     1  UNL1        0.2252
      6 O           7.6990   -5.0025   21.7957 O.2     1  UNL1       -0.2749
      7 C           7.5359   -4.3604   24.7216 C.3     1  UNL1        0.0953
      8 C           7.4544   -4.0393   26.1846 C.3     1  UNL1        0.0442
      9 N           6.1735   -1.4394   30.2163 N.ar    1  UNL1       -0.2799
     10 C           6.1672   -1.3004   28.7228 C.ar    1  UNL1        0.3315
     11 O           5.9345   -0.0322   27.9563 O.2     1  UNL1       -0.2463
     12 N           6.4346   -2.6523   28.1304 N.ar    1  UNL1       -0.2817
     13 C           6.6060   -3.6268   29.2578 C.ar    1  UNL1        0.0796
     14 C           6.8882   -5.0999   29.2769 C.ar    1  UNL1        0.0188
     15 C           7.0090   -5.8233   30.5853 C.ar    1  UNL1        0.0016
     16 C           6.8477   -5.0737   31.8746 C.ar    1  UNL1        0.0016
     17 C           6.5655   -3.6007   31.8554 C.ar    1  UNL1        0.0188
     18 C           6.4447   -2.8772   30.5470 C.ar    1  UNL1        0.0797
     19 C           5.9481   -0.3346   31.2056 C.3     1  UNL1        0.1120
     20 C           4.5855   -0.1224   31.7955 C.3     1  UNL1        0.0419
     21 C           3.3959   -0.8206   31.2060 C.3     1  UNL1        0.0742
     22 C           2.4775   -0.6458   28.7819 C.3     1  UNL1        0.0897
     23 N           2.5459   -0.1226   30.1861 N.3     1  UNL1       -0.2703
     24 C           1.7643    1.0986   30.5702 C.3     1  UNL1        0.0897
     25 C           5.9039   -3.1913   21.2983 C.3     1  UNL1        0.0795
     26 C           6.3199   -1.8318   20.8203 C.3     1  UNL1        0.0264
     27 C           5.4629   -1.0867   19.8401 C.3     1  UNL1        0.0729
     28 N           4.1901   -1.7013   19.3379 N.3     1  UNL1       -0.2689
     29 C           3.7741   -3.0609   19.8159 C.3     1  UNL1        0.0729
     30 C           4.6310   -3.8059   20.7961 C.3     1  UNL1        0.0264
     31 C           3.3333   -0.9562   18.3578 C.3     1  UNL1        0.0992
     32 C           2.3066    0.0204   18.8498 C.ar    1  UNL1       -0.0031
     33 C           1.2735   -0.4157   19.8461 C.ar    1  UNL1        0.0178
     34 C           0.2468    0.5609   20.3381 C.ar    1  UNL1        0.0986
     35 N           0.2532    1.9736   19.8338 N.ar    1  UNL1       -0.2423
     36 C           1.2862    2.4096   18.8375 C.ar    1  UNL1        0.0986
     37 C           2.3130    1.4330   18.3455 C.ar    1  UNL1        0.0178
@<TRIPOS>BOND
     1    22    23    1
     2    23    24    1
     3    23    21    1
     4    21    20    1
     5    20    19    1
     6    19     9    1
     7     9    10   ar
     8    10    11    2
     9    10    12   ar
    10    12     1    1
    11     1     2    1
    12     2     3    1
    13     3     4    1
    14     4     5   am
    15     5     6    2
    16     5    25    1
    17    25    26    1
    18    26    27    1
    19    27    28    1
    20    28    31    1
    21    31    32    1
    22    32    33   ar
    23    33    34   ar
    24    34    35   ar
    25    35    36   ar
    26    36    37   ar
    27    28    29    1
    28    29    30    1
    29     4     7    1
    30     7     8    1
    31    12    13   ar
    32    13    14   ar
    33    14    15   ar
    34    15    16   ar
    35    16    17   ar
    36    17    18   ar
    37    18     9   ar
    38     8     1    1
    39    18    13   ar
    40    30    25    1
    41    37    32   ar
@<TRIPOS>MOLECULE
*****
 37 41 0 0 0
SMALL
GASTEIGER

@<TRIPOS>ATOM
      1 C           5.3562   -1.9524   26.9647 C.3     1  UNL1        0.0933
      2 C           6.0998   -1.8403   28.2627 C.3     1  UNL1        0.0442
      3 C           5.4043   -1.3122   29.4823 C.3     1  UNL1        0.0953
      4 N           3.9653   -0.8961   29.4040 N.am    1  UNL1       -0.2794
      5 C           3.2698   -0.3680   30.6236 C.2     1  UNL1        0.2252
      6 O           1.8308    0.0481   30.5453 O.2     1  UNL1       -0.2749
      7 C           3.2218   -1.0082   28.1061 C.3     1  UNL1        0.0953
      8 C           3.9173   -1.5363   26.8865 C.3     1  UNL1        0.0442
      9 N           7.0215   -2.6338   23.5256 N.ar    1  UNL1       -0.2799
     10 C           6.2980   -1.7239   24.4736 C.ar    1  UNL1        0.3315
     11 O           5.8921   -0.3063   24.1984 O.2     1  UNL1       -0.2463
     12 N           6.0517   -2.4805   25.7451 N.ar    1  UNL1       -0.2817
     13 C           6.6229   -3.8580   25.5830 C.ar    1  UNL1        0.0796
     14 C           6.6746   -5.0382   26.5073 C.ar    1  UNL1        0.0188
     15 C           7.3258   -6.3132   26.0597 C.ar    1  UNL1        0.0016
     16 C           7.9252   -6.4080   24.6880 C.ar    1  UNL1        0.0016
     17 C           7.8734   -5.2277   23.7637 C.ar    1  UNL1        0.0188
     18 C           7.2223   -3.9527   24.2113 C.ar    1  UNL1        0.0797
     19 C           7.4661   -2.2858   22.1359 C.3     1  UNL1        0.1120
     20 C           6.4972   -2.3738   20.9943 C.3     1  UNL1        0.0419
     21 C           5.7152   -3.6339   20.7696 C.3     1  UNL1        0.0742
     22 C           3.8303   -4.8123   19.4248 C.3     1  UNL1        0.0897
     23 N           4.9633   -3.8313   19.4868 N.3     1  UNL1       -0.2703
     24 C           5.3443   -3.0476   18.2659 C.3     1  UNL1        0.0897
     25 C           4.0134   -0.2560   31.9215 C.3     1  UNL1        0.0795
     26 C           4.0776   -1.4300   32.8529 C.3     1  UNL1        0.0264
     27 C           4.8213   -1.3180   34.1508 C.3     1  UNL1        0.0729
     28 N           5.5007   -0.0318   34.5173 N.3     1  UNL1       -0.2689
     29 C           5.4365    1.1422   33.5859 C.3     1  UNL1        0.0729
     30 C           4.6929    1.0301   32.2880 C.3     1  UNL1        0.0264
     31 C           6.2443    0.0802   35.8151 C.3     1  UNL1        0.0992
     32 C           5.6156    0.7833   36.9815 C.ar    1  UNL1       -0.0031
     33 C           4.1797    0.5234   37.3287 C.ar    1  UNL1        0.0178
     34 C           3.5511    1.2265   38.4951 C.ar    1  UNL1        0.0986
     35 N           4.3584    2.1895   39.3142 N.ar    1  UNL1       -0.2423
     36 C           5.7943    2.4493   38.9670 C.ar    1  UNL1        0.0986
     37 C           6.4229    1.7462   37.8006 C.ar    1  UNL1        0.0178
@<TRIPOS>BOND
     1    22    23    1
     2    23    24    1
     3    23    21    1
     4    21    20    1
     5    20    19    1
     6    19     9    1
     7     9    10   ar
     8    10    11    2
     9    10    12   ar
    10    12     1    1
    11     1     2    1
    12     2     3    1
    13     3     4    1
    14     4     5   am
    15     5     6    2
    16     5    25    1
    17    25    26    1
    18    26    27    1
    19    27    28    1
    20    28    31    1
    21    31    32    1
    22    32    33   ar
    23    33    34   ar
    24    34    35   ar
    25    35    36   ar
    26    36    37   ar
    27    28    29    1
    28    29    30    1
    29     4     7    1
    30     7     8    1
    31    12    13   ar
    32    13    14   ar
    33    14    15   ar
    34    15    16   ar
    35    16    17   ar
    36    17    18   ar
    37    18     9   ar
    38     8     1    1
    39    18    13   ar
    40    30    25    1
    41    37    32   ar
@<TRIPOS>MOLECULE
*****
 37 41 0 0 0
SMALL
GASTEIGER

@<TRIPOS>ATOM
      1 C           0.1840    2.4786   19.1707 C.3     1  UNL1        0.0933
      2 C          -0.7055    2.6431   20.3674 C.3     1  UNL1        0.0442
      3 C          -1.9699    3.4427   20.2577 C.3     1  UNL1        0.0953
      4 N          -2.3448    4.0777   18.9516 N.am    1  UNL1       -0.2794
      5 C          -3.6092    4.8773   18.8419 C.2     1  UNL1        0.2252
      6 O          -3.9841    5.5124   17.5358 O.2     1  UNL1       -0.2749
      7 C          -1.4554    3.9132   17.7550 C.3     1  UNL1        0.0953
      8 C          -0.1910    3.1137   17.8646 C.3     1  UNL1        0.0442
      9 N           3.0101   -0.1160   19.7593 N.ar    1  UNL1       -0.2799
     10 C           1.5703    0.2954   19.8468 C.ar    1  UNL1        0.3315
     11 O           0.4493   -0.5315   20.4030 O.2     1  UNL1       -0.2463
     12 N           1.4484    1.6790   19.2803 N.ar    1  UNL1       -0.2817
     13 C           2.8128    2.1227   18.8428 C.ar    1  UNL1        0.0796
     14 C           3.3010    3.3935   18.2130 C.ar    1  UNL1        0.0188
     15 C           4.7545    3.5550   17.8793 C.ar    1  UNL1        0.0016
     16 C           5.7197    2.4456   18.1753 C.ar    1  UNL1        0.0016
     17 C           5.2315    1.1748   18.8050 C.ar    1  UNL1        0.0188
     18 C           3.7780    1.0133   19.1387 C.ar    1  UNL1        0.0797
     19 C           3.5817   -1.4266   20.2126 C.3     1  UNL1        0.1120
     20 C           3.5990   -2.6004   19.2791 C.3     1  UNL1        0.0419
     21 C           4.8134   -2.8758   18.4427 C.3     1  UNL1        0.0742
     22 C           7.2546   -1.9882   18.4944 C.3     1  UNL1        0.0897
     23 N           6.1759   -2.8573   19.0698 N.3     1  UNL1       -0.2703
     24 C           6.4597   -3.7077   20.2724 C.3     1  UNL1        0.0897
     25 C          -4.4986    5.0418   20.0385 C.3     1  UNL1        0.0795
     26 C          -4.3659    6.2549   20.9107 C.3     1  UNL1        0.0264
     27 C          -5.2554    6.4193   22.1073 C.3     1  UNL1        0.0729
     28 N          -6.2776    5.3705   22.4318 N.3     1  UNL1       -0.2689
     29 C          -6.4103    4.1574   21.5596 C.3     1  UNL1        0.0729
     30 C          -5.5208    3.9930   20.3630 C.3     1  UNL1        0.0264
     31 C          -7.1670    5.5349   23.6284 C.3     1  UNL1        0.0992
     32 C          -6.5801    5.5082   25.0085 C.ar    1  UNL1       -0.0031
     33 C          -7.2104    6.3115   26.1073 C.ar    1  UNL1        0.0178
     34 C          -6.6235    6.2847   27.4874 C.ar    1  UNL1        0.0986
     35 N          -5.4063    5.4546   27.7688 N.ar    1  UNL1       -0.2423
     36 C          -4.7760    4.6512   26.6700 C.ar    1  UNL1        0.0986
     37 C          -5.3629    4.6780   25.2899 C.ar    1  UNL1        0.0178
@<TRIPOS>BOND
     1    22    23    1
     2    23    24    1
     3    23    21    1
     4    21    20    1
     5    20    19    1
     6    19     9    1
     7     9    10   ar
     8    10    11    2
     9    10    12   ar
    10    12     1    1
    11     1     2    1
    12     2     3    1
    13     3     4    1
    14     4     5   am
    15     5     6    2
    16     5    25    1
    17    25    26    1
    18    26    27    1
    19    27    28    1
    20    28    31    1
    21    31    32    1
    22    32    33   ar
    23    33    34   ar
    24    34    35   ar
    25    35    36   ar
    26    36    37   ar
    27    28    29    1
    28    29    30    1
    29     4     7    1
    30     7     8    1
    31    12    13   ar
    32    13    14   ar
    33    14    15   ar
    34    15    16   ar
    35    16    17   ar
    36    17    18   ar
    37    18     9   ar
    38     8     1    1
    39    18    13   ar
    40    30    25    1
    41    37    32   ar
@<TRIPOS>MOLECULE
*****
 37 41 0 0 0
SMALL
GASTEIGER

@<TRIPOS>ATOM
      1 C           6.1870   -3.4477   23.7543 C.3     1  UNL1        0.0933
      2 C           5.0483   -2.4722   23.8016 C.3     1  UNL1        0.0442
      3 C           4.5019   -1.8951   22.5295 C.3     1  UNL1        0.0953
      4 N           5.0940   -2.2933   21.2101 N.am    1  UNL1       -0.2794
      5 C           4.5475   -1.7161   19.9380 C.2     1  UNL1        0.2252
      6 O           5.1396   -2.1144   18.6186 O.2     1  UNL1       -0.2749
      7 C           6.2325   -3.2687   21.1629 C.3     1  UNL1        0.0953
      8 C           6.7790   -3.8459   22.4350 C.3     1  UNL1        0.0442
      9 N           7.3222   -4.3169   27.3628 N.ar    1  UNL1       -0.2799
     10 C           6.6467   -3.3995   26.3871 C.ar    1  UNL1        0.3315
     11 O           5.9983   -2.0871   26.7145 O.2     1  UNL1       -0.2463
     12 N           6.7334   -4.0249   25.0265 N.ar    1  UNL1       -0.2817
     13 C           7.4625   -5.3288   25.1612 C.ar    1  UNL1        0.0796
     14 C           7.8420   -6.3751   24.1557 C.ar    1  UNL1        0.0188
     15 C           8.5855   -7.6019   24.5941 C.ar    1  UNL1        0.0016
     16 C           8.9494   -7.7824   26.0381 C.ar    1  UNL1        0.0016
     17 C           8.5699   -6.7361   27.0436 C.ar    1  UNL1        0.0188
     18 C           7.8264   -5.5093   26.6052 C.ar    1  UNL1        0.0797
     19 C           7.4679   -4.0830   28.8373 C.3     1  UNL1        0.1120
     20 C           6.8074   -5.0113   29.8128 C.3     1  UNL1        0.0419
     21 C           7.2006   -4.9821   31.2601 C.3     1  UNL1        0.0742
     22 C           8.4654   -2.9724   32.3143 C.3     1  UNL1        0.0897
     23 N           7.1806   -3.6871   32.0167 N.3     1  UNL1       -0.2703
     24 C           5.8759   -3.1067   32.4758 C.3     1  UNL1        0.0897
     25 C           3.4090   -0.7407   19.9854 C.3     1  UNL1        0.0795
     26 C           3.6736    0.7286   19.8408 C.3     1  UNL1        0.0264
     27 C           2.5350    1.7040   19.8882 C.3     1  UNL1        0.0729
     28 N           1.1317    1.2100   20.0801 N.3     1  UNL1       -0.2689
     29 C           0.8671   -0.2593   20.2247 C.3     1  UNL1        0.0729
     30 C           2.0057   -1.2347   20.1774 C.3     1  UNL1        0.0264
     31 C          -0.0068    2.1854   20.1275 C.3     1  UNL1        0.0992
     32 C          -0.5612    2.6276   21.4493 C.ar    1  UNL1       -0.0031
     33 C           0.1962    2.3445   22.7128 C.ar    1  UNL1        0.0178
     34 C          -0.3582    2.7866   24.0346 C.ar    1  UNL1        0.0986
     35 N          -1.6699    3.5119   24.0929 N.ar    1  UNL1       -0.2423
     36 C          -2.4272    3.7950   22.8294 C.ar    1  UNL1        0.0986
     37 C          -1.8729    3.3528   21.5076 C.ar    1  UNL1        0.0178
@<TRIPOS>BOND
     1    22    23    1
     2    23    24    1
     3    23    21    1
     4    21    20    1
     5    20    19    1
     6    19     9    1
     7     9    10   ar
     8    10    11    2
     9    10    12   ar
    10    12     1    1
    11     1     2    1
    12     2     3    1
    13     3     4    1
    14     4     5   am
    15     5     6    2
    16     5    25    1
    17    25    26    1
    18    26    27    1
    19    27    28    1
    20    28    31    1
    21    31    32    1
    22    32    33   ar
    23    33    34   ar
    24    34    35   ar
    25    35    36   ar
    26    36    37   ar
    27    28    29    1
    28    29    30    1
    29     4     7    1
    30     7     8    1
    31    12    13   ar
    32    13    14   ar
    33    14    15   ar
    34    15    16   ar
    35    16    17   ar
    36    17    18   ar
    37    18     9   ar
    38     8     1    1
    39    18    13   ar
    40    30    25    1
    41    37    32   ar
@<TRIPOS>MOLECULE
*****
 37 41 0 0 0
SMALL
GASTEIGER

@<TRIPOS>ATOM
      1 C           0.8223    2.0838   19.2894 C.3     1  UNL1        0.0933
      2 C           0.1762    2.0737   20.6431 C.3     1  UNL1        0.0442
      3 C          -1.0761    2.8639   20.8824 C.3     1  UNL1        0.0953
      4 N          -1.6824    3.6642   19.7679 N.am    1  UNL1       -0.2794
      5 C          -2.9347    4.4544   20.0071 C.2     1  UNL1        0.2252
      6 O          -3.5410    5.2547   18.8927 O.2     1  UNL1       -0.2749
      7 C          -1.0363    3.6743   18.4142 C.3     1  UNL1        0.0953
      8 C           0.2160    2.8841   18.1750 C.3     1  UNL1        0.0442
      9 N           3.6572   -0.5423   18.9258 N.ar    1  UNL1       -0.2799
     10 C           2.2532   -0.1739   19.3040 C.ar    1  UNL1        0.3315
     11 O           1.2108   -1.1090   19.8417 O.2     1  UNL1       -0.2463
     12 N           2.0747    1.2936   19.0501 N.ar    1  UNL1       -0.2817
     13 C           3.3683    1.8322   18.5150 C.ar    1  UNL1        0.0796
     14 C           3.7820    3.2093   18.0878 C.ar    1  UNL1        0.0188
     15 C           5.1738    3.4517   17.5838 C.ar    1  UNL1        0.0016
     16 C           6.1519    2.3170   17.5069 C.ar    1  UNL1        0.0016
     17 C           5.7382    0.9400   17.9341 C.ar    1  UNL1        0.0188
     18 C           4.3464    0.6976   18.4382 C.ar    1  UNL1        0.0797
     19 C           4.2653   -1.9103   19.0188 C.3     1  UNL1        0.1120
     20 C           3.8553   -2.8399   20.1223 C.3     1  UNL1        0.0419
     21 C           4.6968   -4.0392   20.4442 C.3     1  UNL1        0.0742
     22 C           7.2266   -4.0706   21.0350 C.3     1  UNL1        0.0897
     23 N           5.7948   -3.9339   21.4607 N.3     1  UNL1       -0.2703
     24 C           5.4611   -3.6920   22.9029 C.3     1  UNL1        0.0897
     25 C          -3.5807    4.4443   21.3608 C.3     1  UNL1        0.0795
     26 C          -4.5507    3.3583   21.7210 C.3     1  UNL1        0.0264
     27 C          -5.1967    3.3482   23.0748 C.3     1  UNL1        0.0729
     28 N          -4.8727    4.4242   24.0684 N.3     1  UNL1       -0.2689
     29 C          -3.9027    5.5103   23.7083 C.3     1  UNL1        0.0729
     30 C          -3.2568    5.5203   22.3545 C.3     1  UNL1        0.0264
     31 C          -5.5187    4.4141   25.4221 C.3     1  UNL1        0.0992
     32 C          -6.5771    5.4233   25.7557 C.ar    1  UNL1       -0.0031
     33 C          -7.6754    5.7104   24.7752 C.ar    1  UNL1        0.0178
     34 C          -8.7338    6.7196   25.1088 C.ar    1  UNL1        0.0986
     35 N          -8.6938    7.4418   26.4228 N.ar    1  UNL1       -0.2423
     36 C          -7.5955    7.1548   27.4033 C.ar    1  UNL1        0.0986
     37 C          -6.5371    6.1456   27.0697 C.ar    1  UNL1        0.0178
@<TRIPOS>BOND
     1    22    23    1
     2    23    24    1
     3    23    21    1
     4    21    20    1
     5    20    19    1
     6    19     9    1
     7     9    10   ar
     8    10    11    2
     9    10    12   ar
    10    12     1    1
    11     1     2    1
    12     2     3    1
    13     3     4    1
    14     4     5   am
    15     5     6    2
    16     5    25    1
    17    25    26    1
    18    26    27    1
    19    27    28    1
    20    28    31    1
    21    31    32    1
    22    32    33   ar
    23    33    34   ar
    24    34    35   ar
    25    35    36   ar
    26    36    37   ar
    27    28    29    1
    28    29    30    1
    29     4     7    1
    30     7     8    1
    31    12    13   ar
    32    13    14   ar
    33    14    15   ar
    34    15    16   ar
    35    16    17   ar
    36    17    18   ar
    37    18     9   ar
    38     8     1    1
    39    18    13   ar
    40    30    25    1
    41    37    32   ar
@<TRIPOS>MOLECULE
*****
 37 41 0 0 0
SMALL
GASTEIGER

@<TRIPOS>ATOM
      1 C           2.0984    0.6084   20.9047 C.3     1  UNL1        0.0933
      2 C           0.9880    1.0247   21.8235 C.3     1  UNL1        0.0442
      3 C          -0.0617    1.9834   21.3450 C.3     1  UNL1        0.0953
      4 N          -0.0011    2.5259   19.9478 N.am    1  UNL1       -0.2794
      5 C          -1.0509    3.4846   19.4693 C.2     1  UNL1        0.2252
      6 O          -0.9903    4.0270   18.0722 O.2     1  UNL1       -0.2749
      7 C           1.1091    2.1096   19.0291 C.3     1  UNL1        0.0953
      8 C           2.1588    1.1508   19.5076 C.3     1  UNL1        0.0442
      9 N           4.9251   -1.3646   22.6885 N.ar    1  UNL1       -0.2799
     10 C           4.0268   -0.1678   22.5852 C.ar    1  UNL1        0.3315
     11 O           4.0100    1.0054   23.5196 O.2     1  UNL1       -0.2463
     12 N           3.1481   -0.3503   21.3832 N.ar    1  UNL1       -0.2817
     13 C           3.5034   -1.6599   20.7438 C.ar    1  UNL1        0.0796
     14 C           2.9687   -2.3625   19.5312 C.ar    1  UNL1        0.0188
     15 C           3.5324   -3.6919   19.1253 C.ar    1  UNL1        0.0016
     16 C           4.6306   -4.3188   19.9320 C.ar    1  UNL1        0.0016
     17 C           5.1653   -3.6162   21.1446 C.ar    1  UNL1        0.0188
     18 C           4.6017   -2.2867   21.5505 C.ar    1  UNL1        0.0797
     19 C           5.9645   -1.5982   23.7445 C.3     1  UNL1        0.1120
     20 C           5.7568   -2.6649   24.7783 C.3     1  UNL1        0.0419
     21 C           6.4910   -3.9684   24.6692 C.3     1  UNL1        0.0742
     22 C           7.3695   -6.1326   25.8069 C.3     1  UNL1        0.0897
     23 N           6.8693   -4.7222   25.9096 N.3     1  UNL1       -0.2703
     24 C           6.7474   -4.0658   27.2528 C.3     1  UNL1        0.0897
     25 C          -2.1611    3.9008   20.3880 C.3     1  UNL1        0.0795
     26 C          -2.0117    5.1284   21.2370 C.3     1  UNL1        0.0264
     27 C          -3.1221    5.5446   22.1557 C.3     1  UNL1        0.0729
     28 N          -4.3817    4.7332   22.2255 N.3     1  UNL1       -0.2689
     29 C          -4.5311    3.5056   21.3766 C.3     1  UNL1        0.0729
     30 C          -3.4208    3.0894   20.4579 C.3     1  UNL1        0.0264
     31 C          -5.4920    5.1494   23.1442 C.3     1  UNL1        0.0992
     32 C          -5.3058    5.0686   24.6304 C.ar    1  UNL1       -0.0031
     33 C          -4.3439    4.0759   25.2130 C.ar    1  UNL1        0.0178
     34 C          -4.1577    3.9951   26.6992 C.ar    1  UNL1        0.0986
     35 N          -4.9334    4.9070   27.6028 N.ar    1  UNL1       -0.2423
     36 C          -5.8952    5.8998   27.0203 C.ar    1  UNL1        0.0986
     37 C          -6.0814    5.9806   25.5341 C.ar    1  UNL1        0.0178
@<TRIPOS>BOND
     1    22    23    1
     2    23    24    1
     3    23    21    1
     4    21    20    1
     5    20    19    1
     6    19     9    1
     7     9    10   ar
     8    10    11    2
     9    10    12   ar
    10    12     1    1
    11     1     2    1
    12     2     3    1
    13     3     4    1
    14     4     5   am
    15     5     6    2
    16     5    25    1
    17    25    26    1
    18    26    27    1
    19    27    28    1
    20    28    31    1
    21    31    32    1
    22    32    33   ar
    23    33    34   ar
    24    34    35   ar
    25    35    36   ar
    26    36    37   ar
    27    28    29    1
    28    29    30    1
    29     4     7    1
    30     7     8    1
    31    12    13   ar
    32    13    14   ar
    33    14    15   ar
    34    15    16   ar
    35    16    17   ar
    36    17    18   ar
    37    18     9   ar
    38     8     1    1
    39    18    13   ar
    40    30    25    1
    41    37    32   ar
