@<TRIPOS>MOLECULE
*****
 14 14 0 0 0
SMALL
GASTEIGER

@<TRIPOS>ATOM
      1 C           2.4718  -13.4660   28.1528 C.ar    1  UNL1       -0.0221
      2 C           2.9665  -12.5942   29.2687 C.ar    1  UNL1       -0.0030
      3 C           4.3511  -12.0197   29.2142 C.ar    1  UNL1        0.0143
      4 C           5.2408  -12.3169   28.0438 C.ar    1  UNL1        0.0495
      5 C           4.7461  -13.1886   26.9279 C.ar    1  UNL1        0.0143
      6 C           3.3616  -13.7632   26.9824 C.ar    1  UNL1       -0.0030
      7 C          -0.0851  -13.1471   28.4849 C.3     1  UNL1        0.0050
      8 C           1.0873  -14.0406   28.2073 C.3     1  UNL1        0.0264
      9 N           6.6254  -11.7423   27.9892 N.pl3   1  UNL1       -0.2930
     10 H           6.7522  -10.7760   27.8496 H       1  UNL1        0.1538
     11 C           7.8167  -12.6399   28.1474 C.2     1  UNL1        0.2056
     12 N           7.7973  -13.7391   29.1679 N.2     1  UNL1       -0.0679
     13 O           8.9887  -14.6367   29.3261 O.2     1  UNL1       -0.4077
     14 H           8.9766  -15.3233   29.9636 H       1  UNL1        0.3278
@<TRIPOS>BOND
     1     7     8    1
     2     8     1    1
     3     1     2   ar
     4     2     3   ar
     5     3     4   ar
     6     4     9    1
     7     9    11    1
     8    11    12    2
     9    12    13    1
    10     4     5   ar
    11     5     6   ar
    12     6     1   ar
    13     9    10    1
    14    13    14    1
@<TRIPOS>MOLECULE
*****
 14 14 0 0 0
SMALL
GASTEIGER

@<TRIPOS>ATOM
      1 C           5.6156  -12.6174   28.1537 C.ar    1  UNL1       -0.0221
      2 C           4.6837  -12.1666   29.2392 C.ar    1  UNL1       -0.0030
      3 C           3.2036  -12.3526   29.0821 C.ar    1  UNL1        0.0143
      4 C           2.6554  -12.9893   27.8396 C.ar    1  UNL1        0.0495
      5 C           3.5872  -13.4401   26.7541 C.ar    1  UNL1        0.0143
      6 C           5.0673  -13.2541   26.9111 C.ar    1  UNL1       -0.0030
      7 C           7.9011  -13.4387   29.0767 C.3     1  UNL1        0.0050
      8 C           7.0957  -12.4315   28.3107 C.3     1  UNL1        0.0264
      9 N           1.1752  -13.1752   27.6826 N.pl3   1  UNL1       -0.2930
     10 H           0.6530  -12.5358   27.1462 H       1  UNL1        0.1538
     11 C           0.4909  -14.3353   28.3426 C.2     1  UNL1        0.2056
     12 N           0.9168  -15.7378   28.0237 N.2     1  UNL1       -0.0679
     13 O           0.2324  -16.8979   28.6839 O.2     1  UNL1       -0.4077
     14 H           0.4985  -17.7740   28.4847 H       1  UNL1        0.3278
@<TRIPOS>BOND
     1     7     8    1
     2     8     1    1
     3     1     2   ar
     4     2     3   ar
     5     3     4   ar
     6     4     9    1
     7     9    11    1
     8    11    12    2
     9    12    13    1
    10     4     5   ar
    11     5     6   ar
    12     6     1   ar
    13     9    10    1
    14    13    14    1
@<TRIPOS>MOLECULE
*****
 14 14 0 0 0
SMALL
GASTEIGER

@<TRIPOS>ATOM
      1 C         -12.7704  -17.7506   23.4771 C.ar    1  UNL1       -0.0221
      2 C         -12.6326  -16.5388   22.6040 C.ar    1  UNL1       -0.0030
      3 C         -11.2946  -16.1745   22.0322 C.ar    1  UNL1        0.0143
      4 C         -10.0943  -17.0220   22.3335 C.ar    1  UNL1        0.0495
      5 C         -10.2320  -18.2339   23.2067 C.ar    1  UNL1        0.0143
      6 C         -11.5700  -18.5982   23.7785 C.ar    1  UNL1       -0.0030
      7 C         -14.2320  -18.4697   25.5011 C.3     1  UNL1        0.0050
      8 C         -14.1084  -18.1149   24.0489 C.3     1  UNL1        0.0264
      9 N          -8.7563  -16.6577   21.7618 N.pl3   1  UNL1       -0.2930
     10 H          -8.4070  -17.1422   20.9791 H       1  UNL1        0.1538
     11 C          -7.9504  -15.5553   22.3824 C.2     1  UNL1        0.2056
     12 N          -7.9231  -15.3942   23.8735 N.2     1  UNL1       -0.0679
     13 O          -7.1172  -14.2918   24.4941 O.2     1  UNL1       -0.4077
     14 H          -7.1002  -14.1911   25.4256 H       1  UNL1        0.3278
@<TRIPOS>BOND
     1     7     8    1
     2     8     1    1
     3     1     2   ar
     4     2     3   ar
     5     3     4   ar
     6     4     9    1
     7     9    11    1
     8    11    12    2
     9    12    13    1
    10     4     5   ar
    11     5     6   ar
    12     6     1   ar
    13     9    10    1
    14    13    14    1
@<TRIPOS>MOLECULE
*****
 14 14 0 0 0
SMALL
GASTEIGER

@<TRIPOS>ATOM
      1 C         -12.5592  -18.0782   22.6609 C.ar    1  UNL1       -0.0221
      2 C         -11.4789  -19.0583   23.0104 C.ar    1  UNL1       -0.0030
      3 C         -10.3985  -19.3693   22.0174 C.ar    1  UNL1        0.0143
      4 C         -10.3984  -18.7001   20.6750 C.ar    1  UNL1        0.0495
      5 C         -11.4787  -17.7199   20.3255 C.ar    1  UNL1        0.0143
      6 C         -12.5591  -17.4090   21.3185 C.ar    1  UNL1       -0.0030
      7 C         -13.6979  -18.5096   24.9559 C.3     1  UNL1        0.0050
      8 C         -13.6396  -17.7672   23.6539 C.3     1  UNL1        0.0264
      9 N          -9.3180  -19.0111   19.6820 N.pl3   1  UNL1       -0.2930
     10 H          -9.5140  -18.9869   18.7175 H       1  UNL1        0.1538
     11 C          -7.9389  -19.3589   20.1585 C.2     1  UNL1        0.2056
     12 N          -7.0122  -18.2767   20.6275 N.2     1  UNL1       -0.0679
     13 O          -5.6331  -18.6246   21.1040 O.2     1  UNL1       -0.4077
     14 H          -5.0542  -17.9485   21.3970 H       1  UNL1        0.3278
@<TRIPOS>BOND
     1     7     8    1
     2     8     1    1
     3     1     2   ar
     4     2     3   ar
     5     3     4   ar
     6     4     9    1
     7     9    11    1
     8    11    12    2
     9    12    13    1
    10     4     5   ar
    11     5     6   ar
    12     6     1   ar
    13     9    10    1
    14    13    14    1
@<TRIPOS>MOLECULE
*****
 14 14 0 0 0
SMALL
GASTEIGER

@<TRIPOS>ATOM
      1 C         -10.9871  -19.2118   23.2773 C.ar    1  UNL1       -0.0221
      2 C         -11.9430  -18.1278   23.6784 C.ar    1  UNL1       -0.0030
      3 C         -12.5076  -17.2038   22.6403 C.ar    1  UNL1        0.0143
      4 C         -12.1163  -17.3639   21.2012 C.ar    1  UNL1        0.0495
      5 C         -11.1603  -18.4480   20.8001 C.ar    1  UNL1        0.0143
      6 C         -10.5957  -19.3720   21.8381 C.ar    1  UNL1       -0.0030
      7 C          -9.0839  -20.7775   24.0999 C.3     1  UNL1        0.0050
      8 C         -10.4225  -20.1358   24.3153 C.3     1  UNL1        0.0264
      9 N         -12.6809  -16.4400   20.1631 N.pl3   1  UNL1       -0.2930
     10 H         -13.6560  -16.3601   20.0533 H       1  UNL1        0.1538
     11 C         -11.7599  -15.6378   19.2925 C.2     1  UNL1        0.2056
     12 N         -10.6089  -14.8944   19.9029 N.2     1  UNL1       -0.0679
     13 O          -9.6878  -14.0921   19.0321 O.2     1  UNL1       -0.4077
     14 H          -8.9688  -13.6277   19.4134 H       1  UNL1        0.3278
@<TRIPOS>BOND
     1     7     8    1
     2     8     1    1
     3     1     2   ar
     4     2     3   ar
     5     3     4   ar
     6     4     9    1
     7     9    11    1
     8    11    12    2
     9    12    13    1
    10     4     5   ar
    11     5     6   ar
    12     6     1   ar
    13     9    10    1
    14    13    14    1
@<TRIPOS>MOLECULE
*****
 14 14 0 0 0
SMALL
GASTEIGER

@<TRIPOS>ATOM
      1 C         -10.1950  -19.3011   20.1230 C.ar    1  UNL1       -0.0221
      2 C         -11.0149  -18.1057   19.7372 C.ar    1  UNL1       -0.0030
      3 C         -12.0494  -17.5693   20.6816 C.ar    1  UNL1        0.0143
      4 C         -12.2642  -18.2282   22.0118 C.ar    1  UNL1        0.0495
      5 C         -11.4443  -19.4236   22.3977 C.ar    1  UNL1        0.0143
      6 C         -10.4097  -19.9600   21.4533 C.ar    1  UNL1       -0.0030
      7 C          -7.7027  -19.6449   19.4750 C.3     1  UNL1        0.0050
      8 C          -9.1604  -19.8375   19.1786 C.3     1  UNL1        0.0264
      9 N         -13.2987  -17.6918   22.9562 N.pl3   1  UNL1       -0.2930
     10 H         -13.9701  -17.0468   22.6362 H       1  UNL1        0.1538
     11 C         -13.3104  -18.1381   24.3882 C.2     1  UNL1        0.2056
     12 N         -14.6133  -18.4254   25.0737 N.2     1  UNL1       -0.0679
     13 O         -14.6250  -18.8717   26.5058 O.2     1  UNL1       -0.4077
     14 H         -15.4389  -19.0512   26.9340 H       1  UNL1        0.3278
@<TRIPOS>BOND
     1     7     8    1
     2     8     1    1
     3     1     2   ar
     4     2     3   ar
     5     3     4   ar
     6     4     9    1
     7     9    11    1
     8    11    12    2
     9    12    13    1
    10     4     5   ar
    11     5     6   ar
    12     6     1   ar
    13     9    10    1
    14    13    14    1
@<TRIPOS>MOLECULE
*****
 14 14 0 0 0
SMALL
GASTEIGER

@<TRIPOS>ATOM
      1 C          -8.7551  -16.5310   24.8062 C.ar    1  UNL1       -0.0221
      2 C          -9.6304  -17.7312   25.0137 C.ar    1  UNL1       -0.0030
      3 C         -10.4442  -18.2718   23.8755 C.ar    1  UNL1        0.0143
      4 C         -10.3826  -17.6122   22.5298 C.ar    1  UNL1        0.0495
      5 C          -9.5072  -16.4120   22.3223 C.ar    1  UNL1        0.0143
      6 C          -8.6935  -15.8714   23.4605 C.ar    1  UNL1       -0.0030
      7 C          -8.3556  -16.2652   27.3596 C.3     1  UNL1        0.0050
      8 C          -7.9413  -15.9903   25.9444 C.3     1  UNL1        0.0264
      9 N         -11.1964  -18.1529   21.3916 N.pl3   1  UNL1       -0.2930
     10 H         -11.6114  -19.0428   21.4623 H       1  UNL1        0.1538
     11 C         -11.3778  -17.3376   20.1457 C.2     1  UNL1        0.2056
     12 N         -12.4067  -16.2467   20.1064 N.2     1  UNL1       -0.0679
     13 O         -12.5881  -15.4314   18.8604 O.2     1  UNL1       -0.4077
     14 H         -13.2308  -14.7500   18.8358 H       1  UNL1        0.3278
@<TRIPOS>BOND
     1     7     8    1
     2     8     1    1
     3     1     2   ar
     4     2     3   ar
     5     3     4   ar
     6     4     9    1
     7     9    11    1
     8    11    12    2
     9    12    13    1
    10     4     5   ar
    11     5     6   ar
    12     6     1   ar
    13     9    10    1
    14    13    14    1
@<TRIPOS>MOLECULE
*****
 14 14 0 0 0
SMALL
GASTEIGER

@<TRIPOS>ATOM
      1 C         -11.6228  -18.2379   22.8770 C.ar    1  UNL1       -0.0221
      2 C         -10.7107  -17.6436   21.8452 C.ar    1  UNL1       -0.0030
      3 C          -9.3265  -18.1918   21.6626 C.ar    1  UNL1        0.0143
      4 C          -8.8544  -19.3345   22.5120 C.ar    1  UNL1        0.0495
      5 C          -9.7665  -19.9288   23.5438 C.ar    1  UNL1        0.0143
      6 C         -11.1507  -19.3805   23.7264 C.ar    1  UNL1       -0.0030
      7 C         -13.8174  -18.0829   24.2590 C.3     1  UNL1        0.0050
      8 C         -13.0070  -17.6896   23.0596 C.3     1  UNL1        0.0264
      9 N          -7.4702  -19.8827   22.3294 N.pl3   1  UNL1       -0.2930
     10 H          -7.0175  -20.3357   23.0772 H       1  UNL1        0.1538
     11 C          -6.7756  -19.7409   21.0076 C.2     1  UNL1        0.2056
     12 N          -5.8289  -18.6006   20.7763 N.2     1  UNL1       -0.0679
     13 O          -5.1343  -18.4588   19.4543 O.2     1  UNL1       -0.4077
     14 H          -4.5430  -17.7464   19.3098 H       1  UNL1        0.3278
@<TRIPOS>BOND
     1     7     8    1
     2     8     1    1
     3     1     2   ar
     4     2     3   ar
     5     3     4   ar
     6     4     9    1
     7     9    11    1
     8    11    12    2
     9    12    13    1
    10     4     5   ar
    11     5     6   ar
    12     6     1   ar
    13     9    10    1
    14    13    14    1
@<TRIPOS>MOLECULE
*****
 14 14 0 0 0
SMALL
GASTEIGER

@<TRIPOS>ATOM
      1 C          -6.9305  -19.4294   21.1558 C.ar    1  UNL1       -0.0221
      2 C          -6.1311  -18.7154   22.2051 C.ar    1  UNL1       -0.0030
      3 C          -4.6416  -18.8845   22.2577 C.ar    1  UNL1        0.0143
      4 C          -3.9514  -19.7677   21.2609 C.ar    1  UNL1        0.0495
      5 C          -4.7508  -20.4817   20.2115 C.ar    1  UNL1        0.0143
      6 C          -6.2403  -20.3125   20.1590 C.ar    1  UNL1       -0.0030
      7 C          -9.1597  -19.5202   19.8245 C.3     1  UNL1        0.0050
      8 C          -8.4200  -19.2602   21.1033 C.3     1  UNL1        0.0264
      9 N          -2.4619  -19.9368   21.3134 N.pl3   1  UNL1       -0.2930
     10 H          -2.0694  -20.6916   21.8089 H       1  UNL1        0.1538
     11 C          -1.5705  -18.9561   20.6110 C.2     1  UNL1        0.2056
     12 N          -1.7666  -18.6769   19.1504 N.2     1  UNL1       -0.0679
     13 O          -0.8751  -17.6960   18.4480 O.2     1  UNL1       -0.4077
     14 H          -0.9976  -17.5216   17.5355 H       1  UNL1        0.3278
@<TRIPOS>BOND
     1     7     8    1
     2     8     1    1
     3     1     2   ar
     4     2     3   ar
     5     3     4   ar
     6     4     9    1
     7     9    11    1
     8    11    12    2
     9    12    13    1
    10     4     5   ar
    11     5     6   ar
    12     6     1   ar
    13     9    10    1
    14    13    14    1
