@<TRIPOS>MOLECULE
*****
 34 37 0 0 0
SMALL
GASTEIGER

@<TRIPOS>ATOM
      1 C          -5.8826  -18.8318   21.7494 C.ar    1  UNL1        0.0846
      2 C          -6.0387  -20.0914   22.5490 C.ar    1  UNL1        0.0192
      3 C          -7.3800  -20.7556   22.6479 C.ar    1  UNL1        0.0017
      4 C          -8.5652  -20.1604   21.9472 C.ar    1  UNL1        0.0046
      5 C          -8.4091  -18.9009   21.1477 C.ar    1  UNL1        0.0549
      6 C          -7.0678  -18.2367   21.0488 C.ar    1  UNL1        0.0237
      7 C          -3.9950  -17.1391   22.5958 C.ar    1  UNL1        0.1651
      8 N          -2.6269  -16.7512   22.1185 N.ar    1  UNL1       -0.2101
      9 C          -2.3277  -17.5399   20.8781 C.ar    1  UNL1        0.1612
     10 C          -1.0668  -17.4662   20.0691 C.3     1  UNL1        0.0756
     11 N          -3.5110  -18.4153   20.5889 N.ar    1  UNL1       -0.1488
     12 N          -4.5413  -18.1676   21.6505 N.ar    1  UNL1       -0.2111
     13 C          -6.0918  -15.5045   26.2264 C.ar    1  UNL1        0.1387
     14 C          -4.9467  -16.4597   26.3883 C.ar    1  UNL1        0.0370
     15 C          -4.2478  -17.0046   25.1781 C.ar    1  UNL1        0.0062
     16 C          -4.6939  -16.5942   23.8060 C.ar    1  UNL1        0.0361
     17 C          -5.8390  -15.6390   23.6442 C.ar    1  UNL1        0.0062
     18 C          -6.5380  -15.0941   24.8544 C.ar    1  UNL1        0.0370
     19 C          -8.2773  -15.1062   27.5737 C.3     1  UNL1        0.2525
     20 O          -6.7908  -14.9596   27.4366 O.3     1  UNL1       -0.4714
     21 C          -9.5943  -18.3056   20.4470 C.2     1  UNL1        0.2459
     22 O         -10.4121  -19.1455   19.5112 O.2     1  UNL1       -0.2701
     23 N          -9.9617  -16.8704   20.6821 N.am    1  UNL1       -0.3009
     24 H          -9.4249  -16.3192   21.2962 H       1  UNL1        0.1497
     25 C         -11.1468  -16.2752   19.9814 C.3     1  UNL1        0.0897
     26 C         -12.5099  -16.3709   20.6001 C.3     1  UNL1        0.0216
     27 C         -12.9034  -17.6021   21.3613 C.3     1  UNL1        0.0064
     28 C         -12.9319  -17.5796   22.8609 C.3     1  UNL1        0.0264
     29 C         -11.6807  -17.8602   23.6391 C.ar    1  UNL1       -0.0222
     30 C         -11.5045  -19.1827   24.3245 C.ar    1  UNL1       -0.0043
     31 C         -10.2532  -19.4634   25.1027 C.ar    1  UNL1       -0.0003
     32 C          -9.1782  -18.4215   25.1955 C.ar    1  UNL1       -0.0000
     33 C          -9.3544  -17.0989   24.5101 C.ar    1  UNL1       -0.0003
     34 C         -10.6055  -16.8183   23.7319 C.ar    1  UNL1       -0.0043
@<TRIPOS>BOND
     1    19    20    1
     2    20    13    1
     3    13    14   ar
     4    14    15   ar
     5    15    16   ar
     6    16     7    1
     7     7     8   ar
     8     8     9   ar
     9     9    10    1
    10     9    11   ar
    11    11    12   ar
    12    12     1    1
    13     1     2   ar
    14     2     3   ar
    15     3     4   ar
    16     4     5   ar
    17     5    21    1
    18    21    22    2
    19    21    23   am
    20    23    25    1
    21    25    26    1
    22    26    27    1
    23    27    28    1
    24    28    29    1
    25    29    30   ar
    26    30    31   ar
    27    31    32   ar
    28    32    33   ar
    29    33    34   ar
    30     5     6   ar
    31    16    17   ar
    32    17    18   ar
    33    18    13   ar
    34    12     7   ar
    35     6     1   ar
    36    34    29   ar
    37    23    24    1
@<TRIPOS>MOLECULE
*****
 34 37 0 0 0
SMALL
GASTEIGER

@<TRIPOS>ATOM
      1 C          -4.9570  -18.9610   21.2873 C.ar    1  UNL1        0.0846
      2 C          -5.1995  -20.1568   20.4148 C.ar    1  UNL1        0.0192
      3 C          -6.5517  -20.8057   20.3904 C.ar    1  UNL1        0.0017
      4 C          -7.6614  -20.2587   21.2386 C.ar    1  UNL1        0.0046
      5 C          -7.4189  -19.0629   22.1111 C.ar    1  UNL1        0.0549
      6 C          -6.0667  -18.4141   22.1354 C.ar    1  UNL1        0.0237
      7 C          -3.1190  -17.3245   22.3307 C.ar    1  UNL1        0.1651
      8 N          -1.7149  -16.9391   21.9700 N.ar    1  UNL1       -0.2101
      9 C          -1.3330  -17.6885   20.7280 C.ar    1  UNL1        0.1612
     10 C          -0.0146  -17.6040   20.0177 C.3     1  UNL1        0.0756
     11 N          -2.5010  -18.5371   20.3211 N.ar    1  UNL1       -0.1488
     12 N          -3.6048  -18.3122   21.3116 N.ar    1  UNL1       -0.2111
     13 C          -5.4621  -15.7878   25.8518 C.ar    1  UNL1        0.1387
     14 C          -5.5436  -15.0818   24.5310 C.ar    1  UNL1        0.0370
     15 C          -4.7626  -15.5940   23.3573 C.ar    1  UNL1        0.0062
     16 C          -3.9000  -16.8123   23.5044 C.ar    1  UNL1        0.0361
     17 C          -3.8185  -17.5184   24.8253 C.ar    1  UNL1        0.0062
     18 C          -4.5996  -17.0061   25.9990 C.ar    1  UNL1        0.0370
     19 C          -7.7217  -15.5156   27.1049 C.3     1  UNL1        0.2525
     20 O          -6.2432  -15.2756   27.0255 O.3     1  UNL1       -0.4714
     21 C          -8.5286  -18.5160   22.9593 C.2     1  UNL1        0.2459
     22 O          -9.0392  -17.1259   22.7212 O.2     1  UNL1       -0.2701
     23 N          -9.1276  -19.3592   24.0456 N.am    1  UNL1       -0.3009
     24 H          -8.7925  -20.2716   24.2019 H       1  UNL1        0.1497
     25 C         -10.2373  -18.8122   24.8938 C.3     1  UNL1        0.0897
     26 C         -11.6514  -19.2506   24.6528 C.3     1  UNL1        0.0216
     27 C         -12.7401  -18.2283   24.5127 C.3     1  UNL1        0.0064
     28 C         -13.3977  -18.0106   23.1822 C.3     1  UNL1        0.0264
     29 C         -12.5602  -17.7504   21.9653 C.ar    1  UNL1       -0.0222
     30 C         -11.8078  -18.8752   21.3181 C.ar    1  UNL1       -0.0043
     31 C         -10.9703  -18.6150   20.1012 C.ar    1  UNL1       -0.0003
     32 C         -10.8852  -17.2301   19.5314 C.ar    1  UNL1       -0.0000
     33 C         -11.6376  -16.1054   20.1785 C.ar    1  UNL1       -0.0003
     34 C         -12.4750  -16.3655   21.3954 C.ar    1  UNL1       -0.0043
@<TRIPOS>BOND
     1    19    20    1
     2    20    13    1
     3    13    14   ar
     4    14    15   ar
     5    15    16   ar
     6    16     7    1
     7     7     8   ar
     8     8     9   ar
     9     9    10    1
    10     9    11   ar
    11    11    12   ar
    12    12     1    1
    13     1     2   ar
    14     2     3   ar
    15     3     4   ar
    16     4     5   ar
    17     5    21    1
    18    21    22    2
    19    21    23   am
    20    23    25    1
    21    25    26    1
    22    26    27    1
    23    27    28    1
    24    28    29    1
    25    29    30   ar
    26    30    31   ar
    27    31    32   ar
    28    32    33   ar
    29    33    34   ar
    30     5     6   ar
    31    16    17   ar
    32    17    18   ar
    33    18    13   ar
    34    12     7   ar
    35     6     1   ar
    36    34    29   ar
    37    23    24    1
@<TRIPOS>MOLECULE
*****
 34 37 0 0 0
SMALL
GASTEIGER

@<TRIPOS>ATOM
      1 C          -4.0590  -19.1538   20.5676 C.ar    1  UNL1        0.0846
      2 C          -4.0174  -20.6401   20.3689 C.ar    1  UNL1        0.0192
      3 C          -5.2945  -21.4133   20.2231 C.ar    1  UNL1        0.0017
      4 C          -6.6131  -20.7003   20.2760 C.ar    1  UNL1        0.0046
      5 C          -6.6547  -19.2141   20.4747 C.ar    1  UNL1        0.0549
      6 C          -5.3776  -18.4409   20.6205 C.ar    1  UNL1        0.0237
      7 C          -2.5107  -17.3095   21.7279 C.ar    1  UNL1        0.1651
      8 N          -1.1130  -16.8097   21.5117 N.ar    1  UNL1       -0.2101
      9 C          -0.5205  -17.5719   20.3637 C.ar    1  UNL1        0.1612
     10 C           0.8610  -17.3943   19.8068 C.3     1  UNL1        0.0756
     11 N          -1.5519  -18.5428   19.8703 N.ar    1  UNL1       -0.1488
     12 N          -2.7819  -18.3806   20.7134 N.ar    1  UNL1       -0.2111
     13 C          -5.3851  -15.8516   24.8683 C.ar    1  UNL1        0.1387
     14 C          -5.1130  -15.0142   23.6539 C.ar    1  UNL1        0.0370
     15 C          -4.1548  -15.5002   22.6071 C.ar    1  UNL1        0.0062
     16 C          -3.4688  -16.8235   22.7747 C.ar    1  UNL1        0.0361
     17 C          -3.7409  -17.6609   23.9890 C.ar    1  UNL1        0.0062
     18 C          -4.6991  -17.1749   25.0358 C.ar    1  UNL1        0.0370
     19 C          -6.4117  -16.0533   27.2464 C.3     1  UNL1        0.2525
     20 O          -6.3433  -15.3656   25.9151 O.3     1  UNL1       -0.4714
     21 C          -7.9734  -18.5012   20.5276 C.2     1  UNL1        0.2459
     22 O          -8.1075  -17.2295   21.3117 O.2     1  UNL1       -0.2701
     23 N          -9.1579  -19.0599   19.7965 N.am    1  UNL1       -0.3009
     24 H          -9.0699  -19.8946   19.2819 H       1  UNL1        0.1497
     25 C         -10.4766  -18.3469   19.8494 C.3     1  UNL1        0.0897
     26 C         -11.5589  -18.8386   20.7643 C.3     1  UNL1        0.0216
     27 C         -12.6230  -17.8955   21.2419 C.3     1  UNL1        0.0064
     28 C         -12.7409  -17.5755   22.7027 C.3     1  UNL1        0.0264
     29 C         -11.5202  -17.5887   23.5742 C.ar    1  UNL1       -0.0222
     30 C         -10.5630  -16.4342   23.5417 C.ar    1  UNL1       -0.0043
     31 C          -9.3422  -16.4474   24.4132 C.ar    1  UNL1       -0.0003
     32 C          -9.0785  -17.6149   25.3172 C.ar    1  UNL1       -0.0000
     33 C         -10.0357  -18.7694   25.3497 C.ar    1  UNL1       -0.0003
     34 C         -11.2564  -18.7563   24.4782 C.ar    1  UNL1       -0.0043
@<TRIPOS>BOND
     1    19    20    1
     2    20    13    1
     3    13    14   ar
     4    14    15   ar
     5    15    16   ar
     6    16     7    1
     7     7     8   ar
     8     8     9   ar
     9     9    10    1
    10     9    11   ar
    11    11    12   ar
    12    12     1    1
    13     1     2   ar
    14     2     3   ar
    15     3     4   ar
    16     4     5   ar
    17     5    21    1
    18    21    22    2
    19    21    23   am
    20    23    25    1
    21    25    26    1
    22    26    27    1
    23    27    28    1
    24    28    29    1
    25    29    30   ar
    26    30    31   ar
    27    31    32   ar
    28    32    33   ar
    29    33    34   ar
    30     5     6   ar
    31    16    17   ar
    32    17    18   ar
    33    18    13   ar
    34    12     7   ar
    35     6     1   ar
    36    34    29   ar
    37    23    24    1
@<TRIPOS>MOLECULE
*****
 34 37 0 0 0
SMALL
GASTEIGER

@<TRIPOS>ATOM
      1 C           5.6697   -3.5752   20.5469 C.ar    1  UNL1        0.0846
      2 C           4.3691   -4.3149   20.4390 C.ar    1  UNL1        0.0192
      3 C           3.3906   -3.9579   19.3596 C.ar    1  UNL1        0.0017
      4 C           3.7125   -2.8612   18.3882 C.ar    1  UNL1        0.0046
      5 C           5.0130   -2.1216   18.4962 C.ar    1  UNL1        0.0549
      6 C           5.9915   -2.4786   19.5755 C.ar    1  UNL1        0.0237
      7 C           6.7936   -3.2397   22.9488 C.ar    1  UNL1        0.1651
      8 N           7.8884   -3.9240   23.7125 N.ar    1  UNL1       -0.2101
      9 C           8.4197   -5.0394   22.8618 C.ar    1  UNL1        0.1612
     10 C           9.5236   -5.9839   23.2351 C.3     1  UNL1        0.0756
     11 N           7.6532   -5.0445   21.5725 N.ar    1  UNL1       -0.1488
     12 N           6.6482   -3.9322   21.6263 N.ar    1  UNL1       -0.2111
     13 C           4.3708    0.2739   24.3752 C.ar    1  UNL1        0.1387
     14 C           5.7685    0.4815   23.8720 C.ar    1  UNL1        0.0370
     15 C           6.5761   -0.6897   23.3965 C.ar    1  UNL1        0.0062
     16 C           5.9860   -2.0685   23.4243 C.ar    1  UNL1        0.0361
     17 C           4.5883   -2.2760   23.9275 C.ar    1  UNL1        0.0062
     18 C           3.7807   -1.1048   24.4029 C.ar    1  UNL1        0.0370
     19 C           2.1056    1.5391   24.5094 C.3     1  UNL1        0.2525
     20 O           3.5632    1.4451   24.8507 O.3     1  UNL1       -0.4714
     21 C           5.3349   -1.0249   17.5248 C.2     1  UNL1        0.2459
     22 O           4.4134   -0.7477   16.3742 O.2     1  UNL1       -0.2701
     23 N           6.5784   -0.2053   17.7040 N.am    1  UNL1       -0.3009
     24 H           7.1832   -0.3872   18.4591 H       1  UNL1        0.1497
     25 C           6.9003    0.8913   16.7326 C.3     1  UNL1        0.0897
     26 C           6.2601    2.2394   16.8841 C.3     1  UNL1        0.0216
     27 C           5.5458    2.5918   18.1552 C.3     1  UNL1        0.0064
     28 C           4.0468    2.5637   18.2056 C.3     1  UNL1        0.0264
     29 C           3.3429    1.5039   19.0001 C.ar    1  UNL1       -0.0222
     30 C           2.0106    0.9862   18.5452 C.ar    1  UNL1       -0.0043
     31 C           1.3067   -0.0736   19.3397 C.ar    1  UNL1       -0.0003
     32 C           1.9349   -0.6157   20.5892 C.ar    1  UNL1       -0.0000
     33 C           3.2672   -0.0980   21.0442 C.ar    1  UNL1       -0.0003
     34 C           3.9712    0.9618   20.2497 C.ar    1  UNL1       -0.0043
@<TRIPOS>BOND
     1    19    20    1
     2    20    13    1
     3    13    14   ar
     4    14    15   ar
     5    15    16   ar
     6    16     7    1
     7     7     8   ar
     8     8     9   ar
     9     9    10    1
    10     9    11   ar
    11    11    12   ar
    12    12     1    1
    13     1     2   ar
    14     2     3   ar
    15     3     4   ar
    16     4     5   ar
    17     5    21    1
    18    21    22    2
    19    21    23   am
    20    23    25    1
    21    25    26    1
    22    26    27    1
    23    27    28    1
    24    28    29    1
    25    29    30   ar
    26    30    31   ar
    27    31    32   ar
    28    32    33   ar
    29    33    34   ar
    30     5     6   ar
    31    16    17   ar
    32    17    18   ar
    33    18    13   ar
    34    12     7   ar
    35     6     1   ar
    36    34    29   ar
    37    23    24    1
@<TRIPOS>MOLECULE
*****
 34 37 0 0 0
SMALL
GASTEIGER

@<TRIPOS>ATOM
      1 C         -16.4599   -6.0349   17.7827 C.ar    1  UNL1        0.0846
      2 C         -16.0221   -5.4783   16.4603 C.ar    1  UNL1        0.0192
      3 C         -16.3114   -4.0472   16.1161 C.ar    1  UNL1        0.0017
      4 C         -17.0383   -3.1728   17.0942 C.ar    1  UNL1        0.0046
      5 C         -17.4761   -3.7294   18.4166 C.ar    1  UNL1        0.0549
      6 C         -17.1868   -5.1604   18.7608 C.ar    1  UNL1        0.0237
      7 C         -14.8133   -8.0587   18.3641 C.ar    1  UNL1        0.1651
      8 N         -14.9917   -9.5145   18.6781 N.ar    1  UNL1       -0.2101
      9 C         -16.4593   -9.8216   18.6350 C.ar    1  UNL1        0.1612
     10 C         -17.0880  -11.1597   18.8880 C.3     1  UNL1        0.0756
     11 N         -17.1879   -8.5554   18.2943 N.ar    1  UNL1       -0.1488
     12 N         -16.1706   -7.4659   18.1269 N.ar    1  UNL1       -0.2111
     13 C         -10.8940   -5.8561   18.1681 C.ar    1  UNL1        0.1387
     14 C         -11.8507   -5.5862   19.2914 C.ar    1  UNL1        0.0370
     15 C         -13.1571   -6.3204   19.3567 C.ar    1  UNL1        0.0062
     16 C         -13.5069   -7.3245   18.2987 C.ar    1  UNL1        0.0361
     17 C         -12.5502   -7.5944   17.1754 C.ar    1  UNL1        0.0062
     18 C         -11.2438   -6.8602   17.1101 C.ar    1  UNL1        0.0370
     19 C          -9.2153   -4.3624   16.8640 C.3     1  UNL1        0.2525
     20 O          -9.5876   -5.1219   18.1027 O.3     1  UNL1       -0.4714
     21 C         -18.2030   -2.8549   19.3947 C.2     1  UNL1        0.2459
     22 O         -18.5894   -3.3943   20.7400 O.2     1  UNL1       -0.2701
     23 N         -18.5437   -1.4409   19.0277 N.am    1  UNL1       -0.3009
     24 H         -18.2901   -1.0869   18.1447 H       1  UNL1        0.1497
     25 C         -19.2706   -0.5665   20.0058 C.3     1  UNL1        0.0897
     26 C         -18.5710    0.6052   20.6285 C.3     1  UNL1        0.0216
     27 C         -17.0892    0.5591   20.8569 C.3     1  UNL1        0.0064
     28 C         -16.1466    0.7838   19.7118 C.3     1  UNL1        0.0264
     29 C         -15.2697   -0.3345   19.2319 C.ar    1  UNL1       -0.0222
     30 C         -14.6311   -0.2581   17.8767 C.ar    1  UNL1       -0.0043
     31 C         -13.7542   -1.3764   17.3968 C.ar    1  UNL1       -0.0003
     32 C         -13.5157   -2.5711   18.2719 C.ar    1  UNL1       -0.0000
     33 C         -14.1543   -2.6475   19.6270 C.ar    1  UNL1       -0.0003
     34 C         -15.0312   -1.5292   20.1070 C.ar    1  UNL1       -0.0043
@<TRIPOS>BOND
     1    19    20    1
     2    20    13    1
     3    13    14   ar
     4    14    15   ar
     5    15    16   ar
     6    16     7    1
     7     7     8   ar
     8     8     9   ar
     9     9    10    1
    10     9    11   ar
    11    11    12   ar
    12    12     1    1
    13     1     2   ar
    14     2     3   ar
    15     3     4   ar
    16     4     5   ar
    17     5    21    1
    18    21    22    2
    19    21    23   am
    20    23    25    1
    21    25    26    1
    22    26    27    1
    23    27    28    1
    24    28    29    1
    25    29    30   ar
    26    30    31   ar
    27    31    32   ar
    28    32    33   ar
    29    33    34   ar
    30     5     6   ar
    31    16    17   ar
    32    17    18   ar
    33    18    13   ar
    34    12     7   ar
    35     6     1   ar
    36    34    29   ar
    37    23    24    1
@<TRIPOS>MOLECULE
*****
 34 37 0 0 0
SMALL
GASTEIGER

@<TRIPOS>ATOM
      1 C           4.0792   -0.8355   22.4086 C.ar    1  UNL1        0.0846
      2 C           4.6064    0.5476   22.1652 C.ar    1  UNL1        0.0192
      3 C           4.8012    1.4894   23.3163 C.ar    1  UNL1        0.0017
      4 C           4.4688    1.0482   24.7108 C.ar    1  UNL1        0.0046
      5 C           3.9415   -0.3348   24.9543 C.ar    1  UNL1        0.0549
      6 C           3.7468   -1.2767   23.8032 C.ar    1  UNL1        0.0237
      7 C           2.9700   -1.5629   20.0879 C.ar    1  UNL1        0.1651
      8 N           3.0904   -2.7520   19.1815 N.ar    1  UNL1       -0.2101
      9 C           4.0790   -3.7013   19.7909 C.ar    1  UNL1        0.1612
     10 C           4.5026   -5.0212   19.2178 C.3     1  UNL1        0.0756
     11 N           4.5698   -3.0989   21.0740 N.ar    1  UNL1       -0.1488
     12 N           3.8844   -1.7773   21.2575 N.ar    1  UNL1       -0.2111
     13 C           0.3298    2.0187   19.4163 C.ar    1  UNL1        0.1387
     14 C           1.5348    1.8022   18.5497 C.ar    1  UNL1        0.0370
     15 C           2.4149    0.6083   18.7736 C.ar    1  UNL1        0.0062
     16 C           2.0900   -0.3691   19.8640 C.ar    1  UNL1        0.0361
     17 C           0.8849   -0.1526   20.7305 C.ar    1  UNL1        0.0062
     18 C           0.0048    1.0413   20.5067 C.ar    1  UNL1        0.0370
     19 C          -1.7485    3.4356   20.0668 C.3     1  UNL1        0.2525
     20 O          -0.5503    3.2125   19.1924 O.3     1  UNL1       -0.4714
     21 C           3.6091   -0.7761   26.3488 C.2     1  UNL1        0.2459
     22 O           4.3786   -1.8956   26.9848 O.2     1  UNL1       -0.2701
     23 N           2.5071   -0.0977   27.1075 N.am    1  UNL1       -0.3009
     24 H           2.0021    0.6371   26.6901 H       1  UNL1        0.1497
     25 C           2.1747   -0.5389   28.5020 C.3     1  UNL1        0.0897
     26 C           0.9282   -0.0387   29.1699 C.3     1  UNL1        0.0216
     27 C          -0.3726   -0.0341   28.4231 C.3     1  UNL1        0.0064
     28 C          -0.8580    1.2260   27.7699 C.3     1  UNL1        0.0264
     29 C          -0.0954    1.8171   26.6213 C.ar    1  UNL1       -0.0222
     30 C          -0.0959    1.1300   25.2879 C.ar    1  UNL1       -0.0043
     31 C           0.6666    1.7210   24.1393 C.ar    1  UNL1       -0.0003
     32 C           1.4297    2.9991   24.3241 C.ar    1  UNL1       -0.0000
     33 C           1.4302    3.6862   25.6575 C.ar    1  UNL1       -0.0003
     34 C           0.6677    3.0952   26.8060 C.ar    1  UNL1       -0.0043
@<TRIPOS>BOND
     1    19    20    1
     2    20    13    1
     3    13    14   ar
     4    14    15   ar
     5    15    16   ar
     6    16     7    1
     7     7     8   ar
     8     8     9   ar
     9     9    10    1
    10     9    11   ar
    11    11    12   ar
    12    12     1    1
    13     1     2   ar
    14     2     3   ar
    15     3     4   ar
    16     4     5   ar
    17     5    21    1
    18    21    22    2
    19    21    23   am
    20    23    25    1
    21    25    26    1
    22    26    27    1
    23    27    28    1
    24    28    29    1
    25    29    30   ar
    26    30    31   ar
    27    31    32   ar
    28    32    33   ar
    29    33    34   ar
    30     5     6   ar
    31    16    17   ar
    32    17    18   ar
    33    18    13   ar
    34    12     7   ar
    35     6     1   ar
    36    34    29   ar
    37    23    24    1
@<TRIPOS>MOLECULE
*****
 34 37 0 0 0
SMALL
GASTEIGER

@<TRIPOS>ATOM
      1 C           3.5121    1.9865   32.2222 C.ar    1  UNL1        0.0846
      2 C           4.9282    2.2904   31.8315 C.ar    1  UNL1        0.0192
      3 C           5.8254    3.0300   32.7790 C.ar    1  UNL1        0.0017
      4 C           5.3067    3.4659   34.1172 C.ar    1  UNL1        0.0046
      5 C           3.8908    3.1621   34.5080 C.ar    1  UNL1        0.0549
      6 C           2.9935    2.4224   33.5605 C.ar    1  UNL1        0.0237
      7 C           2.8350   -0.1431   30.7556 C.ar    1  UNL1        0.1651
      8 N           1.6961   -0.4817   29.8400 N.ar    1  UNL1       -0.2101
      9 C           0.7721    0.6990   29.7933 C.ar    1  UNL1        0.1612
     10 C          -0.4969    0.7946   28.9993 C.3     1  UNL1        0.0756
     11 N           1.3399    1.7673   30.6800 N.ar    1  UNL1       -0.1488
     12 N           2.6149    1.2468   31.2747 N.ar    1  UNL1       -0.2111
     13 C           6.3031   -2.8262   31.7672 C.ar    1  UNL1        0.1387
     14 C           6.2819   -2.0880   30.4616 C.ar    1  UNL1        0.0370
     15 C           5.1258   -1.1937   30.1244 C.ar    1  UNL1        0.0062
     16 C           3.9910   -1.0375   31.0928 C.ar    1  UNL1        0.0361
     17 C           4.0123   -1.7757   32.3984 C.ar    1  UNL1        0.0062
     18 C           5.1683   -2.6700   32.7356 C.ar    1  UNL1        0.0370
     19 C           7.8616   -4.8143   31.1601 C.3     1  UNL1        0.2525
     20 O           7.4591   -3.7205   32.1044 O.3     1  UNL1       -0.4714
     21 C           3.3721    3.5979   35.8462 C.2     1  UNL1        0.2459
     22 O           4.1553    4.5745   36.6724 O.2     1  UNL1       -0.2701
     23 N           2.0700    3.0571   36.3584 N.am    1  UNL1       -0.3009
     24 H           1.5559    2.4161   35.8161 H       1  UNL1        0.1497
     25 C           1.5513    3.4930   37.6966 C.3     1  UNL1        0.0897
     26 C           2.0275    2.8099   38.9443 C.3     1  UNL1        0.0216
     27 C           2.8551    1.5627   38.8473 C.3     1  UNL1        0.0064
     28 C           4.3512    1.6575   38.7952 C.3     1  UNL1        0.0264
     29 C           5.0948    1.1330   37.6027 C.ar    1  UNL1       -0.0222
     30 C           6.4943    1.5975   37.3276 C.ar    1  UNL1       -0.0043
     31 C           7.2378    1.0730   36.1352 C.ar    1  UNL1       -0.0003
     32 C           6.5820    0.0841   35.2177 C.ar    1  UNL1       -0.0000
     33 C           5.1825   -0.3804   35.4927 C.ar    1  UNL1       -0.0003
     34 C           4.4389    0.1440   36.6851 C.ar    1  UNL1       -0.0043
@<TRIPOS>BOND
     1    19    20    1
     2    20    13    1
     3    13    14   ar
     4    14    15   ar
     5    15    16   ar
     6    16     7    1
     7     7     8   ar
     8     8     9   ar
     9     9    10    1
    10     9    11   ar
    11    11    12   ar
    12    12     1    1
    13     1     2   ar
    14     2     3   ar
    15     3     4   ar
    16     4     5   ar
    17     5    21    1
    18    21    22    2
    19    21    23   am
    20    23    25    1
    21    25    26    1
    22    26    27    1
    23    27    28    1
    24    28    29    1
    25    29    30   ar
    26    30    31   ar
    27    31    32   ar
    28    32    33   ar
    29    33    34   ar
    30     5     6   ar
    31    16    17   ar
    32    17    18   ar
    33    18    13   ar
    34    12     7   ar
    35     6     1   ar
    36    34    29   ar
    37    23    24    1
@<TRIPOS>MOLECULE
*****
 34 37 0 0 0
SMALL
GASTEIGER

@<TRIPOS>ATOM
      1 C           5.2009   -1.8651   19.0571 C.ar    1  UNL1        0.0846
      2 C           4.0085   -2.6478   18.5926 C.ar    1  UNL1        0.0192
      3 C           3.6183   -3.9111   19.3010 C.ar    1  UNL1        0.0017
      4 C           4.4204   -4.3917   20.4739 C.ar    1  UNL1        0.0046
      5 C           5.6127   -3.6089   20.9384 C.ar    1  UNL1        0.0549
      6 C           6.0029   -2.3457   20.2300 C.ar    1  UNL1        0.0237
      7 C           4.8081    0.6776   18.3319 C.ar    1  UNL1        0.1651
      8 N           5.5659    1.6739   17.5056 N.ar    1  UNL1       -0.2101
      9 C           6.8172    1.0104   17.0116 C.ar    1  UNL1        0.1612
     10 C           7.8684    1.6424   16.1481 C.3     1  UNL1        0.0756
     11 N           6.8328   -0.3961   17.5327 N.ar    1  UNL1       -0.1488
     12 N           5.5911   -0.6018   18.3487 N.ar    1  UNL1       -0.2111
     13 C           0.8762    1.3996   20.3980 C.ar    1  UNL1        0.1387
     14 C           2.1321    1.2547   21.2053 C.ar    1  UNL1        0.0370
     15 C           3.4428    1.0140   20.5166 C.ar    1  UNL1        0.0062
     16 C           3.4975    0.9182   19.0206 C.ar    1  UNL1        0.0361
     17 C           2.2416    1.0631   18.2134 C.ar    1  UNL1        0.0062
     18 C           0.9309    1.3038   18.9021 C.ar    1  UNL1        0.0370
     19 C          -1.3168    2.7703   20.6460 C.3     1  UNL1        0.2525
     20 O          -0.4344    1.6403   21.0867 O.3     1  UNL1       -0.4714
     21 C           6.4147   -4.0895   22.1113 C.2     1  UNL1        0.2459
     22 O           5.8919   -3.9025   23.5047 O.2     1  UNL1       -0.2701
     23 N           7.7398   -4.7571   21.8908 N.am    1  UNL1       -0.3009
     24 H           8.0830   -4.8799   20.9763 H       1  UNL1        0.1497
     25 C           8.5418   -5.2377   23.0638 C.3     1  UNL1        0.0897
     26 C           8.8188   -6.7021   23.2335 C.3     1  UNL1        0.0216
     27 C           9.0895   -7.2608   24.5990 C.3     1  UNL1        0.0064
     28 C           7.9506   -7.7177   25.4617 C.3     1  UNL1        0.0264
     29 C           7.6371   -6.9918   26.7363 C.ar    1  UNL1       -0.0222
     30 C           6.5745   -5.9332   26.7547 C.ar    1  UNL1       -0.0043
     31 C           6.2610   -5.2072   28.0293 C.ar    1  UNL1       -0.0003
     32 C           7.0100   -5.5398   29.2856 C.ar    1  UNL1       -0.0000
     33 C           8.0726   -6.5984   29.2672 C.ar    1  UNL1       -0.0003
     34 C           8.3861   -7.3244   27.9927 C.ar    1  UNL1       -0.0043
@<TRIPOS>BOND
     1    19    20    1
     2    20    13    1
     3    13    14   ar
     4    14    15   ar
     5    15    16   ar
     6    16     7    1
     7     7     8   ar
     8     8     9   ar
     9     9    10    1
    10     9    11   ar
    11    11    12   ar
    12    12     1    1
    13     1     2   ar
    14     2     3   ar
    15     3     4   ar
    16     4     5   ar
    17     5    21    1
    18    21    22    2
    19    21    23   am
    20    23    25    1
    21    25    26    1
    22    26    27    1
    23    27    28    1
    24    28    29    1
    25    29    30   ar
    26    30    31   ar
    27    31    32   ar
    28    32    33   ar
    29    33    34   ar
    30     5     6   ar
    31    16    17   ar
    32    17    18   ar
    33    18    13   ar
    34    12     7   ar
    35     6     1   ar
    36    34    29   ar
    37    23    24    1
@<TRIPOS>MOLECULE
*****
 34 37 0 0 0
SMALL
GASTEIGER

@<TRIPOS>ATOM
      1 C           5.3690   -2.9678   22.2998 C.ar    1  UNL1        0.0846
      2 C           4.4616   -4.0865   21.8810 C.ar    1  UNL1        0.0192
      3 C           4.2801   -4.4001   20.4254 C.ar    1  UNL1        0.0017
      4 C           5.0060   -3.5951   19.3886 C.ar    1  UNL1        0.0046
      5 C           5.9134   -2.4765   19.8073 C.ar    1  UNL1        0.0549
      6 C           6.0948   -2.1629   21.2629 C.ar    1  UNL1        0.0237
      7 C           5.0218   -1.4457   24.4695 C.ar    1  UNL1        0.1651
      8 N           5.4371   -1.5387   25.9078 N.ar    1  UNL1       -0.2101
      9 C           6.2224   -2.8047   26.0827 C.ar    1  UNL1        0.1612
     10 C           6.8309   -3.2951   27.3630 C.3     1  UNL1        0.0756
     11 N           6.2925   -3.4941   24.7523 N.ar    1  UNL1       -0.1488
     12 N           5.5505   -2.6542   23.7554 N.ar    1  UNL1       -0.2111
     13 C           2.6127    1.8755   22.6213 C.ar    1  UNL1        0.1387
     14 C           1.9177    0.7359   23.3054 C.ar    1  UNL1        0.0370
     15 C           2.7207   -0.3712   23.9215 C.ar    1  UNL1        0.0062
     16 C           4.2187   -0.3386   23.8534 C.ar    1  UNL1        0.0361
     17 C           4.9138    0.8010   23.1693 C.ar    1  UNL1        0.0062
     18 C           4.1108    1.9081   22.5532 C.ar    1  UNL1        0.0370
     19 C           1.7954    4.3416   22.6399 C.3     1  UNL1        0.2525
     20 O           1.8097    2.9826   22.0053 O.3     1  UNL1       -0.4714
     21 C           6.6393   -1.6715   18.7705 C.2     1  UNL1        0.2459
     22 O           6.8625   -2.2398   17.4005 O.2     1  UNL1       -0.2701
     23 N           7.1419   -0.2981   19.1037 N.am    1  UNL1       -0.3009
     24 H           6.9954    0.0750   20.0029 H       1  UNL1        0.1497
     25 C           7.8678    0.5070   18.0669 C.3     1  UNL1        0.0897
     26 C           7.1152    1.4850   17.2143 C.3     1  UNL1        0.0216
     27 C           5.6174    1.4297   17.1534 C.3     1  UNL1        0.0064
     28 C           4.7991    2.0418   18.2515 C.3     1  UNL1        0.0264
     29 C           3.5479    1.3616   18.7227 C.ar    1  UNL1       -0.0222
     30 C           2.2127    2.0059   18.4946 C.ar    1  UNL1       -0.0043
     31 C           0.9615    1.3258   18.9658 C.ar    1  UNL1       -0.0003
     32 C           1.0455    0.0014   19.6650 C.ar    1  UNL1       -0.0000
     33 C           2.3808   -0.6429   19.8930 C.ar    1  UNL1       -0.0003
     34 C           3.6319    0.0372   19.4219 C.ar    1  UNL1       -0.0043
@<TRIPOS>BOND
     1    19    20    1
     2    20    13    1
     3    13    14   ar
     4    14    15   ar
     5    15    16   ar
     6    16     7    1
     7     7     8   ar
     8     8     9   ar
     9     9    10    1
    10     9    11   ar
    11    11    12   ar
    12    12     1    1
    13     1     2   ar
    14     2     3   ar
    15     3     4   ar
    16     4     5   ar
    17     5    21    1
    18    21    22    2
    19    21    23   am
    20    23    25    1
    21    25    26    1
    22    26    27    1
    23    27    28    1
    24    28    29    1
    25    29    30   ar
    26    30    31   ar
    27    31    32   ar
    28    32    33   ar
    29    33    34   ar
    30     5     6   ar
    31    16    17   ar
    32    17    18   ar
    33    18    13   ar
    34    12     7   ar
    35     6     1   ar
    36    34    29   ar
    37    23    24    1
