@<TRIPOS>MOLECULE
*****
 31 35 0 0 0
SMALL
GASTEIGER

@<TRIPOS>ATOM
      1 N          -6.0237  -19.0098   20.3478 N.pl3   1  UNL1       -0.2781
      2 C          -6.8928  -19.6594   19.3121 C.3     1  UNL1        0.0950
      3 C          -8.3158  -19.5685   19.7780 C.3     1  UNL1        0.0373
      4 C          -8.3260  -18.8628   21.1015 C.3     1  UNL1        0.0373
      5 C          -6.9094  -18.5175   21.4537 C.3     1  UNL1        0.0950
      6 C          -9.6137  -19.3315   20.4915 C.3     1  UNL1        0.0577
      7 C          -1.5452  -18.6086   20.1685 C.ar    1  UNL1        0.0937
      8 C          -2.3998  -17.9452   19.1295 C.ar    1  UNL1        0.1079
      9 N          -3.8926  -18.0789   19.1892 N.ar    1  UNL1       -0.2119
     10 C          -4.5309  -18.8761   20.2880 C.ar    1  UNL1        0.2202
     11 N          -3.6762  -19.5395   21.3270 N.ar    1  UNL1       -0.2119
     12 C          -2.1834  -19.4057   21.2673 C.ar    1  UNL1        0.1079
     13 O           0.7664  -19.5156   19.4042 O.2     1  UNL1       -0.2680
     14 C          -0.0523  -18.4748   20.1088 C.2     1  UNL1        0.2708
     15 N           0.6219  -17.3003   20.7537 N.am    1  UNL1       -0.1934
     16 O           2.1147  -17.1665   20.6940 O.3     1  UNL1       -0.2949
     17 H           0.0845  -16.6172   21.2162 H       1  UNL1        0.1825
     18 H           2.4873  -17.9175   20.2061 H       1  UNL1        0.2414
     19 N         -11.1065  -19.4653   20.5512 N.3     1  UNL1       -0.2947
     20 H         -11.3163  -20.4604   20.4739 H       1  UNL1        0.1235
     21 C         -11.8580  -18.9558   21.7453 C.3     1  UNL1        0.0956
     22 C         -11.1194  -18.6067   23.0034 C.ar    1  UNL1       -0.0064
     23 C         -11.0223  -19.6059   24.1179 C.ar    1  UNL1       -0.0029
     24 C         -10.2837  -19.2569   25.3759 C.ar    1  UNL1       -0.0003
     25 C          -9.6422  -17.9086   25.5195 C.ar    1  UNL1       -0.0000
     26 C          -8.9036  -17.5596   26.7775 C.ar    1  UNL1       -0.0000
     27 C          -8.2622  -16.2113   26.9210 C.ar    1  UNL1       -0.0000
     28 C          -8.3593  -15.2121   25.8065 C.ar    1  UNL1       -0.0000
     29 C          -9.0978  -15.5611   24.5485 C.ar    1  UNL1       -0.0000
     30 C          -9.7393  -16.9093   24.4050 C.ar    1  UNL1       -0.0003
     31 C         -10.4779  -17.2584   23.1469 C.ar    1  UNL1       -0.0029
@<TRIPOS>BOND
     1    13    14    2
     2    14    15   am
     3    15    16    1
     4    14     7    1
     5     7     8   ar
     6     8     9   ar
     7     9    10   ar
     8    10     1    1
     9     1     2    1
    10     3     2    1
    11     3     4    1
    12     4     5    1
    13     4     6    1
    14     6    19    1
    15    19    21    1
    16    21    22    1
    17    22    23   ar
    18    23    24   ar
    19    24    25   ar
    20    25    26   ar
    21    26    27   ar
    22    27    28   ar
    23    28    29   ar
    24    29    30   ar
    25    30    31   ar
    26    10    11   ar
    27    11    12   ar
    28    12     7   ar
    29     5     1    1
    30    31    22   ar
    31     6     3    1
    32    30    25   ar
    33    15    17    1
    34    16    18    1
    35    19    20    1
@<TRIPOS>MOLECULE
*****
 31 35 0 0 0
SMALL
GASTEIGER

@<TRIPOS>ATOM
      1 N           6.9660   -4.4722   24.2572 N.pl3   1  UNL1       -0.2781
      2 C           5.8226   -3.7169   23.6472 C.3     1  UNL1        0.0950
      3 C           6.0898   -3.5788   22.1776 C.3     1  UNL1        0.0373
      4 C           7.3983   -4.2486   21.8794 C.3     1  UNL1        0.0373
      5 C           7.9399   -4.8008   23.1647 C.3     1  UNL1        0.0950
      6 C           6.6191   -3.5994   20.7743 C.3     1  UNL1        0.0577
      7 C           7.3988   -5.5610   28.6020 C.ar    1  UNL1        0.0937
      8 C           7.0427   -4.1569   28.2126 C.ar    1  UNL1        0.1079
      9 N           6.8985   -3.7939   26.7643 N.ar    1  UNL1       -0.2119
     10 C           7.1103   -4.8351   25.7054 C.ar    1  UNL1        0.2202
     11 N           7.4663   -6.2392   26.0949 N.ar    1  UNL1       -0.2119
     12 C           7.6106   -6.6022   27.5432 C.ar    1  UNL1        0.1079
     13 O           8.7462   -6.6896   30.5153 O.2     1  UNL1       -0.2680
     14 C           7.5431   -5.9240   30.0503 C.2     1  UNL1        0.2708
     15 N           6.4842   -5.5213   31.0335 N.am    1  UNL1       -0.1934
     16 O           6.6284   -5.8843   32.4817 O.3     1  UNL1       -0.2949
     17 H           5.6945   -5.0188   30.7282 H       1  UNL1        0.1825
     18 H           7.4557   -6.3737   32.6115 H       1  UNL1        0.2414
     19 N           6.4748   -3.2364   19.3261 N.3     1  UNL1       -0.2947
     20 H           7.1204   -3.8321   18.8075 H       1  UNL1        0.1235
     21 C           5.1399   -3.3553   18.6525 C.3     1  UNL1        0.0956
     22 C           4.2149   -2.1752   18.6074 C.ar    1  UNL1       -0.0064
     23 C           4.3106   -1.1899   17.4804 C.ar    1  UNL1       -0.0029
     24 C           3.3857   -0.0099   17.4353 C.ar    1  UNL1       -0.0003
     25 C           2.3650    0.1848   18.5171 C.ar    1  UNL1       -0.0000
     26 C           1.4400    1.3648   18.4720 C.ar    1  UNL1       -0.0000
     27 C           0.4194    1.5595   19.5538 C.ar    1  UNL1       -0.0000
     28 C           0.3237    0.5742   20.6807 C.ar    1  UNL1       -0.0000
     29 C           1.2486   -0.6058   20.7259 C.ar    1  UNL1       -0.0000
     30 C           2.2692   -0.8005   19.6441 C.ar    1  UNL1       -0.0003
     31 C           3.1942   -1.9806   19.6892 C.ar    1  UNL1       -0.0029
@<TRIPOS>BOND
     1    13    14    2
     2    14    15   am
     3    15    16    1
     4    14     7    1
     5     7     8   ar
     6     8     9   ar
     7     9    10   ar
     8    10     1    1
     9     1     2    1
    10     3     2    1
    11     3     4    1
    12     4     5    1
    13     4     6    1
    14     6    19    1
    15    19    21    1
    16    21    22    1
    17    22    23   ar
    18    23    24   ar
    19    24    25   ar
    20    25    26   ar
    21    26    27   ar
    22    27    28   ar
    23    28    29   ar
    24    29    30   ar
    25    30    31   ar
    26    10    11   ar
    27    11    12   ar
    28    12     7   ar
    29     5     1    1
    30    31    22   ar
    31     6     3    1
    32    30    25   ar
    33    15    17    1
    34    16    18    1
    35    19    20    1
@<TRIPOS>MOLECULE
*****
 31 35 0 0 0
SMALL
GASTEIGER

@<TRIPOS>ATOM
      1 N           6.8343   -4.4295   23.8114 N.pl3   1  UNL1       -0.2781
      2 C           7.5660   -5.6878   24.1737 C.3     1  UNL1        0.0950
      3 C           7.6116   -5.7830   25.6701 C.3     1  UNL1        0.0373
      4 C           6.9081   -4.5835   26.2325 C.3     1  UNL1        0.0373
      5 C           6.4277   -3.7471   25.0838 C.3     1  UNL1        0.0950
      6 C           7.4994   -5.6075   27.1555 C.3     1  UNL1        0.0577
      7 C           6.0046   -2.9601   19.6398 C.ar    1  UNL1        0.0937
      8 C           4.8928   -3.5323   20.4684 C.ar    1  UNL1        0.1079
      9 N           5.1694   -4.0221   21.8590 N.ar    1  UNL1       -0.2119
     10 C           6.5577   -3.9397   22.4209 C.ar    1  UNL1        0.2202
     11 N           7.6695   -3.3675   21.5923 N.ar    1  UNL1       -0.2119
     12 C           7.3929   -2.8777   20.2018 C.ar    1  UNL1        0.1079
     13 O           6.8605   -2.2647   17.2874 O.2     1  UNL1       -0.2680
     14 C           5.7280   -2.4702   18.2493 C.2     1  UNL1        0.2708
     15 N           4.3190   -2.1859   17.8206 N.am    1  UNL1       -0.1934
     16 O           4.0424   -1.6961   16.4301 O.3     1  UNL1       -0.2949
     17 H           3.5757   -2.3208   18.4519 H       1  UNL1        0.1825
     18 H           4.8774   -1.6183   15.9427 H       1  UNL1        0.2414
     19 N           7.7760   -6.0973   28.5460 N.3     1  UNL1       -0.2947
     20 H           8.7341   -5.8271   28.7682 H       1  UNL1        0.1235
     21 C           6.9200   -5.6356   29.6880 C.3     1  UNL1        0.0956
     22 C           7.4392   -4.6040   30.6453 C.ar    1  UNL1       -0.0064
     23 C           8.9072   -4.5297   30.9442 C.ar    1  UNL1       -0.0029
     24 C           9.4264   -3.4982   31.9014 C.ar    1  UNL1       -0.0003
     25 C           8.4776   -2.5409   32.5598 C.ar    1  UNL1       -0.0000
     26 C           8.9968   -1.5094   33.5170 C.ar    1  UNL1       -0.0000
     27 C           8.0480   -0.5522   34.1753 C.ar    1  UNL1       -0.0000
     28 C           6.5799   -0.6265   33.8764 C.ar    1  UNL1       -0.0000
     29 C           6.0607   -1.6580   32.9192 C.ar    1  UNL1       -0.0000
     30 C           7.0095   -2.6152   32.2609 C.ar    1  UNL1       -0.0003
     31 C           6.4903   -3.6468   31.3036 C.ar    1  UNL1       -0.0029
@<TRIPOS>BOND
     1    13    14    2
     2    14    15   am
     3    15    16    1
     4    14     7    1
     5     7     8   ar
     6     8     9   ar
     7     9    10   ar
     8    10     1    1
     9     1     2    1
    10     3     2    1
    11     3     4    1
    12     4     5    1
    13     4     6    1
    14     6    19    1
    15    19    21    1
    16    21    22    1
    17    22    23   ar
    18    23    24   ar
    19    24    25   ar
    20    25    26   ar
    21    26    27   ar
    22    27    28   ar
    23    28    29   ar
    24    29    30   ar
    25    30    31   ar
    26    10    11   ar
    27    11    12   ar
    28    12     7   ar
    29     5     1    1
    30    31    22   ar
    31     6     3    1
    32    30    25   ar
    33    15    17    1
    34    16    18    1
    35    19    20    1
@<TRIPOS>MOLECULE
*****
 31 35 0 0 0
SMALL
GASTEIGER

@<TRIPOS>ATOM
      1 N           3.8448   -0.3803   31.3833 N.pl3   1  UNL1       -0.2781
      2 C           2.6002   -0.3292   30.5477 C.3     1  UNL1        0.0950
      3 C           2.9550   -0.7748   29.1600 C.3     1  UNL1        0.0373
      4 C           4.4188   -1.1014   29.1380 C.3     1  UNL1        0.0373
      5 C           4.9687   -0.8576   30.5121 C.3     1  UNL1        0.0950
      6 C           3.5980   -1.2520   27.8916 C.3     1  UNL1        0.0577
      7 C           4.1526    0.7071   35.7391 C.ar    1  UNL1        0.0937
      8 C           4.7516   -0.5751   35.2420 C.ar    1  UNL1        0.1079
      9 N           4.6490   -0.9376   33.7901 N.ar    1  UNL1       -0.2119
     10 C           3.9474   -0.0179   32.8352 C.ar    1  UNL1        0.2202
     11 N           3.3483    1.2644   33.3323 N.ar    1  UNL1       -0.2119
     12 C           3.4509    1.6269   34.7842 C.ar    1  UNL1        0.1079
     13 O           5.3098    2.0319   37.6511 O.2     1  UNL1       -0.2680
     14 C           4.2552    1.0696   37.1910 C.2     1  UNL1        0.2708
     15 N           3.3031    0.4698   38.1829 N.am    1  UNL1       -0.1934
     16 O           3.4057    0.8323   39.6348 O.3     1  UNL1       -0.2949
     17 H           2.6109   -0.1618   37.8809 H       1  UNL1        0.1825
     18 H           4.1341    1.4603   39.7606 H       1  UNL1        0.2414
     19 N           3.4954   -1.6145   26.4397 N.3     1  UNL1       -0.2947
     20 H           2.5340   -1.9147   26.2784 H       1  UNL1        0.1235
     21 C           3.8125   -0.5935   25.3876 C.3     1  UNL1        0.0956
     22 C           3.6425   -0.9341   23.9366 C.ar    1  UNL1       -0.0064
     23 C           2.8312   -0.0400   23.0465 C.ar    1  UNL1       -0.0029
     24 C           2.6612   -0.3805   21.5956 C.ar    1  UNL1       -0.0003
     25 C           3.3025   -1.6151   21.0348 C.ar    1  UNL1       -0.0000
     26 C           3.1325   -1.9556   19.5839 C.ar    1  UNL1       -0.0000
     27 C           3.7738   -3.1902   19.0232 C.ar    1  UNL1       -0.0000
     28 C           4.5851   -4.0843   19.9133 C.ar    1  UNL1       -0.0000
     29 C           4.7551   -3.7438   21.3642 C.ar    1  UNL1       -0.0000
     30 C           4.1138   -2.5092   21.9249 C.ar    1  UNL1       -0.0003
     31 C           4.2838   -2.1686   23.3759 C.ar    1  UNL1       -0.0029
@<TRIPOS>BOND
     1    13    14    2
     2    14    15   am
     3    15    16    1
     4    14     7    1
     5     7     8   ar
     6     8     9   ar
     7     9    10   ar
     8    10     1    1
     9     1     2    1
    10     3     2    1
    11     3     4    1
    12     4     5    1
    13     4     6    1
    14     6    19    1
    15    19    21    1
    16    21    22    1
    17    22    23   ar
    18    23    24   ar
    19    24    25   ar
    20    25    26   ar
    21    26    27   ar
    22    27    28   ar
    23    28    29   ar
    24    29    30   ar
    25    30    31   ar
    26    10    11   ar
    27    11    12   ar
    28    12     7   ar
    29     5     1    1
    30    31    22   ar
    31     6     3    1
    32    30    25   ar
    33    15    17    1
    34    16    18    1
    35    19    20    1
@<TRIPOS>MOLECULE
*****
 31 35 0 0 0
SMALL
GASTEIGER

@<TRIPOS>ATOM
      1 N           1.1294    1.4923   26.1369 N.pl3   1  UNL1       -0.2781
      2 C          -0.0402    2.1659   25.4825 C.3     1  UNL1        0.0950
      3 C           0.0990    1.9980   23.9984 C.3     1  UNL1        0.0373
      4 C           1.3545    1.2206   23.7356 C.3     1  UNL1        0.0373
      5 C           1.9913    0.9080   25.0572 C.3     1  UNL1        0.0950
      6 C           0.5001    1.6752   22.5896 C.3     1  UNL1        0.0577
      7 C           1.9143    1.2641   30.5620 C.ar    1  UNL1        0.0937
      8 C           2.7908    0.5119   29.6051 C.ar    1  UNL1        0.1079
      9 N           2.5292    0.5879   28.1300 N.ar    1  UNL1       -0.2119
     10 C           1.3910    1.4162   27.6119 C.ar    1  UNL1        0.2202
     11 N           0.5145    2.1685   28.5689 N.ar    1  UNL1       -0.2119
     12 C           0.7761    2.0925   30.0439 C.ar    1  UNL1        0.1079
     13 O           3.2251    0.2555   32.5656 O.2     1  UNL1       -0.2680
     14 C           2.1759    1.1881   32.0371 C.2     1  UNL1        0.2708
     15 N           1.3883    2.0447   32.9836 N.am    1  UNL1       -0.1934
     16 O           1.6498    1.9688   34.4586 O.3     1  UNL1       -0.2949
     17 H           0.6996    2.6568   32.6367 H       1  UNL1        0.1825
     18 H           2.3528    1.3226   34.6295 H       1  UNL1        0.2414
     19 N           0.2385    1.7512   21.1146 N.3     1  UNL1       -0.2947
     20 H           0.9857    2.3167   20.7117 H       1  UNL1        0.1235
     21 C           0.1605    0.4935   20.3008 C.3     1  UNL1        0.0956
     22 C           1.3953   -0.0568   19.6506 C.ar    1  UNL1       -0.0064
     23 C           1.9637    0.6117   18.4340 C.ar    1  UNL1       -0.0029
     24 C           3.1983    0.0615   17.7838 C.ar    1  UNL1       -0.0003
     25 C           3.8646   -1.1573   18.3501 C.ar    1  UNL1       -0.0000
     26 C           5.0992   -1.7076   17.6999 C.ar    1  UNL1       -0.0000
     27 C           5.7655   -2.9263   18.2662 C.ar    1  UNL1       -0.0000
     28 C           5.1970   -3.5948   19.4827 C.ar    1  UNL1       -0.0000
     29 C           3.9624   -3.0446   20.1330 C.ar    1  UNL1       -0.0000
     30 C           3.2962   -1.8258   19.5667 C.ar    1  UNL1       -0.0003
     31 C           2.0615   -1.2755   20.2169 C.ar    1  UNL1       -0.0029
@<TRIPOS>BOND
     1    13    14    2
     2    14    15   am
     3    15    16    1
     4    14     7    1
     5     7     8   ar
     6     8     9   ar
     7     9    10   ar
     8    10     1    1
     9     1     2    1
    10     3     2    1
    11     3     4    1
    12     4     5    1
    13     4     6    1
    14     6    19    1
    15    19    21    1
    16    21    22    1
    17    22    23   ar
    18    23    24   ar
    19    24    25   ar
    20    25    26   ar
    21    26    27   ar
    22    27    28   ar
    23    28    29   ar
    24    29    30   ar
    25    30    31   ar
    26    10    11   ar
    27    11    12   ar
    28    12     7   ar
    29     5     1    1
    30    31    22   ar
    31     6     3    1
    32    30    25   ar
    33    15    17    1
    34    16    18    1
    35    19    20    1
@<TRIPOS>MOLECULE
*****
 31 35 0 0 0
SMALL
GASTEIGER

@<TRIPOS>ATOM
      1 N           5.0625   -2.0667   25.8948 N.pl3   1  UNL1       -0.2781
      2 C           4.4052   -1.8120   24.5707 C.3     1  UNL1        0.0950
      3 C           5.2473   -2.4489   23.5051 C.3     1  UNL1        0.0373
      4 C           6.4250   -3.0971   24.1706 C.3     1  UNL1        0.0373
      5 C           6.3108   -2.8609   25.6475 C.3     1  UNL1        0.0950
      6 C           6.2715   -3.1705   22.6803 C.3     1  UNL1        0.0577
      7 C           3.5544   -0.6898   29.9047 C.ar    1  UNL1        0.0937
      8 C           2.6390   -0.6829   28.7165 C.ar    1  UNL1        0.1079
      9 N           3.1417   -1.1419   27.3798 N.ar    1  UNL1       -0.2119
     10 C           4.5598   -1.6077   27.2314 C.ar    1  UNL1        0.2202
     11 N           5.4752   -1.6145   28.4197 N.ar    1  UNL1       -0.2119
     12 C           4.9725   -1.1556   29.7563 C.ar    1  UNL1        0.1079
     13 O           3.4702   -0.9522   32.4882 O.2     1  UNL1       -0.2680
     14 C           3.0517   -0.2308   31.2414 C.2     1  UNL1        0.2708
     15 N           2.1306    0.9496   31.3313 N.am    1  UNL1       -0.1934
     16 O           1.6279    1.4086   32.6679 O.3     1  UNL1       -0.2949
     17 H           1.8559    1.4231   30.5130 H       1  UNL1        0.1825
     18 H           1.9911    0.8381   33.3633 H       1  UNL1        0.2414
     19 N           6.7742   -3.6294   21.3437 N.3     1  UNL1       -0.2947
     20 H           7.2646   -4.5100   21.5001 H       1  UNL1        0.1235
     21 C           5.8090   -3.8650   20.2199 C.3     1  UNL1        0.0956
     22 C           5.0029   -2.7247   19.6721 C.ar    1  UNL1       -0.0064
     23 C           5.5372   -1.9074   18.5335 C.ar    1  UNL1       -0.0029
     24 C           4.7312   -0.7672   17.9857 C.ar    1  UNL1       -0.0003
     25 C           3.3907   -0.4442   18.5765 C.ar    1  UNL1       -0.0000
     26 C           2.5847    0.6960   18.0287 C.ar    1  UNL1       -0.0000
     27 C           1.2444    1.0190   18.6196 C.ar    1  UNL1       -0.0000
     28 C           0.7100    0.2016   19.7582 C.ar    1  UNL1       -0.0000
     29 C           1.5161   -0.9386   20.3060 C.ar    1  UNL1       -0.0000
     30 C           2.8564   -1.2615   19.7152 C.ar    1  UNL1       -0.0003
     31 C           3.6625   -2.4018   20.2630 C.ar    1  UNL1       -0.0029
@<TRIPOS>BOND
     1    13    14    2
     2    14    15   am
     3    15    16    1
     4    14     7    1
     5     7     8   ar
     6     8     9   ar
     7     9    10   ar
     8    10     1    1
     9     1     2    1
    10     3     2    1
    11     3     4    1
    12     4     5    1
    13     4     6    1
    14     6    19    1
    15    19    21    1
    16    21    22    1
    17    22    23   ar
    18    23    24   ar
    19    24    25   ar
    20    25    26   ar
    21    26    27   ar
    22    27    28   ar
    23    28    29   ar
    24    29    30   ar
    25    30    31   ar
    26    10    11   ar
    27    11    12   ar
    28    12     7   ar
    29     5     1    1
    30    31    22   ar
    31     6     3    1
    32    30    25   ar
    33    15    17    1
    34    16    18    1
    35    19    20    1
@<TRIPOS>MOLECULE
*****
 31 35 0 0 0
SMALL
GASTEIGER

@<TRIPOS>ATOM
      1 N           6.0486   -3.4769   21.6790 N.pl3   1  UNL1       -0.2781
      2 C           6.9277   -2.8769   20.6220 C.3     1  UNL1        0.0950
      3 C           6.0756   -2.5818   19.4232 C.3     1  UNL1        0.0373
      4 C           4.6701   -2.9994   19.7393 C.3     1  UNL1        0.0373
      5 C           4.6534   -3.5526   21.1335 C.3     1  UNL1        0.0950
      6 C           4.9926   -2.4043   18.4007 C.3     1  UNL1        0.0577
      7 C           7.3659   -4.8149   25.7685 C.ar    1  UNL1        0.0937
      8 C           6.5763   -3.5493   25.6117 C.ar    1  UNL1        0.1079
      9 N           6.1372   -3.1032   24.2485 N.ar    1  UNL1       -0.2119
     10 C           6.4877   -3.9229   23.0421 C.ar    1  UNL1        0.2202
     11 N           7.2773   -5.1886   23.1990 N.ar    1  UNL1       -0.2119
     12 C           7.7164   -5.6346   24.5621 C.ar    1  UNL1        0.1079
     13 O           8.8678   -4.4972   27.8646 O.2     1  UNL1       -0.2680
     14 C           7.8051   -5.2610   27.1317 C.2     1  UNL1        0.2708
     15 N           7.1814   -6.4709   27.7620 N.am    1  UNL1       -0.1934
     16 O           7.6205   -6.9170   29.1251 O.3     1  UNL1       -0.2949
     17 H           6.4839   -6.9722   27.2809 H       1  UNL1        0.1825
     18 H           8.3088   -6.3184   29.4551 H       1  UNL1        0.2414
     19 N           4.5535   -1.9583   17.0375 N.3     1  UNL1       -0.2947
     20 H           4.0905   -2.7559   16.6017 H       1  UNL1        0.1235
     21 C           3.6265   -0.7878   16.8938 C.3     1  UNL1        0.0956
     22 C           3.3657    0.1107   18.0663 C.ar    1  UNL1       -0.0064
     23 C           4.3017    1.2440   18.3655 C.ar    1  UNL1       -0.0029
     24 C           4.0409    2.1426   19.5379 C.ar    1  UNL1       -0.0003
     25 C           2.8441    1.9078   20.4112 C.ar    1  UNL1       -0.0000
     26 C           2.5833    2.8063   21.5836 C.ar    1  UNL1       -0.0000
     27 C           1.3865    2.5716   22.4568 C.ar    1  UNL1       -0.0000
     28 C           0.4505    1.4382   22.1576 C.ar    1  UNL1       -0.0000
     29 C           0.7113    0.5397   20.9852 C.ar    1  UNL1       -0.0000
     30 C           1.9081    0.7745   20.1120 C.ar    1  UNL1       -0.0003
     31 C           2.1689   -0.1241   18.9395 C.ar    1  UNL1       -0.0029
@<TRIPOS>BOND
     1    13    14    2
     2    14    15   am
     3    15    16    1
     4    14     7    1
     5     7     8   ar
     6     8     9   ar
     7     9    10   ar
     8    10     1    1
     9     1     2    1
    10     3     2    1
    11     3     4    1
    12     4     5    1
    13     4     6    1
    14     6    19    1
    15    19    21    1
    16    21    22    1
    17    22    23   ar
    18    23    24   ar
    19    24    25   ar
    20    25    26   ar
    21    26    27   ar
    22    27    28   ar
    23    28    29   ar
    24    29    30   ar
    25    30    31   ar
    26    10    11   ar
    27    11    12   ar
    28    12     7   ar
    29     5     1    1
    30    31    22   ar
    31     6     3    1
    32    30    25   ar
    33    15    17    1
    34    16    18    1
    35    19    20    1
@<TRIPOS>MOLECULE
*****
 31 35 0 0 0
SMALL
GASTEIGER

@<TRIPOS>ATOM
      1 N           6.4876   -3.5660   31.1479 N.pl3   1  UNL1       -0.2781
      2 C           6.8436   -3.5612   29.6907 C.3     1  UNL1        0.0950
      3 C           7.4686   -4.8846   29.3619 C.3     1  UNL1        0.0373
      4 C           7.4990   -5.7072   30.6158 C.3     1  UNL1        0.0373
      5 C           6.8927   -4.8923   31.7196 C.3     1  UNL1        0.0950
      6 C           8.0444   -6.2694   29.3366 C.3     1  UNL1        0.0577
      7 C           4.5456   -0.1936   33.4074 C.ar    1  UNL1        0.0937
      8 C           5.4605    0.1037   32.2565 C.ar    1  UNL1        0.1079
      9 N           6.1079   -1.0205   31.5033 N.ar    1  UNL1       -0.2119
     10 C           5.8403   -2.4418   31.9010 C.ar    1  UNL1        0.2202
     11 N           4.9253   -2.7390   33.0519 N.ar    1  UNL1       -0.2119
     12 C           4.2780   -1.6149   33.8051 C.ar    1  UNL1        0.1079
     13 O           4.6258    1.5910   35.2939 O.2     1  UNL1       -0.2680
     14 C           3.8982    0.9306   34.1606 C.2     1  UNL1        0.2708
     15 N           2.5232    1.3942   33.7804 N.am    1  UNL1       -0.1934
     16 O           1.8758    2.5183   34.5336 O.3     1  UNL1       -0.2949
     17 H           2.0457    0.9607   33.0366 H       1  UNL1        0.1825
     18 H           2.4764    2.8299   35.2287 H       1  UNL1        0.2414
     19 N           8.6917   -7.3935   28.5835 N.3     1  UNL1       -0.2947
     20 H           8.8345   -8.1514   29.2510 H       1  UNL1        0.1235
     21 C           8.0054   -7.9904   27.3908 C.3     1  UNL1        0.0956
     22 C           8.2214   -7.4013   26.0283 C.ar    1  UNL1       -0.0064
     23 C           9.1949   -8.0383   25.0815 C.ar    1  UNL1       -0.0029
     24 C           9.4110   -7.4492   23.7191 C.ar    1  UNL1       -0.0003
     25 C           8.6535   -6.2230   23.3034 C.ar    1  UNL1       -0.0000
     26 C           8.8696   -5.6339   21.9410 C.ar    1  UNL1       -0.0000
     27 C           8.1122   -4.4077   21.5254 C.ar    1  UNL1       -0.0000
     28 C           7.1386   -3.7707   22.4722 C.ar    1  UNL1       -0.0000
     29 C           6.9225   -4.3598   23.8346 C.ar    1  UNL1       -0.0000
     30 C           7.6800   -5.5859   24.2502 C.ar    1  UNL1       -0.0003
     31 C           7.4639   -6.1751   25.6127 C.ar    1  UNL1       -0.0029
@<TRIPOS>BOND
     1    13    14    2
     2    14    15   am
     3    15    16    1
     4    14     7    1
     5     7     8   ar
     6     8     9   ar
     7     9    10   ar
     8    10     1    1
     9     1     2    1
    10     3     2    1
    11     3     4    1
    12     4     5    1
    13     4     6    1
    14     6    19    1
    15    19    21    1
    16    21    22    1
    17    22    23   ar
    18    23    24   ar
    19    24    25   ar
    20    25    26   ar
    21    26    27   ar
    22    27    28   ar
    23    28    29   ar
    24    29    30   ar
    25    30    31   ar
    26    10    11   ar
    27    11    12   ar
    28    12     7   ar
    29     5     1    1
    30    31    22   ar
    31     6     3    1
    32    30    25   ar
    33    15    17    1
    34    16    18    1
    35    19    20    1
@<TRIPOS>MOLECULE
*****
 31 35 0 0 0
SMALL
GASTEIGER

@<TRIPOS>ATOM
      1 N          -0.2583    2.2194   20.2456 N.pl3   1  UNL1       -0.2781
      2 C           0.1916    0.7892   20.1977 C.3     1  UNL1        0.0950
      3 C           1.3622    0.7027   19.2637 C.3     1  UNL1        0.0373
      4 C           1.6357    2.0793   18.7345 C.3     1  UNL1        0.0373
      5 C           0.6342    3.0166   19.3413 C.3     1  UNL1        0.0950
      6 C           2.4879    0.9247   18.2976 C.3     1  UNL1        0.0577
      7 C          -3.6841    3.8344   22.6758 C.ar    1  UNL1        0.0937
      8 C          -3.9303    3.2967   21.2974 C.ar    1  UNL1        0.1079
      9 N          -2.7884    2.7583   20.4872 N.ar    1  UNL1       -0.2119
     10 C          -1.4002    2.7577   21.0557 C.ar    1  UNL1        0.2202
     11 N          -1.1541    3.2954   22.4342 N.ar    1  UNL1       -0.2119
     12 C          -2.2960    3.8337   23.2443 C.ar    1  UNL1        0.1079
     13 O          -4.6185    5.5609   24.3776 O.2     1  UNL1       -0.2680
     14 C          -4.8261    4.3727   23.4859 C.2     1  UNL1        0.2708
     15 N          -6.1755    3.7229   23.4043 N.am    1  UNL1       -0.1934
     16 O          -7.3174    4.2612   24.2143 O.3     1  UNL1       -0.2949
     17 H          -6.3117    2.9430   22.8190 H       1  UNL1        0.1825
     18 H          -7.0155    5.0242   24.7316 H       1  UNL1        0.2414
     19 N           3.6298    0.3864   17.4875 N.3     1  UNL1       -0.2947
     20 H           4.4789    0.8180   17.8525 H       1  UNL1        0.1235
     21 C           3.8824   -1.0913   17.4369 C.3     1  UNL1        0.0956
     22 C           4.7418   -1.7415   18.4804 C.ar    1  UNL1       -0.0064
     23 C           6.1791   -2.0503   18.1824 C.ar    1  UNL1       -0.0029
     24 C           7.0385   -2.7004   19.2258 C.ar    1  UNL1       -0.0003
     25 C           6.4605   -3.0417   20.5674 C.ar    1  UNL1       -0.0000
     26 C           7.3199   -3.6919   21.6108 C.ar    1  UNL1       -0.0000
     27 C           6.7420   -4.0332   22.9522 C.ar    1  UNL1       -0.0000
     28 C           5.3047   -3.7243   23.2502 C.ar    1  UNL1       -0.0000
     29 C           4.4453   -3.0742   22.2068 C.ar    1  UNL1       -0.0000
     30 C           5.0232   -2.7329   20.8653 C.ar    1  UNL1       -0.0003
     31 C           4.1639   -2.0828   19.8218 C.ar    1  UNL1       -0.0029
@<TRIPOS>BOND
     1    13    14    2
     2    14    15   am
     3    15    16    1
     4    14     7    1
     5     7     8   ar
     6     8     9   ar
     7     9    10   ar
     8    10     1    1
     9     1     2    1
    10     3     2    1
    11     3     4    1
    12     4     5    1
    13     4     6    1
    14     6    19    1
    15    19    21    1
    16    21    22    1
    17    22    23   ar
    18    23    24   ar
    19    24    25   ar
    20    25    26   ar
    21    26    27   ar
    22    27    28   ar
    23    28    29   ar
    24    29    30   ar
    25    30    31   ar
    26    10    11   ar
    27    11    12   ar
    28    12     7   ar
    29     5     1    1
    30    31    22   ar
    31     6     3    1
    32    30    25   ar
    33    15    17    1
    34    16    18    1
    35    19    20    1
