@<TRIPOS>MOLECULE
*****
 30 33 0 0 0
SMALL
GASTEIGER

@<TRIPOS>ATOM
      1 C          -4.8667  -16.2572   23.7113 C.ar    1  UNL1        0.2172
      2 N          -5.8287  -17.1093   22.9377 N.ar    1  UNL1       -0.2126
      3 C          -7.3006  -17.0161   23.2114 C.ar    1  UNL1        0.0994
      4 C          -7.8104  -16.0709   24.2585 C.ar    1  UNL1        0.0207
      5 C          -6.8484  -15.2187   25.0320 C.ar    1  UNL1        0.0994
      6 N          -5.3766  -15.3119   24.7584 N.ar    1  UNL1       -0.2126
      7 N          -3.3948  -16.3503   23.4377 N.pl3   1  UNL1       -0.2989
      8 H          -2.8413  -15.5362   23.4401 H       1  UNL1        0.1500
      9 C          -2.7663  -17.6838   23.1606 C.3     1  UNL1        0.1213
     10 C          -1.6287  -17.6841   18.0905 C.3     1  UNL1        0.1337
     11 N          -2.3239  -18.3046   19.2659 N.ar    1  UNL1       -0.2904
     12 C          -3.1456  -19.5460   19.0816 C.ar    1  UNL1        0.1083
     13 C          -3.8408  -20.1666   20.2570 C.ar    1  UNL1        0.1572
     14 F          -4.6625  -21.4079   20.0726 F       1  UNL1       -0.2026
     15 C          -3.7143  -19.5458   21.6167 C.ar    1  UNL1        0.0333
     16 C          -2.8927  -18.3045   21.8009 C.ar    1  UNL1        0.0559
     17 C          -2.1974  -17.6839   20.6256 C.ar    1  UNL1        0.2586
     18 O          -1.3758  -16.4426   20.8098 O.2     1  UNL1       -0.2673
     19 C          -9.2824  -15.9777   24.5321 C.3     1  UNL1        0.0575
     20 C         -10.2310  -16.9287   23.8644 C.ar    1  UNL1        0.0044
     21 C         -10.8486  -18.1434   24.4912 C.ar    1  UNL1        0.0966
     22 N         -11.7278  -18.7973   23.4668 N.ar    1  UNL1       -0.2273
     23 C         -11.6536  -17.9868   22.2069 C.ar    1  UNL1        0.1403
     24 N         -12.3088  -18.1511   20.8676 N.ar    1  UNL1       -0.3367
     25 C         -12.0389  -17.1605   19.7741 C.ar    1  UNL1        0.0850
     26 C         -11.1138  -16.0056   20.0198 C.ar    1  UNL1        0.0747
     27 CL        -10.8440  -15.0150   18.9262 Cl      1  UNL1       -0.0807
     28 C         -10.4586  -15.8413   21.3590 C.ar    1  UNL1        0.0156
     29 C         -10.7285  -16.8319   22.4526 C.ar    1  UNL1        0.0327
     30 H         -12.9160  -18.9091   20.7064 H       1  UNL1        0.1674
@<TRIPOS>BOND
     1    10    11    1
     2    11    12   ar
     3    12    13   ar
     4    13    14    1
     5    13    15   ar
     6    15    16   ar
     7    16     9    1
     8     9     7    1
     9     7     1    1
    10     1     2   ar
    11     2     3   ar
    12     3     4   ar
    13     4    19    1
    14    19    20    1
    15    20    21   ar
    16    21    22   ar
    17    22    23   ar
    18    23    24   ar
    19    24    25   ar
    20    25    26   ar
    21    26    27    1
    22    26    28   ar
    23    28    29   ar
    24     4     5   ar
    25     5     6   ar
    26    16    17   ar
    27    17    18    2
    28    17    11   ar
    29     6     1   ar
    30    29    20   ar
    31    29    23    1
    32     7     8    1
    33    24    30    1
@<TRIPOS>MOLECULE
*****
 30 33 0 0 0
SMALL
GASTEIGER

@<TRIPOS>ATOM
      1 C          -9.2676  -18.8406   21.6877 C.ar    1  UNL1        0.2172
      2 N          -8.8511  -18.7271   20.2511 N.ar    1  UNL1       -0.2126
      3 C          -7.5917  -19.3922   19.7806 C.ar    1  UNL1        0.0994
      4 C          -6.7487  -20.1708   20.7466 C.ar    1  UNL1        0.0207
      5 C          -7.1652  -20.2844   22.1832 C.ar    1  UNL1        0.0994
      6 N          -8.4246  -19.6192   22.6537 N.ar    1  UNL1       -0.2126
      7 N         -10.5270  -18.1755   22.1583 N.pl3   1  UNL1       -0.2989
      8 H         -11.3926  -18.6337   22.0582 H       1  UNL1        0.1500
      9 C         -10.4676  -16.8123   22.7815 C.3     1  UNL1        0.1213
     10 C          -5.6742  -14.9606   23.5520 C.3     1  UNL1        0.1337
     11 N          -6.9480  -15.5354   24.0971 N.ar    1  UNL1       -0.2904
     12 C          -7.0988  -15.7591   25.5727 C.ar    1  UNL1        0.1083
     13 C          -8.3725  -16.3339   26.1178 C.ar    1  UNL1        0.1572
     14 F          -8.5232  -16.5576   27.5934 F       1  UNL1       -0.2026
     15 C          -9.4955  -16.6850   25.1873 C.ar    1  UNL1        0.0333
     16 C          -9.3446  -16.4612   23.7118 C.ar    1  UNL1        0.0559
     17 C          -8.0709  -15.8864   23.1667 C.ar    1  UNL1        0.2586
     18 O          -7.9201  -15.6627   21.6912 O.2     1  UNL1       -0.2673
     19 C          -5.4892  -20.8360   20.2760 C.3     1  UNL1        0.0575
     20 C          -4.2125  -20.0528   20.1956 C.ar    1  UNL1        0.0044
     21 C          -3.2795  -20.0057   19.0220 C.ar    1  UNL1        0.0966
     22 N          -2.1349  -19.1030   19.3757 N.ar    1  UNL1       -0.2273
     23 C          -2.3605  -18.5923   20.7679 C.ar    1  UNL1        0.1403
     24 N          -1.5626  -17.6685   21.6397 N.ar    1  UNL1       -0.3367
     25 C          -2.0488  -17.3318   23.0182 C.ar    1  UNL1        0.0850
     26 C          -3.3328  -17.9188   23.5249 C.ar    1  UNL1        0.0747
     27 CL         -3.8189  -17.5820   24.9034 Cl      1  UNL1       -0.0807
     28 C          -4.1307  -18.8425   22.6531 C.ar    1  UNL1        0.0156
     29 C          -3.6445  -19.1793   21.2746 C.ar    1  UNL1        0.0327
     30 H          -0.7199  -17.2832   21.3072 H       1  UNL1        0.1674
@<TRIPOS>BOND
     1    10    11    1
     2    11    12   ar
     3    12    13   ar
     4    13    14    1
     5    13    15   ar
     6    15    16   ar
     7    16     9    1
     8     9     7    1
     9     7     1    1
    10     1     2   ar
    11     2     3   ar
    12     3     4   ar
    13     4    19    1
    14    19    20    1
    15    20    21   ar
    16    21    22   ar
    17    22    23   ar
    18    23    24   ar
    19    24    25   ar
    20    25    26   ar
    21    26    27    1
    22    26    28   ar
    23    28    29   ar
    24     4     5   ar
    25     5     6   ar
    26    16    17   ar
    27    17    18    2
    28    17    11   ar
    29     6     1   ar
    30    29    20   ar
    31    29    23    1
    32     7     8    1
    33    24    30    1
@<TRIPOS>MOLECULE
*****
 30 33 0 0 0
SMALL
GASTEIGER

@<TRIPOS>ATOM
      1 C          -4.7409  -15.8713   23.4846 C.ar    1  UNL1        0.2172
      2 N          -5.1505  -15.0766   24.6891 N.ar    1  UNL1       -0.2126
      3 C          -6.5548  -15.1710   25.2077 C.ar    1  UNL1        0.0994
      4 C          -7.5495  -16.0601   24.5220 C.ar    1  UNL1        0.0207
      5 C          -7.1398  -16.8548   23.3176 C.ar    1  UNL1        0.0994
      6 N          -5.7356  -16.7604   22.7989 N.ar    1  UNL1       -0.2126
      7 N          -3.3367  -15.7769   22.9659 N.pl3   1  UNL1       -0.2989
      8 H          -2.9422  -14.8963   22.7708 H       1  UNL1        0.1500
      9 C          -2.5334  -17.0242   22.7445 C.3     1  UNL1        0.1213
     10 C          -4.5400  -21.0779   20.1870 C.3     1  UNL1        0.1337
     11 N          -3.7018  -19.8341   20.1970 N.ar    1  UNL1       -0.2904
     12 C          -3.0285  -19.3732   18.9383 C.ar    1  UNL1        0.1083
     13 C          -2.1903  -18.1293   18.9483 C.ar    1  UNL1        0.1572
     14 F          -1.5171  -17.6685   17.6896 F       1  UNL1       -0.2026
     15 C          -2.0252  -17.3463   20.2171 C.ar    1  UNL1        0.0333
     16 C          -2.6985  -17.8072   21.4758 C.ar    1  UNL1        0.0559
     17 C          -3.5367  -19.0511   21.4658 C.ar    1  UNL1        0.2586
     18 O          -4.2100  -19.5120   22.7245 O.2     1  UNL1       -0.2673
     19 C          -8.9538  -16.1545   25.0408 C.3     1  UNL1        0.0575
     20 C          -9.8512  -17.2639   24.5783 C.ar    1  UNL1        0.0044
     21 C         -10.1732  -18.5140   25.3423 C.ar    1  UNL1        0.0966
     22 N         -11.1051  -19.3407   24.5068 N.ar    1  UNL1       -0.2273
     23 C         -11.3591  -18.6016   23.2265 C.ar    1  UNL1        0.1403
     24 N         -12.1958  -18.9315   22.0261 N.ar    1  UNL1       -0.3367
     25 C         -12.2577  -17.9779   20.8700 C.ar    1  UNL1        0.0850
     26 C         -11.4827  -16.6943   20.9142 C.ar    1  UNL1        0.0747
     27 CL        -11.5445  -15.7407   19.7579 Cl      1  UNL1       -0.0807
     28 C         -10.6459  -16.3644   22.1145 C.ar    1  UNL1        0.0156
     29 C         -10.5841  -17.3180   23.2707 C.ar    1  UNL1        0.0327
     30 H         -12.7045  -19.7739   21.9971 H       1  UNL1        0.1674
@<TRIPOS>BOND
     1    10    11    1
     2    11    12   ar
     3    12    13   ar
     4    13    14    1
     5    13    15   ar
     6    15    16   ar
     7    16     9    1
     8     9     7    1
     9     7     1    1
    10     1     2   ar
    11     2     3   ar
    12     3     4   ar
    13     4    19    1
    14    19    20    1
    15    20    21   ar
    16    21    22   ar
    17    22    23   ar
    18    23    24   ar
    19    24    25   ar
    20    25    26   ar
    21    26    27    1
    22    26    28   ar
    23    28    29   ar
    24     4     5   ar
    25     5     6   ar
    26    16    17   ar
    27    17    18    2
    28    17    11   ar
    29     6     1   ar
    30    29    20   ar
    31    29    23    1
    32     7     8    1
    33    24    30    1
@<TRIPOS>MOLECULE
*****
 30 33 0 0 0
SMALL
GASTEIGER

@<TRIPOS>ATOM
      1 C          -6.0935  -15.8855   24.0997 C.ar    1  UNL1        0.2172
      2 N          -6.9578  -16.3924   25.2160 N.ar    1  UNL1       -0.2126
      3 C          -8.4475  -16.4410   25.0481 C.ar    1  UNL1        0.0994
      4 C          -9.0730  -15.9828   23.7640 C.ar    1  UNL1        0.0207
      5 C          -8.2086  -15.4759   22.6478 C.ar    1  UNL1        0.0994
      6 N          -6.7189  -15.4272   22.8157 N.ar    1  UNL1       -0.2126
      7 N          -4.6037  -15.8368   24.2676 N.pl3   1  UNL1       -0.2989
      8 H          -4.1585  -14.9816   24.4667 H       1  UNL1        0.1500
      9 C          -3.7922  -17.0911   24.1321 C.3     1  UNL1        0.1213
     10 C          -3.8117  -20.3589   20.0922 C.3     1  UNL1        0.1337
     11 N          -3.2723  -19.1342   20.7698 N.ar    1  UNL1       -0.2904
     12 C          -2.2032  -18.3187   20.1050 C.ar    1  UNL1        0.1083
     13 C          -1.6638  -17.0940   20.7825 C.ar    1  UNL1        0.1572
     14 F          -0.5947  -16.2785   20.1176 F       1  UNL1       -0.2026
     15 C          -2.1935  -16.6848   22.1249 C.ar    1  UNL1        0.0333
     16 C          -3.2626  -17.5003   22.7897 C.ar    1  UNL1        0.0559
     17 C          -3.8020  -18.7250   22.1122 C.ar    1  UNL1        0.2586
     18 O          -4.8711  -19.5406   22.7770 O.2     1  UNL1       -0.2673
     19 C         -10.5628  -16.0315   23.5961 C.3     1  UNL1        0.0575
     20 C         -11.1593  -16.6531   22.3682 C.ar    1  UNL1        0.0044
     21 C         -12.5257  -16.3761   21.8147 C.ar    1  UNL1        0.0966
     22 N         -12.7049  -17.2127   20.5826 N.ar    1  UNL1       -0.2273
     23 C         -11.4494  -18.0067   20.3747 C.ar    1  UNL1        0.1403
     24 N         -11.0525  -18.9999   19.3230 N.ar    1  UNL1       -0.3367
     25 C          -9.7004  -19.6472   19.3750 C.ar    1  UNL1        0.0850
     26 C          -8.7452  -19.3014   20.4785 C.ar    1  UNL1        0.0747
     27 CL         -7.3930  -19.9488   20.5304 Cl      1  UNL1       -0.0807
     28 C          -9.1420  -18.3082   21.5302 C.ar    1  UNL1        0.0156
     29 C         -10.4941  -17.6608   21.4782 C.ar    1  UNL1        0.0327
     30 H         -11.6795  -19.2269   18.5987 H       1  UNL1        0.1674
@<TRIPOS>BOND
     1    10    11    1
     2    11    12   ar
     3    12    13   ar
     4    13    14    1
     5    13    15   ar
     6    15    16   ar
     7    16     9    1
     8     9     7    1
     9     7     1    1
    10     1     2   ar
    11     2     3   ar
    12     3     4   ar
    13     4    19    1
    14    19    20    1
    15    20    21   ar
    16    21    22   ar
    17    22    23   ar
    18    23    24   ar
    19    24    25   ar
    20    25    26   ar
    21    26    27    1
    22    26    28   ar
    23    28    29   ar
    24     4     5   ar
    25     5     6   ar
    26    16    17   ar
    27    17    18    2
    28    17    11   ar
    29     6     1   ar
    30    29    20   ar
    31    29    23    1
    32     7     8    1
    33    24    30    1
@<TRIPOS>MOLECULE
*****
 30 33 0 0 0
SMALL
GASTEIGER

@<TRIPOS>ATOM
      1 C          -6.4805  -20.5721   20.0019 C.ar    1  UNL1        0.2172
      2 N          -7.4910  -21.2605   19.1330 N.ar    1  UNL1       -0.2126
      3 C          -8.8438  -20.6466   18.9253 C.ar    1  UNL1        0.0994
      4 C          -9.1861  -19.3445   19.5865 C.ar    1  UNL1        0.0207
      5 C          -8.1756  -18.6561   20.4555 C.ar    1  UNL1        0.0994
      6 N          -6.8228  -19.2700   20.6631 N.ar    1  UNL1       -0.2126
      7 N          -5.1277  -21.1859   20.2096 N.pl3   1  UNL1       -0.2989
      8 H          -5.0487  -22.0715   20.6323 H       1  UNL1        0.1500
      9 C          -3.8953  -20.4504   19.7733 C.3     1  UNL1        0.1213
     10 C          -0.6569  -16.4369   20.4092 C.3     1  UNL1        0.1337
     11 N          -1.7012  -17.3632   20.9584 N.ar    1  UNL1       -0.2904
     12 C          -2.1705  -17.2090   22.3747 C.ar    1  UNL1        0.1083
     13 C          -3.2147  -18.1352   22.9239 C.ar    1  UNL1        0.1572
     14 F          -3.6839  -17.9809   24.3402 F       1  UNL1       -0.2026
     15 C          -3.7896  -19.2157   22.0567 C.ar    1  UNL1        0.0333
     16 C          -3.3203  -19.3699   20.6404 C.ar    1  UNL1        0.0559
     17 C          -2.2761  -18.4437   20.0912 C.ar    1  UNL1        0.2586
     18 O          -1.8068  -18.5979   18.6749 O.2     1  UNL1       -0.2673
     19 C         -10.5390  -18.7306   19.3788 C.3     1  UNL1        0.0575
     20 C         -11.3068  -18.1937   20.5502 C.ar    1  UNL1        0.0044
     21 C         -12.3034  -17.0733   20.5124 C.ar    1  UNL1        0.0966
     22 N         -12.8253  -16.8701   21.9039 N.ar    1  UNL1       -0.2273
     23 C         -12.1513  -17.8649   22.8017 C.ar    1  UNL1        0.1403
     24 N         -12.2709  -18.1316   24.2729 N.ar    1  UNL1       -0.3367
     25 C         -11.4520  -19.2163   24.9075 C.ar    1  UNL1        0.0850
     26 C         -10.5135  -20.0344   24.0708 C.ar    1  UNL1        0.0747
     27 CL         -9.6945  -21.1191   24.7055 Cl      1  UNL1       -0.0807
     28 C         -10.3939  -19.7677   22.5996 C.ar    1  UNL1        0.0156
     29 C         -11.2128  -18.6830   21.9651 C.ar    1  UNL1        0.0327
     30 H         -12.8869  -17.5947   24.8221 H       1  UNL1        0.1674
@<TRIPOS>BOND
     1    10    11    1
     2    11    12   ar
     3    12    13   ar
     4    13    14    1
     5    13    15   ar
     6    15    16   ar
     7    16     9    1
     8     9     7    1
     9     7     1    1
    10     1     2   ar
    11     2     3   ar
    12     3     4   ar
    13     4    19    1
    14    19    20    1
    15    20    21   ar
    16    21    22   ar
    17    22    23   ar
    18    23    24   ar
    19    24    25   ar
    20    25    26   ar
    21    26    27    1
    22    26    28   ar
    23    28    29   ar
    24     4     5   ar
    25     5     6   ar
    26    16    17   ar
    27    17    18    2
    28    17    11   ar
    29     6     1   ar
    30    29    20   ar
    31    29    23    1
    32     7     8    1
    33    24    30    1
@<TRIPOS>MOLECULE
*****
 30 33 0 0 0
SMALL
GASTEIGER

@<TRIPOS>ATOM
      1 C          -5.3889  -19.3775   21.6967 C.ar    1  UNL1        0.2172
      2 N          -6.2726  -18.1790   21.8777 N.ar    1  UNL1       -0.2126
      3 C          -7.6056  -18.1198   21.1925 C.ar    1  UNL1        0.0994
      4 C          -8.0550  -19.2591   20.3264 C.ar    1  UNL1        0.0207
      5 C          -7.1713  -20.4576   20.1454 C.ar    1  UNL1        0.0994
      6 N          -5.8383  -20.5168   20.8306 N.ar    1  UNL1       -0.2126
      7 N          -4.0559  -19.4367   22.3819 N.pl3   1  UNL1       -0.2989
      8 H          -3.9661  -19.1259   23.3117 H       1  UNL1        0.1500
      9 C          -2.8596  -19.9696   21.6505 C.3     1  UNL1        0.1213
     10 C          -2.5300  -17.0688   17.3521 C.3     1  UNL1        0.1337
     11 N          -1.9042  -17.6180   18.5997 N.ar    1  UNL1       -0.2904
     12 C          -0.4877  -17.2660   18.9459 C.ar    1  UNL1        0.1083
     13 C           0.1381  -17.8153   20.1936 C.ar    1  UNL1        0.1572
     14 F           1.5545  -17.4632   20.5397 F       1  UNL1       -0.2026
     15 C          -0.6526  -18.7164   21.0951 C.ar    1  UNL1        0.0333
     16 C          -2.0690  -19.0684   20.7489 C.ar    1  UNL1        0.0559
     17 C          -2.6948  -18.5192   19.5013 C.ar    1  UNL1        0.2586
     18 O          -4.1113  -18.8712   19.1551 O.2     1  UNL1       -0.2673
     19 C          -9.3881  -19.1999   19.6411 C.3     1  UNL1        0.0575
     20 C         -10.5563  -18.5565   20.3277 C.ar    1  UNL1        0.0044
     21 C         -11.5435  -17.6200   19.6965 C.ar    1  UNL1        0.0966
     22 N         -12.5397  -17.2214   20.7447 N.ar    1  UNL1       -0.2273
     23 C         -12.1682  -17.9116   22.0236 C.ar    1  UNL1        0.1403
     24 N         -12.7878  -17.8952   23.3896 N.ar    1  UNL1       -0.3367
     25 C         -12.1815  -18.7041   24.4978 C.ar    1  UNL1        0.0850
     26 C         -10.9556  -19.5293   24.2400 C.ar    1  UNL1        0.0747
     27 CL        -10.3494  -20.3381   25.3483 Cl      1  UNL1       -0.0807
     28 C         -10.3361  -19.5456   22.8741 C.ar    1  UNL1        0.0156
     29 C         -10.9424  -18.7367   21.7659 C.ar    1  UNL1        0.0327
     30 H         -13.5923  -17.3537   23.5587 H       1  UNL1        0.1674
@<TRIPOS>BOND
     1    10    11    1
     2    11    12   ar
     3    12    13   ar
     4    13    14    1
     5    13    15   ar
     6    15    16   ar
     7    16     9    1
     8     9     7    1
     9     7     1    1
    10     1     2   ar
    11     2     3   ar
    12     3     4   ar
    13     4    19    1
    14    19    20    1
    15    20    21   ar
    16    21    22   ar
    17    22    23   ar
    18    23    24   ar
    19    24    25   ar
    20    25    26   ar
    21    26    27    1
    22    26    28   ar
    23    28    29   ar
    24     4     5   ar
    25     5     6   ar
    26    16    17   ar
    27    17    18    2
    28    17    11   ar
    29     6     1   ar
    30    29    20   ar
    31    29    23    1
    32     7     8    1
    33    24    30    1
@<TRIPOS>MOLECULE
*****
 30 33 0 0 0
SMALL
GASTEIGER

@<TRIPOS>ATOM
      1 C           6.2537   -2.8971   24.5955 C.ar    1  UNL1        0.2172
      2 N           7.0575   -3.7028   23.6184 N.ar    1  UNL1       -0.2126
      3 C           6.4784   -4.0533   22.2798 C.ar    1  UNL1        0.0994
      4 C           5.0956   -3.5982   21.9183 C.ar    1  UNL1        0.0207
      5 C           4.2918   -2.7925   22.8954 C.ar    1  UNL1        0.0994
      6 N           4.8709   -2.4419   24.2340 N.ar    1  UNL1       -0.2126
      7 N           6.8327   -2.5466   25.9341 N.pl3   1  UNL1       -0.2989
      8 H           7.7351   -2.1575   25.9934 H       1  UNL1        0.1500
      9 C           6.0368   -2.7887   27.1823 C.3     1  UNL1        0.1213
     10 C           8.2643   -7.2752   28.5640 C.3     1  UNL1        0.1337
     11 N           7.6844   -5.9433   28.9382 N.ar    1  UNL1       -0.2904
     12 C           7.6385   -5.5229   30.3773 C.ar    1  UNL1        0.1083
     13 C           7.0587   -4.1910   30.7514 C.ar    1  UNL1        0.1572
     14 F           7.0129   -3.7706   32.1906 F       1  UNL1       -0.2026
     15 C           6.5248   -3.2796   29.6864 C.ar    1  UNL1        0.0333
     16 C           6.5707   -3.7001   28.2472 C.ar    1  UNL1        0.0559
     17 C           7.1505   -5.0320   27.8731 C.ar    1  UNL1        0.2586
     18 O           7.1964   -5.4524   26.4340 O.2     1  UNL1       -0.2673
     19 C           4.5166   -3.9487   20.5797 C.3     1  UNL1        0.0575
     20 C           4.5164   -2.9352   19.4739 C.ar    1  UNL1        0.0044
     21 C           5.5106   -2.8522   18.3538 C.ar    1  UNL1        0.0966
     22 N           5.1307   -1.6924   17.4818 N.ar    1  UNL1       -0.2273
     23 C           3.9016   -1.0586   18.0629 C.ar    1  UNL1        0.1403
     24 N           3.0791    0.1187   17.6300 N.ar    1  UNL1       -0.3367
     25 C           1.8770    0.5279   18.4284 C.ar    1  UNL1        0.0850
     26 C           1.4974   -0.2402   19.6596 C.ar    1  UNL1        0.0747
     27 CL          0.2952    0.1691   20.4579 Cl      1  UNL1       -0.0807
     28 C           2.3199   -1.4175   20.0925 C.ar    1  UNL1        0.0156
     29 C           3.5220   -1.8267   19.2941 C.ar    1  UNL1        0.0327
     30 H           3.3283    0.6228   16.8219 H       1  UNL1        0.1674
@<TRIPOS>BOND
     1    10    11    1
     2    11    12   ar
     3    12    13   ar
     4    13    14    1
     5    13    15   ar
     6    15    16   ar
     7    16     9    1
     8     9     7    1
     9     7     1    1
    10     1     2   ar
    11     2     3   ar
    12     3     4   ar
    13     4    19    1
    14    19    20    1
    15    20    21   ar
    16    21    22   ar
    17    22    23   ar
    18    23    24   ar
    19    24    25   ar
    20    25    26   ar
    21    26    27    1
    22    26    28   ar
    23    28    29   ar
    24     4     5   ar
    25     5     6   ar
    26    16    17   ar
    27    17    18    2
    28    17    11   ar
    29     6     1   ar
    30    29    20   ar
    31    29    23    1
    32     7     8    1
    33    24    30    1
@<TRIPOS>MOLECULE
*****
 30 33 0 0 0
SMALL
GASTEIGER

@<TRIPOS>ATOM
      1 C           5.9963   -2.4862   24.9578 C.ar    1  UNL1        0.2172
      2 N           4.6787   -1.9688   24.4615 N.ar    1  UNL1       -0.2126
      3 C           4.1326   -2.4452   23.1482 C.ar    1  UNL1        0.0994
      4 C           4.9038   -3.4391   22.3313 C.ar    1  UNL1        0.0207
      5 C           6.2214   -3.9566   22.8277 C.ar    1  UNL1        0.0994
      6 N           6.7675   -3.4801   24.1409 N.ar    1  UNL1       -0.2126
      7 N           6.5425   -2.0099   26.2711 N.pl3   1  UNL1       -0.2989
      8 H           6.1146   -1.2561   26.7379 H       1  UNL1        0.1500
      9 C           7.7409   -2.6819   26.8731 C.3     1  UNL1        0.1213
     10 C           6.4467   -3.7798   31.7843 C.3     1  UNL1        0.1337
     11 N           6.9172   -4.2303   30.4331 N.ar    1  UNL1       -0.2904
     12 C           7.2112   -5.6804   30.1864 C.ar    1  UNL1        0.1083
     13 C           7.6817   -6.1309   28.8353 C.ar    1  UNL1        0.1572
     14 F           7.9756   -7.5811   28.5886 F       1  UNL1       -0.2026
     15 C           7.8582   -5.1314   27.7309 C.ar    1  UNL1        0.0333
     16 C           7.5643   -3.6813   27.9776 C.ar    1  UNL1        0.0559
     17 C           7.0938   -3.2308   29.3287 C.ar    1  UNL1        0.2586
     18 O           6.7998   -1.7807   29.5755 O.2     1  UNL1       -0.2673
     19 C           4.3575   -3.9155   21.0180 C.3     1  UNL1        0.0575
     20 C           4.4367   -3.0324   19.8081 C.ar    1  UNL1        0.0044
     21 C           5.4674   -3.1158   18.7216 C.ar    1  UNL1        0.0966
     22 N           5.1667   -2.0458   17.7143 N.ar    1  UNL1       -0.2273
     23 C           3.9500   -1.3011   18.1783 C.ar    1  UNL1        0.1403
     24 N           3.1947   -0.1465   17.5896 N.ar    1  UNL1       -0.3367
     25 C           1.9883    0.3982   18.2951 C.ar    1  UNL1        0.0850
     26 C           1.5371   -0.2116   19.5891 C.ar    1  UNL1        0.0747
     27 CL          0.3306    0.3332   20.2946 Cl      1  UNL1       -0.0807
     28 C           2.2924   -1.3661   20.1778 C.ar    1  UNL1        0.0156
     29 C           3.4988   -1.9109   19.4724 C.ar    1  UNL1        0.0327
     30 H           3.4909    0.2537   16.7403 H       1  UNL1        0.1674
@<TRIPOS>BOND
     1    10    11    1
     2    11    12   ar
     3    12    13   ar
     4    13    14    1
     5    13    15   ar
     6    15    16   ar
     7    16     9    1
     8     9     7    1
     9     7     1    1
    10     1     2   ar
    11     2     3   ar
    12     3     4   ar
    13     4    19    1
    14    19    20    1
    15    20    21   ar
    16    21    22   ar
    17    22    23   ar
    18    23    24   ar
    19    24    25   ar
    20    25    26   ar
    21    26    27    1
    22    26    28   ar
    23    28    29   ar
    24     4     5   ar
    25     5     6   ar
    26    16    17   ar
    27    17    18    2
    28    17    11   ar
    29     6     1   ar
    30    29    20   ar
    31    29    23    1
    32     7     8    1
    33    24    30    1
@<TRIPOS>MOLECULE
*****
 30 33 0 0 0
SMALL
GASTEIGER

@<TRIPOS>ATOM
      1 C          -0.9053    2.2891   20.2470 C.ar    1  UNL1        0.2172
      2 N          -0.2049    3.0714   19.1759 N.ar    1  UNL1       -0.2126
      3 C           1.0001    2.4955   18.4931 C.ar    1  UNL1        0.0994
      4 C           1.5047    1.1373   18.8814 C.ar    1  UNL1        0.0207
      5 C           0.8043    0.3550   19.9525 C.ar    1  UNL1        0.0994
      6 N          -0.4007    0.9309   20.6353 N.ar    1  UNL1       -0.2126
      7 N          -2.1103    2.8649   20.9299 N.pl3   1  UNL1       -0.2989
      8 H          -2.9968    2.7928   20.5077 H       1  UNL1        0.1500
      9 C          -1.9648    3.5506   22.2561 C.3     1  UNL1        0.1213
     10 C          -7.0686    4.2836   22.8992 C.3     1  UNL1        0.1337
     11 N          -5.7047    4.0605   23.4822 N.ar    1  UNL1       -0.2904
     12 C          -5.5286    3.9809   24.9697 C.ar    1  UNL1        0.1083
     13 C          -4.1647    3.7578   25.5526 C.ar    1  UNL1        0.1572
     14 F          -3.9887    3.6782   27.0402 F       1  UNL1       -0.2026
     15 C          -2.9768    3.6144   24.6481 C.ar    1  UNL1        0.0333
     16 C          -3.1528    3.6940   23.1606 C.ar    1  UNL1        0.0559
     17 C          -4.5168    3.9171   22.5776 C.ar    1  UNL1        0.2586
     18 O          -4.6928    3.9968   21.0901 O.2     1  UNL1       -0.2673
     19 C           2.7098    0.5614   18.1985 C.3     1  UNL1        0.0575
     20 C           3.9096    0.1618   19.0052 C.ar    1  UNL1        0.0044
     21 C           4.9775    1.0846   19.5133 C.ar    1  UNL1        0.0966
     22 N           5.9800    0.2624   20.2676 N.ar    1  UNL1       -0.2273
     23 C           5.5317   -1.1685   20.2257 C.ar    1  UNL1        0.1403
     24 N           6.1233   -2.4228   20.7971 N.ar    1  UNL1       -0.3367
     25 C           5.4354   -3.7392   20.5883 C.ar    1  UNL1        0.0850
     26 C           4.1558   -3.8014   19.8081 C.ar    1  UNL1        0.0747
     27 CL          3.4678   -5.1179   19.5993 Cl      1  UNL1       -0.0807
     28 C           3.5641   -2.5470   19.2366 C.ar    1  UNL1        0.0156
     29 C           4.2521   -1.2306   19.4454 C.ar    1  UNL1        0.0327
     30 H           6.9632   -2.3820   21.3092 H       1  UNL1        0.1674
@<TRIPOS>BOND
     1    10    11    1
     2    11    12   ar
     3    12    13   ar
     4    13    14    1
     5    13    15   ar
     6    15    16   ar
     7    16     9    1
     8     9     7    1
     9     7     1    1
    10     1     2   ar
    11     2     3   ar
    12     3     4   ar
    13     4    19    1
    14    19    20    1
    15    20    21   ar
    16    21    22   ar
    17    22    23   ar
    18    23    24   ar
    19    24    25   ar
    20    25    26   ar
    21    26    27    1
    22    26    28   ar
    23    28    29   ar
    24     4     5   ar
    25     5     6   ar
    26    16    17   ar
    27    17    18    2
    28    17    11   ar
    29     6     1   ar
    30    29    20   ar
    31    29    23    1
    32     7     8    1
    33    24    30    1
