@<TRIPOS>MOLECULE
*****
 26 29 0 0 0
SMALL
GASTEIGER

@<TRIPOS>ATOM
      1 N          -8.9272  -17.0218   21.9967 N.ar    1  UNL1       -0.2954
      2 C          -8.3130  -18.2809   21.4605 C.ar    1  UNL1        0.2014
      3 N          -9.4201  -19.2530   21.1787 N.ar    1  UNL1       -0.2136
      4 C         -10.7184  -18.5948   21.5408 C.ar    1  UNL1        0.0999
      5 C         -12.1386  -19.0729   21.4754 C.ar    1  UNL1        0.0207
      6 C         -13.2542  -18.1721   21.9157 C.ar    1  UNL1        0.0016
      7 C         -12.9496  -16.7931   22.4212 C.ar    1  UNL1        0.0016
      8 C         -11.5293  -16.3149   22.4866 C.ar    1  UNL1        0.0188
      9 C         -10.4138  -17.2158   22.0463 C.ar    1  UNL1        0.0801
     10 N          -6.8489  -18.5250   21.2440 N.pl3   1  UNL1       -0.2794
     11 C          -5.8937  -18.4259   22.3962 C.3     1  UNL1        0.0949
     12 C          -4.4296  -18.6700   22.1798 C.3     1  UNL1        0.0375
     13 C          -3.9207  -19.0131   20.8111 C.3     1  UNL1        0.0610
     14 C          -4.8760  -19.1122   19.6589 C.3     1  UNL1        0.0375
     15 C          -6.3401  -18.8681   19.8754 C.3     1  UNL1        0.0949
     16 N          -2.4566  -19.2572   20.5947 N.3     1  UNL1       -0.2715
     17 C          -1.6993  -20.1527   21.5298 C.3     1  UNL1        0.0896
     18 C          -1.7499  -18.6057   19.4432 C.3     1  UNL1        0.0896
     19 C          -8.1850  -15.7857   22.4106 C.3     1  UNL1        0.1354
     20 C          -6.6193  -15.0068   28.1501 C.3     1  UNL1        0.0310
     21 C          -7.0108  -15.2015   26.7152 C.ar    1  UNL1       -0.0219
     22 C          -5.9671  -15.1475   25.6392 C.ar    1  UNL1       -0.0045
     23 C          -6.3586  -15.3422   24.2043 C.ar    1  UNL1       -0.0027
     24 C          -7.7937  -15.5910   23.8454 C.ar    1  UNL1        0.0004
     25 C          -8.8373  -15.6450   24.9216 C.ar    1  UNL1       -0.0027
     26 C          -8.4458  -15.4503   26.3564 C.ar    1  UNL1       -0.0045
@<TRIPOS>BOND
     1    20    21    1
     2    21    22   ar
     3    22    23   ar
     4    23    24   ar
     5    24    19    1
     6    19     1    1
     7     1     2   ar
     8     2    10    1
     9    10    11    1
    10    11    12    1
    11    12    13    1
    12    13    16    1
    13    16    17    1
    14    16    18    1
    15    13    14    1
    16    14    15    1
    17     2     3   ar
    18     3     4   ar
    19     4     5   ar
    20     5     6   ar
    21     6     7   ar
    22     7     8   ar
    23     8     9   ar
    24    24    25   ar
    25    25    26   ar
    26    26    21   ar
    27     9     1   ar
    28    15    10    1
    29     9     4   ar
@<TRIPOS>MOLECULE
*****
 26 29 0 0 0
SMALL
GASTEIGER

@<TRIPOS>ATOM
      1 N          -6.5919  -16.4618   23.8650 N.ar    1  UNL1       -0.2954
      2 C          -5.0975  -16.4023   23.9800 C.ar    1  UNL1        0.2014
      3 N          -4.7583  -15.8592   25.3365 N.ar    1  UNL1       -0.2136
      4 C          -6.0431  -15.5830   26.0598 C.ar    1  UNL1        0.0999
      5 C          -6.3274  -15.0405   27.4290 C.ar    1  UNL1        0.0207
      6 C          -7.7450  -14.8704   27.8887 C.ar    1  UNL1        0.0016
      7 C          -8.8783  -15.2428   26.9793 C.ar    1  UNL1        0.0016
      8 C          -8.5939  -15.7853   25.6101 C.ar    1  UNL1        0.0188
      9 C          -7.1763  -15.9554   25.1503 C.ar    1  UNL1        0.0801
     10 N          -4.1148  -16.8138   22.9241 N.pl3   1  UNL1       -0.2794
     11 C          -3.0942  -15.8336   22.4266 C.3     1  UNL1        0.0949
     12 C          -2.1115  -16.2450   21.3706 C.3     1  UNL1        0.0375
     13 C          -2.1495  -17.6366   20.8121 C.3     1  UNL1        0.0610
     14 C          -3.1701  -18.6168   21.3096 C.3     1  UNL1        0.0375
     15 C          -4.1528  -18.2054   22.3656 C.3     1  UNL1        0.0949
     16 N          -1.1668  -18.0481   19.7561 N.3     1  UNL1       -0.2715
     17 C          -1.5867  -18.0911   18.3168 C.3     1  UNL1        0.0896
     18 C           0.2358  -18.4165   20.1395 C.3     1  UNL1        0.0896
     19 C          -7.3660  -16.9431   22.6737 C.3     1  UNL1        0.1354
     20 C         -13.2634  -17.9471   23.1339 C.3     1  UNL1        0.0310
     21 C         -11.7891  -17.6961   23.0189 C.ar    1  UNL1       -0.0219
     22 C         -10.8133  -18.6941   23.5683 C.ar    1  UNL1       -0.0045
     23 C          -9.3389  -18.4431   23.4532 C.ar    1  UNL1       -0.0027
     24 C          -8.8403  -17.1941   22.7888 C.ar    1  UNL1        0.0004
     25 C          -9.8161  -16.1961   22.2394 C.ar    1  UNL1       -0.0027
     26 C         -11.2905  -16.4472   22.3545 C.ar    1  UNL1       -0.0045
@<TRIPOS>BOND
     1    20    21    1
     2    21    22   ar
     3    22    23   ar
     4    23    24   ar
     5    24    19    1
     6    19     1    1
     7     1     2   ar
     8     2    10    1
     9    10    11    1
    10    11    12    1
    11    12    13    1
    12    13    16    1
    13    16    17    1
    14    16    18    1
    15    13    14    1
    16    14    15    1
    17     2     3   ar
    18     3     4   ar
    19     4     5   ar
    20     5     6   ar
    21     6     7   ar
    22     7     8   ar
    23     8     9   ar
    24    24    25   ar
    25    25    26   ar
    26    26    21   ar
    27     9     1   ar
    28    15    10    1
    29     9     4   ar
@<TRIPOS>MOLECULE
*****
 26 29 0 0 0
SMALL
GASTEIGER

@<TRIPOS>ATOM
      1 N          -5.6385  -17.3297   22.6683 N.ar    1  UNL1       -0.2954
      2 C          -6.6326  -18.4189   22.3936 C.ar    1  UNL1        0.2014
      3 N          -5.8749  -19.6407   21.9657 N.ar    1  UNL1       -0.2136
      4 C          -4.4126  -19.3066   21.9759 C.ar    1  UNL1        0.0999
      5 C          -3.1952  -20.1184   21.6459 C.ar    1  UNL1        0.0207
      6 C          -1.8318  -19.5018   21.7501 C.ar    1  UNL1        0.0016
      7 C          -1.6857  -18.0735   22.1844 C.ar    1  UNL1        0.0016
      8 C          -2.9031  -17.2617   22.5144 C.ar    1  UNL1        0.0188
      9 C          -4.2665  -17.8782   22.4102 C.ar    1  UNL1        0.0801
     10 N          -8.1226  -18.3062   22.5240 N.pl3   1  UNL1       -0.2794
     11 C          -8.8428  -19.0782   23.5894 C.3     1  UNL1        0.0949
     12 C         -10.3329  -18.9655   23.7198 C.3     1  UNL1        0.0375
     13 C         -11.1028  -18.0807   22.7847 C.3     1  UNL1        0.0610
     14 C         -10.3826  -17.3087   21.7192 C.3     1  UNL1        0.0375
     15 C          -8.8925  -17.4214   21.5889 C.3     1  UNL1        0.0949
     16 N         -12.5928  -17.9680   22.9150 N.3     1  UNL1       -0.2715
     17 C         -13.4246  -17.6030   21.7214 C.3     1  UNL1        0.0896
     18 C         -13.2511  -18.2202   24.2390 C.3     1  UNL1        0.0896
     19 C          -5.9601  -15.9364   23.1216 C.3     1  UNL1        0.1354
     20 C          -8.7519  -15.0543   28.3587 C.3     1  UNL1        0.0310
     21 C          -8.0539  -15.2748   27.0494 C.ar    1  UNL1       -0.0219
     22 C          -8.8455  -15.3216   25.7761 C.ar    1  UNL1       -0.0045
     23 C          -8.1475  -15.5422   24.4668 C.ar    1  UNL1       -0.0027
     24 C          -6.6580  -15.7159   24.4308 C.ar    1  UNL1        0.0004
     25 C          -5.8665  -15.6691   25.7042 C.ar    1  UNL1       -0.0027
     26 C          -6.5645  -15.4486   27.0134 C.ar    1  UNL1       -0.0045
@<TRIPOS>BOND
     1    20    21    1
     2    21    22   ar
     3    22    23   ar
     4    23    24   ar
     5    24    19    1
     6    19     1    1
     7     1     2   ar
     8     2    10    1
     9    10    11    1
    10    11    12    1
    11    12    13    1
    12    13    16    1
    13    16    17    1
    14    16    18    1
    15    13    14    1
    16    14    15    1
    17     2     3   ar
    18     3     4   ar
    19     4     5   ar
    20     5     6   ar
    21     6     7   ar
    22     7     8   ar
    23     8     9   ar
    24    24    25   ar
    25    25    26   ar
    26    26    21   ar
    27     9     1   ar
    28    15    10    1
    29     9     4   ar
@<TRIPOS>MOLECULE
*****
 26 29 0 0 0
SMALL
GASTEIGER

@<TRIPOS>ATOM
      1 N          -7.2444  -19.7555   21.1216 N.ar    1  UNL1       -0.2954
      2 C          -8.1464  -18.6500   21.5843 C.ar    1  UNL1        0.2014
      3 N          -9.2837  -18.5422   20.6122 N.ar    1  UNL1       -0.2136
      4 C          -9.0846  -19.5811   19.5487 C.ar    1  UNL1        0.0999
      5 C          -9.8881  -19.9411   18.3344 C.ar    1  UNL1        0.0207
      6 C          -9.4313  -21.0510   17.4348 C.ar    1  UNL1        0.0016
      7 C          -8.1709  -21.8009   17.7496 C.ar    1  UNL1        0.0016
      8 C          -7.3674  -21.4409   18.9639 C.ar    1  UNL1        0.0188
      9 C          -7.8242  -20.3310   19.8635 C.ar    1  UNL1        0.0801
     10 N          -7.9463  -17.8013   22.8048 N.pl3   1  UNL1       -0.2794
     11 C          -9.0027  -17.7567   23.8688 C.3     1  UNL1        0.0949
     12 C          -8.8025  -16.9080   25.0893 C.3     1  UNL1        0.0375
     13 C          -7.5460  -16.1038   25.2458 C.3     1  UNL1        0.0610
     14 C          -6.4897  -16.1484   24.1819 C.3     1  UNL1        0.0375
     15 C          -6.6898  -16.9972   22.9614 C.3     1  UNL1        0.0949
     16 N          -7.3459  -15.2551   26.4663 N.3     1  UNL1       -0.2715
     17 C          -8.4835  -15.0290   27.4174 C.3     1  UNL1        0.0896
     18 C          -6.0081  -14.6326   26.7358 C.3     1  UNL1        0.0896
     19 C          -5.9839  -20.2065   21.7981 C.3     1  UNL1        0.1354
     20 C          -0.6939  -17.9350   20.1080 C.3     1  UNL1        0.0310
     21 C          -2.0164  -18.5029   20.5305 C.ar    1  UNL1       -0.0219
     22 C          -2.3412  -18.6428   21.9882 C.ar    1  UNL1       -0.0045
     23 C          -3.6637  -19.2107   22.4107 C.ar    1  UNL1       -0.0027
     24 C          -4.6615  -19.6386   21.3755 C.ar    1  UNL1        0.0004
     25 C          -4.3366  -19.4987   19.9178 C.ar    1  UNL1       -0.0027
     26 C          -3.0141  -18.9308   19.4954 C.ar    1  UNL1       -0.0045
@<TRIPOS>BOND
     1    20    21    1
     2    21    22   ar
     3    22    23   ar
     4    23    24   ar
     5    24    19    1
     6    19     1    1
     7     1     2   ar
     8     2    10    1
     9    10    11    1
    10    11    12    1
    11    12    13    1
    12    13    16    1
    13    16    17    1
    14    16    18    1
    15    13    14    1
    16    14    15    1
    17     2     3   ar
    18     3     4   ar
    19     4     5   ar
    20     5     6   ar
    21     6     7   ar
    22     7     8   ar
    23     8     9   ar
    24    24    25   ar
    25    25    26   ar
    26    26    21   ar
    27     9     1   ar
    28    15    10    1
    29     9     4   ar
@<TRIPOS>MOLECULE
*****
 26 29 0 0 0
SMALL
GASTEIGER

@<TRIPOS>ATOM
      1 N          -7.3059  -18.1353   21.8919 N.ar    1  UNL1       -0.2954
      2 C          -8.3356  -19.2018   22.1202 C.ar    1  UNL1        0.2014
      3 N          -7.7801  -20.4989   21.6113 N.ar    1  UNL1       -0.2136
      4 C          -6.4071  -20.2340   21.0685 C.ar    1  UNL1        0.0999
      5 C          -5.3859  -21.1343   20.4388 C.ar    1  UNL1        0.0207
      6 C          -4.0715  -20.5737   19.9825 C.ar    1  UNL1        0.0016
      7 C          -3.7784  -19.1129   20.1559 C.ar    1  UNL1        0.0016
      8 C          -4.7997  -18.2126   20.7857 C.ar    1  UNL1        0.0188
      9 C          -6.1140  -18.7732   21.2420 C.ar    1  UNL1        0.0801
     10 N          -9.6841  -19.0057   22.7472 N.pl3   1  UNL1       -0.2794
     11 C         -10.7880  -18.3581   21.9649 C.3     1  UNL1        0.0949
     12 C         -12.1364  -18.1620   22.5920 C.3     1  UNL1        0.0375
     13 C         -12.3810  -18.6135   24.0013 C.3     1  UNL1        0.0610
     14 C         -11.2772  -19.2611   24.7836 C.3     1  UNL1        0.0375
     15 C          -9.9287  -19.4573   24.1565 C.3     1  UNL1        0.0949
     16 N         -13.7295  -18.4174   24.6283 N.3     1  UNL1       -0.2715
     17 C         -14.9340  -18.1950   23.7625 C.3     1  UNL1        0.0896
     18 C         -13.8735  -18.4437   26.1211 C.3     1  UNL1        0.0896
     19 C          -7.4438  -16.6854   22.2506 C.3     1  UNL1        0.1354
     20 C          -6.9222  -14.9466   27.9694 C.3     1  UNL1        0.0310
     21 C          -7.0526  -15.3813   26.5397 C.ar    1  UNL1       -0.0219
     22 C          -8.4057  -15.6875   25.9693 C.ar    1  UNL1       -0.0045
     23 C          -8.5361  -16.1222   24.5397 C.ar    1  UNL1       -0.0027
     24 C          -7.3134  -16.2507   23.6802 C.ar    1  UNL1        0.0004
     25 C          -5.9603  -15.9445   24.2507 C.ar    1  UNL1       -0.0027
     26 C          -5.8299  -15.5098   25.6803 C.ar    1  UNL1       -0.0045
@<TRIPOS>BOND
     1    20    21    1
     2    21    22   ar
     3    22    23   ar
     4    23    24   ar
     5    24    19    1
     6    19     1    1
     7     1     2   ar
     8     2    10    1
     9    10    11    1
    10    11    12    1
    11    12    13    1
    12    13    16    1
    13    16    17    1
    14    16    18    1
    15    13    14    1
    16    14    15    1
    17     2     3   ar
    18     3     4   ar
    19     4     5   ar
    20     5     6   ar
    21     6     7   ar
    22     7     8   ar
    23     8     9   ar
    24    24    25   ar
    25    25    26   ar
    26    26    21   ar
    27     9     1   ar
    28    15    10    1
    29     9     4   ar
@<TRIPOS>MOLECULE
*****
 26 29 0 0 0
SMALL
GASTEIGER

@<TRIPOS>ATOM
      1 N          -9.4452  -18.3932   22.9729 N.ar    1  UNL1       -0.2954
      2 C          -8.7797  -18.3493   21.6294 C.ar    1  UNL1        0.2014
      3 N          -9.8321  -18.0621   20.6000 N.ar    1  UNL1       -0.2136
      4 C         -11.1482  -17.9286   21.3072 C.ar    1  UNL1        0.0999
      5 C         -12.5334  -17.6471   20.8053 C.ar    1  UNL1        0.0207
      6 C         -13.6794  -17.5703   21.7699 C.ar    1  UNL1        0.0016
      7 C         -13.4403  -17.7749   23.2365 C.ar    1  UNL1        0.0016
      8 C         -12.0551  -18.0564   23.7385 C.ar    1  UNL1        0.0188
      9 C         -10.9091  -18.1332   22.7738 C.ar    1  UNL1        0.0801
     10 N          -7.3182  -18.5561   21.3623 N.pl3   1  UNL1       -0.2794
     11 C          -6.8644  -19.0612   20.0248 C.3     1  UNL1        0.0949
     12 C          -5.4030  -19.2681   19.7576 C.3     1  UNL1        0.0375
     13 C          -4.3953  -18.9699   20.8280 C.3     1  UNL1        0.0610
     14 C          -4.8491  -18.4648   22.1654 C.3     1  UNL1        0.0375
     15 C          -6.3105  -18.2579   22.4326 C.3     1  UNL1        0.0949
     16 N          -2.9339  -19.1768   20.5608 N.3     1  UNL1       -0.2715
     17 C          -2.3292  -18.6874   19.2783 C.3     1  UNL1        0.0896
     18 C          -2.0770  -19.8730   21.5762 C.3     1  UNL1        0.0896
     19 C          -8.7662  -18.6518   24.2852 C.3     1  UNL1        0.1354
     20 C          -8.0303  -14.1783   28.2154 C.3     1  UNL1        0.0310
     21 C          -8.2143  -15.2967   27.2328 C.ar    1  UNL1       -0.0219
     22 C          -8.7459  -16.6210   27.6949 C.ar    1  UNL1       -0.0045
     23 C          -8.9299  -17.7394   26.7123 C.ar    1  UNL1       -0.0027
     24 C          -8.5822  -17.5334   25.2677 C.ar    1  UNL1        0.0004
     25 C          -8.0506  -16.2091   24.8057 C.ar    1  UNL1       -0.0027
     26 C          -7.8666  -15.0907   25.7883 C.ar    1  UNL1       -0.0045
@<TRIPOS>BOND
     1    20    21    1
     2    21    22   ar
     3    22    23   ar
     4    23    24   ar
     5    24    19    1
     6    19     1    1
     7     1     2   ar
     8     2    10    1
     9    10    11    1
    10    11    12    1
    11    12    13    1
    12    13    16    1
    13    16    17    1
    14    16    18    1
    15    13    14    1
    16    14    15    1
    17     2     3   ar
    18     3     4   ar
    19     4     5   ar
    20     5     6   ar
    21     6     7   ar
    22     7     8   ar
    23     8     9   ar
    24    24    25   ar
    25    25    26   ar
    26    26    21   ar
    27     9     1   ar
    28    15    10    1
    29     9     4   ar
@<TRIPOS>MOLECULE
*****
 26 29 0 0 0
SMALL
GASTEIGER

@<TRIPOS>ATOM
      1 N           2.7098    0.2190   31.2950 N.ar    1  UNL1       -0.2954
      2 C           3.9986   -0.0811   32.0015 C.ar    1  UNL1        0.2014
      3 N           4.2073    0.9698   33.0512 N.ar    1  UNL1       -0.2136
      4 C           3.0476    1.9195   32.9935 C.ar    1  UNL1        0.0999
      5 C           2.7148    3.1468   33.7891 C.ar    1  UNL1        0.0207
      6 C           1.4565    3.9100   33.4992 C.ar    1  UNL1        0.0016
      7 C           0.5310    3.4460   32.4138 C.ar    1  UNL1        0.0016
      8 C           0.8638    2.2187   31.6182 C.ar    1  UNL1        0.0188
      9 C           2.1221    1.4555   31.9081 C.ar    1  UNL1        0.0801
     10 N           4.9172   -1.2304   31.7095 N.pl3   1  UNL1       -0.2794
     11 C           5.6243   -1.3086   30.3890 C.3     1  UNL1        0.0949
     12 C           6.5430   -2.4578   30.0971 C.3     1  UNL1        0.0375
     13 C           6.7545   -3.5289   31.1256 C.3     1  UNL1        0.0610
     14 C           6.0474   -3.4507   32.4461 C.3     1  UNL1        0.0375
     15 C           5.1287   -2.3015   32.7381 C.3     1  UNL1        0.0949
     16 N           7.6732   -4.6782   30.8336 N.3     1  UNL1       -0.2715
     17 C           7.1823   -5.8451   30.0290 C.3     1  UNL1        0.0896
     18 C           9.0827   -4.6606   31.3463 C.3     1  UNL1        0.0896
     19 C           2.1135   -0.5774   30.1725 C.3     1  UNL1        0.1354
     20 C          -0.8979    2.2028   25.7905 C.3     1  UNL1        0.0310
     21 C          -0.1451    1.5077   26.8860 C.ar    1  UNL1       -0.0219
     22 C           1.3347    1.7106   27.0248 C.ar    1  UNL1       -0.0045
     23 C           2.0875    1.0156   28.1203 C.ar    1  UNL1       -0.0027
     24 C           1.3606    0.1176   29.0771 C.ar    1  UNL1        0.0004
     25 C          -0.1191   -0.0853   28.9383 C.ar    1  UNL1       -0.0027
     26 C          -0.8719    0.6098   27.8428 C.ar    1  UNL1       -0.0045
@<TRIPOS>BOND
     1    20    21    1
     2    21    22   ar
     3    22    23   ar
     4    23    24   ar
     5    24    19    1
     6    19     1    1
     7     1     2   ar
     8     2    10    1
     9    10    11    1
    10    11    12    1
    11    12    13    1
    12    13    16    1
    13    16    17    1
    14    16    18    1
    15    13    14    1
    16    14    15    1
    17     2     3   ar
    18     3     4   ar
    19     4     5   ar
    20     5     6   ar
    21     6     7   ar
    22     7     8   ar
    23     8     9   ar
    24    24    25   ar
    25    25    26   ar
    26    26    21   ar
    27     9     1   ar
    28    15    10    1
    29     9     4   ar
@<TRIPOS>MOLECULE
*****
 26 29 0 0 0
SMALL
GASTEIGER

@<TRIPOS>ATOM
      1 N          -2.0663    3.6299   22.4221 N.ar    1  UNL1       -0.2954
      2 C          -1.9449    3.0632   21.0386 C.ar    1  UNL1        0.2014
      3 N          -3.3209    2.9880   20.4462 N.ar    1  UNL1       -0.2136
      4 C          -4.2927    3.5083   21.4635 C.ar    1  UNL1        0.0999
      5 C          -5.7834    3.6720   21.4357 C.ar    1  UNL1        0.0207
      6 C          -6.4987    4.2325   22.6290 C.ar    1  UNL1        0.0016
      7 C          -5.7233    4.6292   23.8502 C.ar    1  UNL1        0.0016
      8 C          -4.2326    4.4655   23.8781 C.ar    1  UNL1        0.0188
      9 C          -3.5172    3.9050   22.6847 C.ar    1  UNL1        0.0801
     10 N          -0.6712    2.6451   20.3657 N.pl3   1  UNL1       -0.2794
     11 C          -0.0896    3.4888   19.2703 C.3     1  UNL1        0.0949
     12 C           1.1841    3.0707   18.5974 C.3     1  UNL1        0.0375
     13 C           1.8763    1.8088   19.0199 C.3     1  UNL1        0.0610
     14 C           1.2947    0.9651   20.1152 C.3     1  UNL1        0.0375
     15 C           0.0210    1.3832   20.7881 C.3     1  UNL1        0.0949
     16 N           3.1500    1.3907   18.3469 N.3     1  UNL1       -0.2715
     17 C           3.2721    0.0153   17.7609 C.3     1  UNL1        0.0896
     18 C           4.3016    2.3478   18.2601 C.3     1  UNL1        0.0896
     19 C          -0.9352    3.8780   23.3756 C.3     1  UNL1        0.1354
     20 C          -0.3250    0.4517   28.2631 C.3     1  UNL1        0.0310
     21 C          -0.4775    1.3083   27.0412 C.ar    1  UNL1       -0.0219
     22 C          -1.3656    2.5165   27.0785 C.ar    1  UNL1       -0.0045
     23 C          -1.5182    3.3731   25.8566 C.ar    1  UNL1       -0.0027
     24 C          -0.7826    3.0215   24.5974 C.ar    1  UNL1        0.0004
     25 C           0.1054    1.8132   24.5603 C.ar    1  UNL1       -0.0027
     26 C           0.2580    0.9566   25.7821 C.ar    1  UNL1       -0.0045
@<TRIPOS>BOND
     1    20    21    1
     2    21    22   ar
     3    22    23   ar
     4    23    24   ar
     5    24    19    1
     6    19     1    1
     7     1     2   ar
     8     2    10    1
     9    10    11    1
    10    11    12    1
    11    12    13    1
    12    13    16    1
    13    16    17    1
    14    16    18    1
    15    13    14    1
    16    14    15    1
    17     2     3   ar
    18     3     4   ar
    19     4     5   ar
    20     5     6   ar
    21     6     7   ar
    22     7     8   ar
    23     8     9   ar
    24    24    25   ar
    25    25    26   ar
    26    26    21   ar
    27     9     1   ar
    28    15    10    1
    29     9     4   ar
@<TRIPOS>MOLECULE
*****
 26 29 0 0 0
SMALL
GASTEIGER

@<TRIPOS>ATOM
      1 N           3.9908    1.4894   34.8135 N.ar    1  UNL1       -0.2954
      2 C           4.5886    0.1635   35.1807 C.ar    1  UNL1        0.2014
      3 N           4.3008   -0.0889   36.6310 N.ar    1  UNL1       -0.2136
      4 C           3.5252    1.0809   37.1602 C.ar    1  UNL1        0.0999
      5 C           2.9687    1.3839   38.5198 C.ar    1  UNL1        0.0207
      6 C           2.2206    2.6624   38.7560 C.ar    1  UNL1        0.0016
      7 C           2.0290    3.6378   37.6327 C.ar    1  UNL1        0.0016
      8 C           2.5855    3.3348   36.2732 C.ar    1  UNL1        0.0188
      9 C           3.3336    2.0564   36.0369 C.ar    1  UNL1        0.0801
     10 N           5.3418   -0.7495   34.2594 N.pl3   1  UNL1       -0.2794
     11 C           6.7936   -0.4993   33.9773 C.3     1  UNL1        0.0949
     12 C           7.5469   -1.4124   33.0559 C.3     1  UNL1        0.0375
     13 C           6.8483   -2.5757   32.4166 C.3     1  UNL1        0.0610
     14 C           5.3965   -2.8259   32.6987 C.3     1  UNL1        0.0375
     15 C           4.6433   -1.9128   33.6200 C.3     1  UNL1        0.0949
     16 N           7.6016   -3.4887   31.4953 N.3     1  UNL1       -0.2715
     17 C           9.0835   -3.6580   31.6536 C.3     1  UNL1        0.0896
     18 C           6.8729   -4.2325   30.4156 C.3     1  UNL1        0.0896
     19 C           4.0413    2.1349   33.4605 C.3     1  UNL1        0.1354
     20 C          -0.2410    0.9753   29.4211 C.3     1  UNL1        0.0310
     21 C           0.8296    1.2652   30.4310 C.ar    1  UNL1       -0.0219
     22 C           0.5926    2.2876   31.5027 C.ar    1  UNL1       -0.0045
     23 C           1.6632    2.5775   32.5125 C.ar    1  UNL1       -0.0027
     24 C           2.9708    1.8450   32.4507 C.ar    1  UNL1        0.0004
     25 C           3.2077    0.8227   31.3789 C.ar    1  UNL1       -0.0027
     26 C           2.1371    0.5328   30.3691 C.ar    1  UNL1       -0.0045
@<TRIPOS>BOND
     1    20    21    1
     2    21    22   ar
     3    22    23   ar
     4    23    24   ar
     5    24    19    1
     6    19     1    1
     7     1     2   ar
     8     2    10    1
     9    10    11    1
    10    11    12    1
    11    12    13    1
    12    13    16    1
    13    16    17    1
    14    16    18    1
    15    13    14    1
    16    14    15    1
    17     2     3   ar
    18     3     4   ar
    19     4     5   ar
    20     5     6   ar
    21     6     7   ar
    22     7     8   ar
    23     8     9   ar
    24    24    25   ar
    25    25    26   ar
    26    26    21   ar
    27     9     1   ar
    28    15    10    1
    29     9     4   ar
