@<TRIPOS>MOLECULE
*****
 28 31 0 0 0
SMALL
GASTEIGER

@<TRIPOS>ATOM
      1 C         -14.9544   -7.2021   18.5330 C.3     1  UNL1        0.1747
      2 C         -13.4557   -7.2128   18.5949 C.3     1  UNL1        0.0406
      3 C         -12.6990   -5.9199   18.6717 C.3     1  UNL1        0.0403
      4 C         -11.2003   -5.9306   18.7336 C.3     1  UNL1        0.0569
      5 C         -10.4583   -7.2341   18.7187 C.3     1  UNL1        0.0122
      6 S         -10.4436   -4.6377   18.8104 S.3     1  UNL1       -0.0816
      7 C         -11.1856   -3.3342   18.8253 C.2     1  UNL1        0.1482
      8 N         -10.4288   -2.0413   18.9020 N.pl3   1  UNL1       -0.3380
      9 N         -12.6843   -3.3235   18.7634 N.2     1  UNL1       -0.2484
     10 C         -13.4410   -4.6164   18.6866 C.3     1  UNL1        0.1352
     11 C         -14.9397   -4.6057   18.6247 C.3     1  UNL1        0.1691
     12 O         -15.6963   -5.8985   18.5479 O.3     1  UNL1       -0.3462
     13 H          -9.4452   -2.0483   18.9427 H       1  UNL1        0.1442
     14 H         -10.9158   -1.1857   18.9118 H       1  UNL1        0.1442
     15 C         -14.1830   -3.3128   18.7015 C.ar    1  UNL1        0.0278
     16 C         -14.5611   -2.6502   17.4099 C.ar    1  UNL1        0.0021
     17 C         -15.3031   -1.3467   17.4248 C.ar    1  UNL1        0.0295
     18 C         -15.6669   -0.7057   18.7313 C.ar    1  UNL1        0.1424
     19 F         -16.4089    0.5979   18.7462 F       1  UNL1       -0.2041
     20 C         -15.2888   -1.3683   20.0228 C.ar    1  UNL1        0.0590
     21 C         -14.5469   -2.6718   20.0079 C.ar    1  UNL1        0.1402
     22 F         -14.1688   -3.3344   21.2993 F       1  UNL1       -0.2044
     23 C         -18.8340  -10.7166   17.8419 C.3     1  UNL1        0.0557
     24 C         -17.4944  -10.1104   18.1385 C.ar    1  UNL1        0.1008
     25 C         -17.1571   -8.6497   18.0883 C.ar    1  UNL1        0.0561
     26 C         -15.7111   -8.4949   18.4562 C.ar    1  UNL1        0.1809
     27 O         -15.1549   -9.8600   18.7339 O.2     1  UNL1       -0.3556
     28 N         -16.2570  -10.8584   18.5376 N.ar    1  UNL1       -0.0817
@<TRIPOS>BOND
     1    23    24    1
     2    24    25   ar
     3    25    26   ar
     4     1    26    1
     5     1     2    1
     6     3     2    1
     7     3     4    1
     8     4     5    1
     9     4     6    1
    10     6     7    1
    11     7     8    1
    12     7     9    2
    13     9    10    1
    14    10    15    1
    15    15    16   ar
    16    16    17   ar
    17    17    18   ar
    18    18    19    1
    19    18    20   ar
    20    20    21   ar
    21    21    22    1
    22    10    11    1
    23    11    12    1
    24    26    27   ar
    25    27    28   ar
    26    28    24   ar
    27    12     1    1
    28    10     3    1
    29    21    15   ar
    30     8    13    1
    31     8    14    1
@<TRIPOS>MOLECULE
*****
 28 31 0 0 0
SMALL
GASTEIGER

@<TRIPOS>ATOM
      1 C          -4.7564  -18.0303   22.2212 C.3     1  UNL1        0.1747
      2 C          -4.7110  -17.1013   23.3980 C.3     1  UNL1        0.0406
      3 C          -5.9837  -16.5421   23.9615 C.3     1  UNL1        0.0403
      4 C          -5.9383  -15.6131   25.1384 C.3     1  UNL1        0.0569
      5 C          -4.6203  -15.2434   25.7517 C.3     1  UNL1        0.0122
      6 S          -7.2110  -15.0539   25.7019 S.3     1  UNL1       -0.0816
      7 C          -8.5290  -15.4236   25.0886 C.2     1  UNL1        0.1482
      8 N          -9.8017  -14.8643   25.6522 N.pl3   1  UNL1       -0.3380
      9 N          -8.5744  -16.3525   23.9118 N.2     1  UNL1       -0.2484
     10 C          -7.3017  -16.9118   23.3482 C.3     1  UNL1        0.1352
     11 C          -7.3470  -17.8407   22.1714 C.3     1  UNL1        0.1691
     12 O          -6.0744  -18.4000   21.6078 O.3     1  UNL1       -0.3462
     13 H          -9.7719  -14.2546   26.4246 H       1  UNL1        0.1442
     14 H         -10.6667  -15.1070   25.2497 H       1  UNL1        0.1442
     15 C          -8.6197  -17.2815   22.7349 C.ar    1  UNL1        0.0278
     16 C          -9.2848  -18.5732   23.1084 C.ar    1  UNL1        0.0021
     17 C         -10.6028  -18.9429   22.4951 C.ar    1  UNL1        0.0295
     18 C         -11.2557  -18.0209   21.5082 C.ar    1  UNL1        0.1424
     19 F         -12.5737  -18.3907   20.8949 F       1  UNL1       -0.2041
     20 C         -10.5906  -16.7294   21.1347 C.ar    1  UNL1        0.0590
     21 C          -9.2726  -16.3597   21.7481 C.ar    1  UNL1        0.1402
     22 F          -8.6075  -15.0681   21.3746 F       1  UNL1       -0.2044
     23 C          -0.1121  -18.4317   19.7411 C.3     1  UNL1        0.0557
     24 C          -1.3489  -18.7740   20.5176 C.ar    1  UNL1        0.1008
     25 C          -2.4504  -17.8244   20.8851 C.ar    1  UNL1        0.0561
     26 C          -3.4837  -18.5895   21.6576 C.ar    1  UNL1        0.1809
     27 O          -3.0209  -20.0121   21.7676 O.2     1  UNL1       -0.3556
     28 N          -1.7016  -20.1261   21.0630 N.ar    1  UNL1       -0.0817
@<TRIPOS>BOND
     1    23    24    1
     2    24    25   ar
     3    25    26   ar
     4     1    26    1
     5     1     2    1
     6     3     2    1
     7     3     4    1
     8     4     5    1
     9     4     6    1
    10     6     7    1
    11     7     8    1
    12     7     9    2
    13     9    10    1
    14    10    15    1
    15    15    16   ar
    16    16    17   ar
    17    17    18   ar
    18    18    19    1
    19    18    20   ar
    20    20    21   ar
    21    21    22    1
    22    10    11    1
    23    11    12    1
    24    26    27   ar
    25    27    28   ar
    26    28    24   ar
    27    12     1    1
    28    10     3    1
    29    21    15   ar
    30     8    13    1
    31     8    14    1
@<TRIPOS>MOLECULE
*****
 28 31 0 0 0
SMALL
GASTEIGER

@<TRIPOS>ATOM
      1 C         -17.7072   -3.5262   20.0899 C.3     1  UNL1        0.1747
      2 C         -16.2162   -3.3672   20.1306 C.3     1  UNL1        0.0406
      3 C         -15.3288   -4.5213   19.7694 C.3     1  UNL1        0.0403
      4 C         -13.8378   -4.3624   19.8102 C.3     1  UNL1        0.0569
      5 C         -13.2342   -3.0493   20.2121 C.3     1  UNL1        0.0122
      6 S         -12.9503   -5.5165   19.4489 S.3     1  UNL1       -0.0816
      7 C         -13.5539   -6.8295   19.0470 C.2     1  UNL1        0.1482
      8 N         -12.6664   -7.9837   18.6858 N.pl3   1  UNL1       -0.3380
      9 N         -15.0448   -6.9885   19.0062 N.2     1  UNL1       -0.2484
     10 C         -15.9323   -5.8344   19.3675 C.3     1  UNL1        0.1352
     11 C         -17.4233   -5.9934   19.3267 C.3     1  UNL1        0.1691
     12 O         -18.3107   -4.8393   19.6879 O.3     1  UNL1       -0.3462
     13 H         -11.6878   -7.8793   18.7125 H       1  UNL1        0.1442
     14 H         -13.0625   -8.8455   18.4220 H       1  UNL1        0.1442
     15 C         -16.5359   -7.1475   18.9655 C.ar    1  UNL1        0.0278
     16 C         -16.8146   -8.1939   20.0035 C.ar    1  UNL1        0.0021
     17 C         -17.4182   -9.5070   19.6016 C.ar    1  UNL1        0.0295
     18 C         -17.7430   -9.7736   18.1616 C.ar    1  UNL1        0.1424
     19 F         -18.3465  -11.0867   17.7597 F       1  UNL1       -0.2041
     20 C         -17.4642   -8.7273   17.1237 C.ar    1  UNL1        0.0590
     21 C         -16.8607   -7.4142   17.5256 C.ar    1  UNL1        0.1402
     22 F         -16.5819   -6.3678   16.4877 F       1  UNL1       -0.2044
     23 C         -19.8024    1.3146   20.3293 C.3     1  UNL1        0.0557
     24 C         -19.5577   -0.1470   20.5611 C.ar    1  UNL1        0.1008
     25 C         -18.4649   -0.9671   19.9422 C.ar    1  UNL1        0.0561
     26 C         -18.5947   -2.3721   20.4511 C.ar    1  UNL1        0.1809
     27 O         -19.7678   -2.4204   21.3846 O.2     1  UNL1       -0.3556
     28 N         -20.3630   -1.0453   21.4527 N.ar    1  UNL1       -0.0817
@<TRIPOS>BOND
     1    23    24    1
     2    24    25   ar
     3    25    26   ar
     4     1    26    1
     5     1     2    1
     6     3     2    1
     7     3     4    1
     8     4     5    1
     9     4     6    1
    10     6     7    1
    11     7     8    1
    12     7     9    2
    13     9    10    1
    14    10    15    1
    15    15    16   ar
    16    16    17   ar
    17    17    18   ar
    18    18    19    1
    19    18    20   ar
    20    20    21   ar
    21    21    22    1
    22    10    11    1
    23    11    12    1
    24    26    27   ar
    25    27    28   ar
    26    28    24   ar
    27    12     1    1
    28    10     3    1
    29    21    15   ar
    30     8    13    1
    31     8    14    1
@<TRIPOS>MOLECULE
*****
 28 31 0 0 0
SMALL
GASTEIGER

@<TRIPOS>ATOM
      1 C         -15.4223   -7.0877   18.8467 C.3     1  UNL1        0.1747
      2 C         -16.0392   -5.8002   19.3066 C.3     1  UNL1        0.0406
      3 C         -15.2430   -4.5297   19.2639 C.3     1  UNL1        0.0403
      4 C         -15.8599   -3.2421   19.7239 C.3     1  UNL1        0.0569
      5 C         -17.2730   -3.2250   20.2265 C.3     1  UNL1        0.0122
      6 S         -15.0636   -1.9716   19.6811 S.3     1  UNL1       -0.0816
      7 C         -13.6504   -1.9887   19.1785 C.2     1  UNL1        0.1482
      8 N         -12.8542   -0.7182   19.1357 N.pl3   1  UNL1       -0.3380
      9 N         -13.0335   -3.2763   18.7185 N.2     1  UNL1       -0.2484
     10 C         -13.8298   -4.5468   18.7612 C.3     1  UNL1        0.1352
     11 C         -13.2129   -5.8344   18.3013 C.3     1  UNL1        0.1691
     12 O         -14.0092   -7.1048   18.3440 O.3     1  UNL1       -0.3462
     13 H         -13.2591    0.1269   19.4376 H       1  UNL1        0.1442
     14 H         -11.9267   -0.7294   18.8058 H       1  UNL1        0.1442
     15 C         -12.4166   -4.5639   18.2586 C.ar    1  UNL1        0.0278
     16 C         -11.3110   -5.0548   19.1455 C.ar    1  UNL1        0.0021
     17 C          -9.8978   -5.0719   18.6429 C.ar    1  UNL1        0.0295
     18 C          -9.5903   -4.5981   17.2532 C.ar    1  UNL1        0.1424
     19 F          -8.1772   -4.6152   16.7505 F       1  UNL1       -0.2041
     20 C         -10.6959   -4.1073   16.3663 C.ar    1  UNL1        0.0590
     21 C         -12.1091   -4.0902   16.8690 C.ar    1  UNL1        0.1402
     22 F         -13.2147   -3.5993   15.9821 F       1  UNL1       -0.2044
     23 C         -19.0987  -10.7459   17.8552 C.3     1  UNL1        0.0557
     24 C         -17.9085  -10.0397   18.4336 C.ar    1  UNL1        0.1008
     25 C         -17.4382   -8.6623   18.0708 C.ar    1  UNL1        0.0561
     26 C         -16.2186   -8.3583   18.8894 C.ar    1  UNL1        0.1809
     27 O         -15.9350   -9.5477   19.7581 O.2     1  UNL1       -0.3556
     28 N         -16.9794  -10.5869   19.4765 N.ar    1  UNL1       -0.0817
@<TRIPOS>BOND
     1    23    24    1
     2    24    25   ar
     3    25    26   ar
     4     1    26    1
     5     1     2    1
     6     3     2    1
     7     3     4    1
     8     4     5    1
     9     4     6    1
    10     6     7    1
    11     7     8    1
    12     7     9    2
    13     9    10    1
    14    10    15    1
    15    15    16   ar
    16    16    17   ar
    17    17    18   ar
    18    18    19    1
    19    18    20   ar
    20    20    21   ar
    21    21    22    1
    22    10    11    1
    23    11    12    1
    24    26    27   ar
    25    27    28   ar
    26    28    24   ar
    27    12     1    1
    28    10     3    1
    29    21    15   ar
    30     8    13    1
    31     8    14    1
@<TRIPOS>MOLECULE
*****
 28 31 0 0 0
SMALL
GASTEIGER

@<TRIPOS>ATOM
      1 C         -15.3481   -6.0772   18.6172 C.3     1  UNL1        0.1747
      2 C         -16.5023   -5.2576   19.1132 C.3     1  UNL1        0.0406
      3 C         -16.3841   -3.7641   19.1881 C.3     1  UNL1        0.0403
      4 C         -17.5383   -2.9444   19.6842 C.3     1  UNL1        0.0569
      5 C         -18.8106   -3.6182   20.1054 C.3     1  UNL1        0.0122
      6 S         -17.4202   -1.4510   19.7591 S.3     1  UNL1       -0.0816
      7 C         -16.1480   -0.7772   19.3380 C.2     1  UNL1        0.1482
      8 N         -16.0299    0.7164   19.4129 N.pl3   1  UNL1       -0.3380
      9 N         -14.9938   -1.5968   18.8419 N.2     1  UNL1       -0.2484
     10 C         -15.1119   -3.0903   18.7670 C.3     1  UNL1        0.1352
     11 C         -13.9577   -3.9100   18.2709 C.3     1  UNL1        0.1691
     12 O         -14.0759   -5.4034   18.1960 O.3     1  UNL1       -0.3462
     13 H         -16.7874    1.2543   19.7385 H       1  UNL1        0.1442
     14 H         -15.1949    1.1586   19.1365 H       1  UNL1        0.1442
     15 C         -13.8396   -2.4165   18.3458 C.ar    1  UNL1        0.0278
     16 C         -13.6948   -1.8948   16.9469 C.ar    1  UNL1        0.0021
     17 C         -12.4225   -1.2210   16.5258 C.ar    1  UNL1        0.0295
     18 C         -11.2951   -1.0689   17.5035 C.ar    1  UNL1        0.1424
     19 F         -10.0229   -0.3951   17.0824 F       1  UNL1       -0.2041
     20 C         -11.4400   -1.5907   18.9024 C.ar    1  UNL1        0.0590
     21 C         -12.7123   -2.2645   19.3235 C.ar    1  UNL1        0.1402
     22 F         -12.8572   -2.7862   20.7223 F       1  UNL1       -0.2044
     23 C         -17.3598  -10.9588   18.5555 C.3     1  UNL1        0.0557
     24 C         -16.3909   -9.8145   18.5139 C.ar    1  UNL1        0.1008
     25 C         -16.7377   -8.3606   18.6389 C.ar    1  UNL1        0.0561
     26 C         -15.4662   -7.5707   18.5422 C.ar    1  UNL1        0.1809
     27 O         -14.3335   -8.5365   18.3575 O.2     1  UNL1       -0.3556
     28 N         -14.9050   -9.9233   18.3400 N.ar    1  UNL1       -0.0817
@<TRIPOS>BOND
     1    23    24    1
     2    24    25   ar
     3    25    26   ar
     4     1    26    1
     5     1     2    1
     6     3     2    1
     7     3     4    1
     8     4     5    1
     9     4     6    1
    10     6     7    1
    11     7     8    1
    12     7     9    2
    13     9    10    1
    14    10    15    1
    15    15    16   ar
    16    16    17   ar
    17    17    18   ar
    18    18    19    1
    19    18    20   ar
    20    20    21   ar
    21    21    22    1
    22    10    11    1
    23    11    12    1
    24    26    27   ar
    25    27    28   ar
    26    28    24   ar
    27    12     1    1
    28    10     3    1
    29    21    15   ar
    30     8    13    1
    31     8    14    1
@<TRIPOS>MOLECULE
*****
 28 31 0 0 0
SMALL
GASTEIGER

@<TRIPOS>ATOM
      1 C         -13.7797   -5.8229   19.1402 C.3     1  UNL1        0.1747
      2 C         -14.4717   -4.5254   19.4362 C.3     1  UNL1        0.0406
      3 C         -15.9695   -4.4706   19.4947 C.3     1  UNL1        0.0403
      4 C         -16.6616   -3.1732   19.7908 C.3     1  UNL1        0.0569
      5 C         -15.8558   -1.9305   20.0284 C.3     1  UNL1        0.0122
      6 S         -18.1594   -3.1184   19.8492 S.3     1  UNL1       -0.0816
      7 C         -18.9652   -4.3610   19.6116 C.2     1  UNL1        0.1482
      8 N         -20.4632   -4.3062   19.6701 N.pl3   1  UNL1       -0.3380
      9 N         -18.2732   -5.6585   19.3156 N.2     1  UNL1       -0.2484
     10 C         -16.7753   -5.7133   19.2571 C.3     1  UNL1        0.1352
     11 C         -16.0833   -7.0108   18.9610 C.3     1  UNL1        0.1691
     12 O         -14.5855   -7.0655   18.9026 O.3     1  UNL1       -0.3462
     13 H         -20.9174   -3.4546   19.8644 H       1  UNL1        0.1442
     14 H         -20.9921   -5.1218   19.5141 H       1  UNL1        0.1442
     15 C         -17.5811   -6.9560   19.0195 C.ar    1  UNL1        0.0278
     16 C         -17.9023   -7.8718   20.1633 C.ar    1  UNL1        0.0021
     17 C         -18.7081   -9.1144   19.9257 C.ar    1  UNL1        0.0295
     18 C         -19.1927   -9.4413   18.5442 C.ar    1  UNL1        0.1424
     19 F         -19.9985  -10.6840   18.3066 F       1  UNL1       -0.2041
     20 C         -18.8716   -8.5255   17.4005 C.ar    1  UNL1        0.0590
     21 C         -18.0658   -7.2829   17.6381 C.ar    1  UNL1        0.1402
     22 F         -17.7446   -6.3671   16.4944 F       1  UNL1       -0.2044
     23 C          -8.8274   -7.6355   18.8748 C.3     1  UNL1        0.0557
     24 C         -10.0054   -6.7109   18.9597 C.ar    1  UNL1        0.1008
     25 C         -11.4477   -7.1215   18.9956 C.ar    1  UNL1        0.0561
     26 C         -12.2818   -5.8777   19.0817 C.ar    1  UNL1        0.1809
     27 O         -11.3550   -4.6984   19.0991 O.2     1  UNL1       -0.3556
     28 N          -9.9481   -5.2133   19.0237 N.ar    1  UNL1       -0.0817
@<TRIPOS>BOND
     1    23    24    1
     2    24    25   ar
     3    25    26   ar
     4     1    26    1
     5     1     2    1
     6     3     2    1
     7     3     4    1
     8     4     5    1
     9     4     6    1
    10     6     7    1
    11     7     8    1
    12     7     9    2
    13     9    10    1
    14    10    15    1
    15    15    16   ar
    16    16    17   ar
    17    17    18   ar
    18    18    19    1
    19    18    20   ar
    20    20    21   ar
    21    21    22    1
    22    10    11    1
    23    11    12    1
    24    26    27   ar
    25    27    28   ar
    26    28    24   ar
    27    12     1    1
    28    10     3    1
    29    21    15   ar
    30     8    13    1
    31     8    14    1
@<TRIPOS>MOLECULE
*****
 28 31 0 0 0
SMALL
GASTEIGER

@<TRIPOS>ATOM
      1 C           2.3034    0.1998   30.5446 C.3     1  UNL1        0.1747
      2 C           2.3081    0.9589   31.8383 C.3     1  UNL1        0.0406
      3 C           3.3862    0.7088   32.8507 C.3     1  UNL1        0.0403
      4 C           3.3909    1.4680   34.1445 C.3     1  UNL1        0.0569
      5 C           2.3174    2.4771   34.4257 C.3     1  UNL1        0.0122
      6 S           4.4691    1.2179   35.1569 S.3     1  UNL1       -0.0816
      7 C           5.5426    0.2087   34.8756 C.2     1  UNL1        0.1482
      8 N           6.6208   -0.0414   35.8881 N.pl3   1  UNL1       -0.3380
      9 N           5.5379   -0.5504   33.5819 N.2     1  UNL1       -0.2484
     10 C           4.4597   -0.3004   32.5694 C.3     1  UNL1        0.1352
     11 C           4.4551   -1.0595   31.2757 C.3     1  UNL1        0.1691
     12 O           3.3769   -0.8094   30.2633 O.3     1  UNL1       -0.3462
     13 H           6.6238    0.4569   36.7372 H       1  UNL1        0.1442
     14 H           7.3253   -0.7037   35.7035 H       1  UNL1        0.1442
     15 C           5.5332   -1.3096   32.2881 C.ar    1  UNL1        0.0278
     16 C           6.7834   -0.8945   31.5706 C.ar    1  UNL1        0.0021
     17 C           7.8569   -1.9036   31.2893 C.ar    1  UNL1        0.0295
     18 C           7.6802   -3.3279   31.7256 C.ar    1  UNL1        0.1424
     19 F           8.7538   -4.3371   31.4443 F       1  UNL1       -0.2041
     20 C           6.4301   -3.7430   32.4430 C.ar    1  UNL1        0.0590
     21 C           5.3566   -2.7338   32.7243 C.ar    1  UNL1        0.1402
     22 F           4.1064   -3.1488   33.4418 F       1  UNL1       -0.2044
     23 C          -0.1733    1.4044   26.0395 C.3     1  UNL1        0.0557
     24 C           0.0869    1.0035   27.4613 C.ar    1  UNL1        0.1008
     25 C           1.4340    0.8701   28.1074 C.ar    1  UNL1        0.0561
     26 C           1.2252    0.4498   29.5321 C.ar    1  UNL1        0.1809
     27 O          -0.2509    0.3235   29.7666 O.2     1  UNL1       -0.3556
     28 N          -0.9545    0.6657   28.4868 N.ar    1  UNL1       -0.0817
@<TRIPOS>BOND
     1    23    24    1
     2    24    25   ar
     3    25    26   ar
     4     1    26    1
     5     1     2    1
     6     3     2    1
     7     3     4    1
     8     4     5    1
     9     4     6    1
    10     6     7    1
    11     7     8    1
    12     7     9    2
    13     9    10    1
    14    10    15    1
    15    15    16   ar
    16    16    17   ar
    17    17    18   ar
    18    18    19    1
    19    18    20   ar
    20    20    21   ar
    21    21    22    1
    22    10    11    1
    23    11    12    1
    24    26    27   ar
    25    27    28   ar
    26    28    24   ar
    27    12     1    1
    28    10     3    1
    29    21    15   ar
    30     8    13    1
    31     8    14    1
@<TRIPOS>MOLECULE
*****
 28 31 0 0 0
SMALL
GASTEIGER

@<TRIPOS>ATOM
      1 C         -13.4666   -5.3280   18.2668 C.3     1  UNL1        0.1747
      2 C         -14.2854   -4.2319   18.8816 C.3     1  UNL1        0.0406
      3 C         -15.7581   -4.4235   19.0916 C.3     1  UNL1        0.0403
      4 C         -16.5770   -3.3274   19.7065 C.3     1  UNL1        0.0569
      5 C         -15.9230   -2.0396   20.1112 C.3     1  UNL1        0.0122
      6 S         -18.0498   -3.5191   19.9165 S.3     1  UNL1       -0.0816
      7 C         -18.7038   -4.8069   19.5117 C.2     1  UNL1        0.1482
      8 N         -20.1766   -4.9985   19.7218 N.pl3   1  UNL1       -0.3380
      9 N         -17.8850   -5.9030   18.8969 N.2     1  UNL1       -0.2484
     10 C         -16.4121   -5.7114   18.6869 C.3     1  UNL1        0.1352
     11 C         -15.5933   -6.8075   18.0721 C.3     1  UNL1        0.1691
     12 O         -14.1206   -6.6158   17.8621 O.3     1  UNL1       -0.3462
     13 H         -20.7140   -4.2791   20.1253 H       1  UNL1        0.1442
     14 H         -20.6059   -5.8437   19.4561 H       1  UNL1        0.1442
     15 C         -17.0661   -6.9992   18.2821 C.ar    1  UNL1        0.0278
     16 C         -17.6655   -7.1384   16.9141 C.ar    1  UNL1        0.0021
     17 C         -18.3195   -8.4262   16.5093 C.ar    1  UNL1        0.0295
     18 C         -18.3741   -9.5748   17.4726 C.ar    1  UNL1        0.1424
     19 F         -19.0280  -10.8626   17.0678 F       1  UNL1       -0.2041
     20 C         -17.7747   -9.4356   18.8405 C.ar    1  UNL1        0.0590
     21 C         -17.1207   -8.1478   19.2453 C.ar    1  UNL1        0.1402
     22 F         -16.5213   -8.0085   20.6132 F       1  UNL1       -0.2044
     23 C          -8.8368   -3.9136   16.1583 C.3     1  UNL1        0.0557
     24 C          -9.8657   -4.4862   17.0876 C.ar    1  UNL1        0.1008
     25 C         -11.3519   -4.4490   16.8882 C.ar    1  UNL1        0.0561
     26 C         -11.9937   -5.1364   18.0568 C.ar    1  UNL1        0.1809
     27 O         -10.9042   -5.5984   18.9784 O.2     1  UNL1       -0.3556
     28 N          -9.5890   -5.1967   18.3794 N.ar    1  UNL1       -0.0817
@<TRIPOS>BOND
     1    23    24    1
     2    24    25   ar
     3    25    26   ar
     4     1    26    1
     5     1     2    1
     6     3     2    1
     7     3     4    1
     8     4     5    1
     9     4     6    1
    10     6     7    1
    11     7     8    1
    12     7     9    2
    13     9    10    1
    14    10    15    1
    15    15    16   ar
    16    16    17   ar
    17    17    18   ar
    18    18    19    1
    19    18    20   ar
    20    20    21   ar
    21    21    22    1
    22    10    11    1
    23    11    12    1
    24    26    27   ar
    25    27    28   ar
    26    28    24   ar
    27    12     1    1
    28    10     3    1
    29    21    15   ar
    30     8    13    1
    31     8    14    1
@<TRIPOS>MOLECULE
*****
 28 31 0 0 0
SMALL
GASTEIGER

@<TRIPOS>ATOM
      1 C           2.2237    0.0772   30.2414 C.3     1  UNL1        0.1747
      2 C           3.3631   -0.6436   29.5841 C.3     1  UNL1        0.0406
      3 C           4.6150   -0.9315   30.3585 C.3     1  UNL1        0.0403
      4 C           5.7545   -1.6524   29.7011 C.3     1  UNL1        0.0569
      5 C           5.6420   -2.0853   28.2694 C.3     1  UNL1        0.0122
      6 S           7.0064   -1.9403   30.4755 S.3     1  UNL1       -0.0816
      7 C           7.1190   -1.5074   31.9072 C.2     1  UNL1        0.1482
      8 N           8.3710   -1.7953   32.6816 N.pl3   1  UNL1       -0.3380
      9 N           5.9796   -0.7865   32.5646 N.2     1  UNL1       -0.2484
     10 C           4.7276   -0.4986   31.7902 C.3     1  UNL1        0.1352
     11 C           3.5882    0.2222   32.4476 C.3     1  UNL1        0.1691
     12 O           2.3363    0.5101   31.6732 O.3     1  UNL1       -0.3462
     13 H           9.1189   -2.2684   32.2502 H       1  UNL1        0.1442
     14 H           8.4449   -1.5111   33.6213 H       1  UNL1        0.1442
     15 C           4.8402   -0.0657   33.2219 C.ar    1  UNL1        0.0278
     16 C           5.2899    1.3270   33.5512 C.ar    1  UNL1        0.0021
     17 C           5.4024    1.7599   34.9830 C.ar    1  UNL1        0.0295
     18 C           5.0653    0.8002   36.0854 C.ar    1  UNL1        0.1424
     19 F           5.1778    1.2332   37.5172 F       1  UNL1       -0.2041
     20 C           4.6156   -0.5923   35.7561 C.ar    1  UNL1        0.0590
     21 C           4.5030   -1.0253   34.3244 C.ar    1  UNL1        0.1402
     22 F           4.0533   -2.4178   33.9951 F       1  UNL1       -0.2044
     23 C          -1.2697    2.3732   27.0157 C.3     1  UNL1        0.0557
     24 C          -0.6340    1.4205   27.9843 C.ar    1  UNL1        0.1008
     25 C           0.7549    1.5250   28.5409 C.ar    1  UNL1        0.0561
     26 C           0.9717    0.3651   29.4670 C.ar    1  UNL1        0.1809
     27 O          -0.2833   -0.4563   29.4828 O.2     1  UNL1       -0.3556
     28 N          -1.2757    0.1960   28.5664 N.ar    1  UNL1       -0.0817
@<TRIPOS>BOND
     1    23    24    1
     2    24    25   ar
     3    25    26   ar
     4     1    26    1
     5     1     2    1
     6     3     2    1
     7     3     4    1
     8     4     5    1
     9     4     6    1
    10     6     7    1
    11     7     8    1
    12     7     9    2
    13     9    10    1
    14    10    15    1
    15    15    16   ar
    16    16    17   ar
    17    17    18   ar
    18    18    19    1
    19    18    20   ar
    20    20    21   ar
    21    21    22    1
    22    10    11    1
    23    11    12    1
    24    26    27   ar
    25    27    28   ar
    26    28    24   ar
    27    12     1    1
    28    10     3    1
    29    21    15   ar
    30     8    13    1
    31     8    14    1
