@<TRIPOS>MOLECULE
*****
 36 40 0 0 0
SMALL
GASTEIGER

@<TRIPOS>ATOM
      1 C           6.6006   -4.3532   30.2836 C.3     1  UNL1        0.1909
      2 C           6.8394   -4.6367   31.7371 C.3     1  UNL1        0.1783
      3 O           6.6391   -3.3593   32.4976 O.3     1  UNL1       -0.3267
      4 C           6.2765   -2.2864   31.5140 C.3     1  UNL1        0.2296
      5 O           6.2527   -2.9006   30.1457 O.3     1  UNL1       -0.3255
      6 C           6.2222   -1.4096   32.7298 C.ar    1  UNL1        0.0409
      7 C           7.2503   -0.3350   32.9261 C.ar    1  UNL1        0.0022
      8 C           7.1959    0.5418   34.1419 C.ar    1  UNL1        0.0113
      9 C           6.1135    0.3442   35.1613 C.ar    1  UNL1        0.0585
     10 CL          6.0591    1.2211   36.3771 Cl      1  UNL1       -0.0822
     11 C           5.0854   -0.7303   34.9650 C.ar    1  UNL1        0.0226
     12 C           5.1398   -1.6072   33.7493 C.ar    1  UNL1        0.0591
     13 CL          4.1117   -2.6817   33.5529 Cl      1  UNL1       -0.0824
     14 C           6.6934   -5.3477   29.1645 C.3     1  UNL1        0.2374
     15 O           7.8030   -5.2455   28.1604 O.3     1  UNL1       -0.4727
     16 C           6.9028   -4.0001   23.9310 C.ar    1  UNL1        0.0481
     17 C           7.5830   -5.3100   24.1985 C.ar    1  UNL1        0.0176
     18 C           7.8830   -5.7251   25.6083 C.ar    1  UNL1        0.0382
     19 C           7.5030   -4.8304   26.7506 C.ar    1  UNL1        0.1388
     20 C           6.8228   -3.5205   26.4831 C.ar    1  UNL1        0.0382
     21 C           6.5227   -3.1054   25.0733 C.ar    1  UNL1        0.0176
     22 C           4.2887   -2.0562   17.8780 C.3     1  UNL1        0.0948
     23 C           5.7024   -2.3396   18.2917 C.2     1  UNL1        0.2262
     24 O           6.8160   -2.2079   17.2954 O.2     1  UNL1       -0.2749
     25 N           6.0025   -2.7547   19.7015 N.am    1  UNL1       -0.2760
     26 C           4.8889   -2.8864   20.6977 C.3     1  UNL1        0.1148
     27 C           5.1890   -3.3016   22.1075 C.3     1  UNL1        0.1123
     28 N           6.6027   -3.5850   22.5211 N.pl3   1  UNL1       -0.3041
     29 C           7.7163   -3.4533   21.5249 C.3     1  UNL1        0.1123
     30 C           7.4162   -3.0381   20.1151 C.3     1  UNL1        0.1148
     31 C           5.9026   -1.0301   30.7846 C.3     1  UNL1        0.1682
     32 N           4.5605   -0.9175   30.1241 N.ar    1  UNL1       -0.3025
     33 C           3.2735   -0.5483   30.8001 C.ar    1  UNL1        0.0982
     34 C           2.1874   -0.5569   29.7655 C.ar    1  UNL1        0.1193
     35 N           2.8034   -0.9314   28.4500 N.ar    1  UNL1       -0.2223
     36 C           4.2700   -1.1543   28.6717 C.ar    1  UNL1        0.1788
@<TRIPOS>BOND
     1    22    23    1
     2    23    24    2
     3    23    25   am
     4    25    26    1
     5    26    27    1
     6    27    28    1
     7    28    16    1
     8    16    17   ar
     9    17    18   ar
    10    18    19   ar
    11    19    15    1
    12    15    14    1
    13    14     1    1
    14     1     2    1
    15     2     3    1
    16     3     4    1
    17     4    31    1
    18    31    32    1
    19    32    33   ar
    20    33    34   ar
    21    34    35   ar
    22    35    36   ar
    23     4     6    1
    24     6     7   ar
    25     7     8   ar
    26     8     9   ar
    27     9    10    1
    28     9    11   ar
    29    11    12   ar
    30    12    13    1
    31     4     5    1
    32    19    20   ar
    33    20    21   ar
    34    28    29    1
    35    29    30    1
    36    30    25    1
    37    21    16   ar
    38     5     1    1
    39    36    32   ar
    40    12     6   ar
@<TRIPOS>MOLECULE
*****
 36 40 0 0 0
SMALL
GASTEIGER

@<TRIPOS>ATOM
      1 C           5.1007   -3.1731   20.0087 C.3     1  UNL1        0.1909
      2 C           3.9307   -3.2285   19.0716 C.3     1  UNL1        0.1783
      3 O           3.1658   -1.9454   19.2087 O.3     1  UNL1       -0.3267
      4 C           3.8631   -1.0970   20.2304 C.3     1  UNL1        0.2296
      5 O           5.0590   -1.8557   20.7249 O.3     1  UNL1       -0.3255
      6 C           2.7651   -0.1182   19.9368 C.ar    1  UNL1        0.0409
      7 C           1.4604   -0.2123   20.6709 C.ar    1  UNL1        0.0022
      8 C           0.3623    0.7665   20.3772 C.ar    1  UNL1        0.0113
      9 C           0.5690    1.8394   19.3496 C.ar    1  UNL1        0.0585
     10 CL         -0.5290    2.8182   19.0559 Cl      1  UNL1       -0.0822
     11 C           1.8738    1.9335   18.6155 C.ar    1  UNL1        0.0226
     12 C           2.9718    0.9547   18.9091 C.ar    1  UNL1        0.0591
     13 CL          4.2765    1.0488   18.1751 Cl      1  UNL1       -0.0824
     14 C           6.1315   -4.2465   20.1965 C.3     1  UNL1        0.2374
     15 O           7.3857   -3.9554   20.9661 O.3     1  UNL1       -0.4727
     16 C           7.6437   -5.0145   25.3320 C.ar    1  UNL1        0.0481
     17 C           6.7173   -3.9257   24.8779 C.ar    1  UNL1        0.0176
     18 C           6.6313   -3.5727   23.4225 C.ar    1  UNL1        0.0382
     19 C           7.4717   -4.3085   22.4214 C.ar    1  UNL1        0.1388
     20 C           8.3980   -5.3973   22.8756 C.ar    1  UNL1        0.0382
     21 C           8.4840   -5.7503   24.3309 C.ar    1  UNL1        0.0176
     22 C           9.2528   -7.0088   31.7104 C.3     1  UNL1        0.0948
     23 C           7.9876   -6.4267   31.1533 C.2     1  UNL1        0.2262
     24 O           6.8084   -6.1976   32.0516 O.2     1  UNL1       -0.2749
     25 N           7.9016   -6.0737   29.6980 N.am    1  UNL1       -0.2760
     26 C           9.0808   -6.3027   28.7998 C.3     1  UNL1        0.1148
     27 C           8.9948   -5.9497   27.3444 C.3     1  UNL1        0.1123
     28 N           7.7296   -5.3676   26.7874 N.pl3   1  UNL1       -0.3041
     29 C           6.5504   -5.1385   27.6856 C.3     1  UNL1        0.1123
     30 C           6.6364   -5.4916   29.1409 C.3     1  UNL1        0.1148
     31 C           4.3309   -0.0440   21.1909 C.3     1  UNL1        0.1682
     32 N           4.4537   -0.3622   22.6516 N.ar    1  UNL1       -0.3025
     33 C           5.5171    0.1473   23.5786 C.ar    1  UNL1        0.0982
     34 C           5.2552   -0.4215   24.9416 C.ar    1  UNL1        0.1193
     35 N           4.0299   -1.2826   24.8569 N.ar    1  UNL1       -0.2223
     36 C           3.5346   -1.2460   23.4416 C.ar    1  UNL1        0.1788
@<TRIPOS>BOND
     1    22    23    1
     2    23    24    2
     3    23    25   am
     4    25    26    1
     5    26    27    1
     6    27    28    1
     7    28    16    1
     8    16    17   ar
     9    17    18   ar
    10    18    19   ar
    11    19    15    1
    12    15    14    1
    13    14     1    1
    14     1     2    1
    15     2     3    1
    16     3     4    1
    17     4    31    1
    18    31    32    1
    19    32    33   ar
    20    33    34   ar
    21    34    35   ar
    22    35    36   ar
    23     4     6    1
    24     6     7   ar
    25     7     8   ar
    26     8     9   ar
    27     9    10    1
    28     9    11   ar
    29    11    12   ar
    30    12    13    1
    31     4     5    1
    32    19    20   ar
    33    20    21   ar
    34    28    29    1
    35    29    30    1
    36    30    25    1
    37    21    16   ar
    38     5     1    1
    39    36    32   ar
    40    12     6   ar
@<TRIPOS>MOLECULE
*****
 36 40 0 0 0
SMALL
GASTEIGER

@<TRIPOS>ATOM
      1 C           4.9874   -2.9948   19.8880 C.3     1  UNL1        0.1909
      2 C           3.5080   -3.2411   19.9114 C.3     1  UNL1        0.1783
      3 O           2.8157   -1.9120   19.8453 O.3     1  UNL1       -0.3267
      4 C           3.8672   -0.8443   19.7811 C.3     1  UNL1        0.2296
      5 O           5.2095   -1.5134   19.8074 O.3     1  UNL1       -0.3255
      6 C           2.6936    0.0888   19.7395 C.ar    1  UNL1        0.0409
      7 C           2.1740    0.5821   18.4216 C.ar    1  UNL1        0.0022
      8 C           1.0003    1.5152   18.3800 C.ar    1  UNL1        0.0113
      9 C           0.3463    1.9551   19.6562 C.ar    1  UNL1        0.0585
     10 CL         -0.8274    2.8882   19.6146 Cl      1  UNL1       -0.0822
     11 C           0.8659    1.4618   20.9741 C.ar    1  UNL1        0.0226
     12 C           2.0395    0.5287   21.0157 C.ar    1  UNL1        0.0591
     13 CL          2.5592    0.0354   22.3335 Cl      1  UNL1       -0.0824
     14 C           6.0570   -4.0453   19.9365 C.3     1  UNL1        0.2374
     15 O           7.2866   -3.8259   20.7672 O.3     1  UNL1       -0.4727
     16 C           7.0830   -4.2464   25.2428 C.ar    1  UNL1        0.0481
     17 C           6.2446   -3.2152   24.5475 C.ar    1  UNL1        0.0176
     18 C           6.3125   -3.0750   23.0556 C.ar    1  UNL1        0.0382
     19 C           7.2187   -3.9661   22.2591 C.ar    1  UNL1        0.1388
     20 C           8.0571   -4.9973   22.9544 C.ar    1  UNL1        0.0382
     21 C           7.9893   -5.1375   24.4463 C.ar    1  UNL1        0.0176
     22 C           6.7856   -3.5840   32.0782 C.3     1  UNL1        0.0948
     23 C           6.8115   -4.8072   31.2104 C.2     1  UNL1        0.2262
     24 O           6.7696   -6.1705   31.8345 O.2     1  UNL1       -0.2749
     25 N           6.8794   -4.6670   29.7185 N.am    1  UNL1       -0.2760
     26 C           6.9213   -3.3036   29.0945 C.3     1  UNL1        0.1148
     27 C           6.9892   -3.1635   27.6026 C.3     1  UNL1        0.1123
     28 N           7.0151   -4.3866   26.7347 N.pl3   1  UNL1       -0.3041
     29 C           6.9732   -5.7500   27.3588 C.3     1  UNL1        0.1123
     30 C           6.9053   -5.8901   28.8507 C.3     1  UNL1        0.1148
     31 C           4.6736    0.4185   19.7081 C.3     1  UNL1        0.1682
     32 N           5.7292    0.5746   18.6540 N.ar    1  UNL1       -0.3025
     33 C           7.0979    1.1540   18.8559 C.ar    1  UNL1        0.0982
     34 C           7.8160    1.1161   17.5395 C.ar    1  UNL1        0.1193
     35 N           6.8912    0.5132   16.5241 N.ar    1  UNL1       -0.2223
     36 C           5.6014    0.1785   17.2129 C.ar    1  UNL1        0.1788
@<TRIPOS>BOND
     1    22    23    1
     2    23    24    2
     3    23    25   am
     4    25    26    1
     5    26    27    1
     6    27    28    1
     7    28    16    1
     8    16    17   ar
     9    17    18   ar
    10    18    19   ar
    11    19    15    1
    12    15    14    1
    13    14     1    1
    14     1     2    1
    15     2     3    1
    16     3     4    1
    17     4    31    1
    18    31    32    1
    19    32    33   ar
    20    33    34   ar
    21    34    35   ar
    22    35    36   ar
    23     4     6    1
    24     6     7   ar
    25     7     8   ar
    26     8     9   ar
    27     9    10    1
    28     9    11   ar
    29    11    12   ar
    30    12    13    1
    31     4     5    1
    32    19    20   ar
    33    20    21   ar
    34    28    29    1
    35    29    30    1
    36    30    25    1
    37    21    16   ar
    38     5     1    1
    39    36    32   ar
    40    12     6   ar
@<TRIPOS>MOLECULE
*****
 36 40 0 0 0
SMALL
GASTEIGER

@<TRIPOS>ATOM
      1 C           7.2712   -5.4932   29.9544 C.3     1  UNL1        0.1909
      2 C           7.3597   -5.6971   31.4378 C.3     1  UNL1        0.1783
      3 O           6.8537   -4.4540   32.1076 O.3     1  UNL1       -0.3267
      4 C           6.4526   -3.4817   31.0382 C.3     1  UNL1        0.2296
      5 O           6.7106   -4.1239   29.7073 O.3     1  UNL1       -0.3255
      6 C           6.0951   -2.5976   32.1959 C.ar    1  UNL1        0.0409
      7 C           4.6879   -2.5740   32.7150 C.ar    1  UNL1        0.0022
      8 C           4.3304   -1.6899   33.8728 C.ar    1  UNL1        0.0113
      9 C           5.3799   -0.8294   34.5115 C.ar    1  UNL1        0.0585
     10 CL          5.0224    0.0547   35.6693 Cl      1  UNL1       -0.0822
     11 C           6.7871   -0.8530   33.9924 C.ar    1  UNL1        0.0226
     12 C           7.1446   -1.7371   32.8346 C.ar    1  UNL1        0.0591
     13 CL          8.5517   -1.7607   32.3155 Cl      1  UNL1       -0.0824
     14 C           7.6729   -6.4844   28.9026 C.3     1  UNL1        0.2374
     15 O           8.7266   -6.1255   27.8972 O.3     1  UNL1       -0.4727
     16 C           7.5353   -4.5434   23.8565 C.ar    1  UNL1        0.0481
     17 C           8.9021   -5.1267   24.0604 C.ar    1  UNL1        0.0176
     18 C           9.2992   -5.6541   25.4073 C.ar    1  UNL1        0.0382
     19 C           8.3295   -5.5982   26.5503 C.ar    1  UNL1        0.1388
     20 C           6.9627   -5.0149   26.3464 C.ar    1  UNL1        0.0382
     21 C           6.5656   -4.4875   24.9995 C.ar    1  UNL1        0.0176
     22 C           4.5054   -2.1447   18.1717 C.3     1  UNL1        0.0948
     23 C           5.9470   -2.4338   18.4688 C.2     1  UNL1        0.2262
     24 O           6.9914   -2.1955   17.4189 O.2     1  UNL1       -0.2749
     25 N           6.3440   -2.9612   19.8157 N.am    1  UNL1       -0.2760
     26 C           5.2996   -3.1995   20.8656 C.3     1  UNL1        0.1148
     27 C           5.6967   -3.7269   22.2125 C.3     1  UNL1        0.1123
     28 N           7.1382   -4.0160   22.5095 N.pl3   1  UNL1       -0.3041
     29 C           8.1827   -3.7777   21.4597 C.3     1  UNL1        0.1123
     30 C           7.7856   -3.2503   20.1128 C.3     1  UNL1        0.1148
     31 C           5.9767   -2.3246   30.2106 C.3     1  UNL1        0.1682
     32 N           6.7214   -1.9343   28.9684 N.ar    1  UNL1       -0.3025
     33 C           6.1059   -1.5455   27.6570 C.ar    1  UNL1        0.0982
     34 C           7.2165   -1.2352   26.6977 C.ar    1  UNL1        0.1193
     35 N           8.5183   -1.4322   27.4163 N.ar    1  UNL1       -0.2223
     36 C           8.2123   -1.8643   28.8197 C.ar    1  UNL1        0.1788
@<TRIPOS>BOND
     1    22    23    1
     2    23    24    2
     3    23    25   am
     4    25    26    1
     5    26    27    1
     6    27    28    1
     7    28    16    1
     8    16    17   ar
     9    17    18   ar
    10    18    19   ar
    11    19    15    1
    12    15    14    1
    13    14     1    1
    14     1     2    1
    15     2     3    1
    16     3     4    1
    17     4    31    1
    18    31    32    1
    19    32    33   ar
    20    33    34   ar
    21    34    35   ar
    22    35    36   ar
    23     4     6    1
    24     6     7   ar
    25     7     8   ar
    26     8     9   ar
    27     9    10    1
    28     9    11   ar
    29    11    12   ar
    30    12    13    1
    31     4     5    1
    32    19    20   ar
    33    20    21   ar
    34    28    29    1
    35    29    30    1
    36    30    25    1
    37    21    16   ar
    38     5     1    1
    39    36    32   ar
    40    12     6   ar
@<TRIPOS>MOLECULE
*****
 36 40 0 0 0
SMALL
GASTEIGER

@<TRIPOS>ATOM
      1 C           4.1689   -1.9504   18.5330 C.3     1  UNL1        0.1909
      2 C           4.1681   -1.1286   17.2781 C.3     1  UNL1        0.1783
      3 O           3.3983    0.1300   17.5487 O.3     1  UNL1       -0.3267
      4 C           2.9232    0.0861   18.9708 C.3     1  UNL1        0.2296
      5 O           3.3995   -1.1996   19.5792 O.3     1  UNL1       -0.3255
      6 C           2.3214    1.4210   18.6455 C.ar    1  UNL1        0.0409
      7 C           0.8361    1.5545   18.4834 C.ar    1  UNL1        0.0022
      8 C           0.2342    2.8894   18.1581 C.ar    1  UNL1        0.0113
      9 C           1.1175    4.0907   17.9949 C.ar    1  UNL1        0.0585
     10 CL          0.5156    5.4256   17.6696 Cl      1  UNL1       -0.0822
     11 C           2.6028    3.9571   18.1570 C.ar    1  UNL1        0.0226
     12 C           3.2046    2.6223   18.4823 C.ar    1  UNL1        0.0591
     13 CL          4.6898    2.4887   18.6444 Cl      1  UNL1       -0.0824
     14 C           4.8240   -3.2880   18.7106 C.3     1  UNL1        0.2374
     15 O           6.1655   -3.3839   19.3749 O.3     1  UNL1       -0.4727
     16 C           6.4341   -3.9884   23.8260 C.ar    1  UNL1        0.0481
     17 C           5.1643   -3.4756   23.2140 C.ar    1  UNL1        0.0176
     18 C           5.0747   -3.2741   21.7303 C.ar    1  UNL1        0.0382
     19 C           6.2550   -3.5854   20.8586 C.ar    1  UNL1        0.1388
     20 C           7.5248   -4.0982   21.4705 C.ar    1  UNL1        0.0382
     21 C           7.6144   -4.2997   22.9542 C.ar    1  UNL1        0.0176
     22 C           6.5796   -3.6358   30.6892 C.3     1  UNL1        0.0948
     23 C           6.7923   -4.7945   29.7608 C.2     1  UNL1        0.2262
     24 O           7.0945   -6.1547   30.3160 O.2     1  UNL1       -0.2749
     25 N           6.7027   -4.5930   28.2771 N.am    1  UNL1       -0.2760
     26 C           6.4005   -3.2327   27.7218 C.3     1  UNL1        0.1148
     27 C           6.3109   -3.0312   26.2381 C.3     1  UNL1        0.1123
     28 N           6.5236   -4.1899   25.3097 N.pl3   1  UNL1       -0.3041
     29 C           6.8259   -5.5502   25.8649 C.3     1  UNL1        0.1123
     30 C           6.9154   -5.7517   27.3486 C.3     1  UNL1        0.1148
     31 C           2.3223    0.3213   20.3250 C.3     1  UNL1        0.1682
     32 N           3.1893    0.2767   21.5482 N.ar    1  UNL1       -0.3025
     33 C           4.5769    0.8337   21.6661 C.ar    1  UNL1        0.0982
     34 C           5.0660    0.5686   23.0592 C.ar    1  UNL1        0.1193
     35 N           3.9805   -0.1523   23.8022 N.ar    1  UNL1       -0.2223
     36 C           2.8206   -0.3327   22.8684 C.ar    1  UNL1        0.1788
@<TRIPOS>BOND
     1    22    23    1
     2    23    24    2
     3    23    25   am
     4    25    26    1
     5    26    27    1
     6    27    28    1
     7    28    16    1
     8    16    17   ar
     9    17    18   ar
    10    18    19   ar
    11    19    15    1
    12    15    14    1
    13    14     1    1
    14     1     2    1
    15     2     3    1
    16     3     4    1
    17     4    31    1
    18    31    32    1
    19    32    33   ar
    20    33    34   ar
    21    34    35   ar
    22    35    36   ar
    23     4     6    1
    24     6     7   ar
    25     7     8   ar
    26     8     9   ar
    27     9    10    1
    28     9    11   ar
    29    11    12   ar
    30    12    13    1
    31     4     5    1
    32    19    20   ar
    33    20    21   ar
    34    28    29    1
    35    29    30    1
    36    30    25    1
    37    21    16   ar
    38     5     1    1
    39    36    32   ar
    40    12     6   ar
@<TRIPOS>MOLECULE
*****
 36 40 0 0 0
SMALL
GASTEIGER

@<TRIPOS>ATOM
      1 C           7.5477   -5.3645   25.3030 C.3     1  UNL1        0.1909
      2 C           7.9510   -5.8867   23.9559 C.3     1  UNL1        0.1783
      3 O           7.2337   -5.0819   22.9129 O.3     1  UNL1       -0.3267
      4 C           6.3871   -4.0622   23.6154 C.3     1  UNL1        0.2296
      5 O           6.5811   -4.2368   25.0926 O.3     1  UNL1       -0.3255
      6 C           5.9992   -3.6568   22.2244 C.ar    1  UNL1        0.0409
      7 C           4.6218   -3.9579   21.7121 C.ar    1  UNL1        0.0022
      8 C           4.2339   -3.5524   20.3210 C.ar    1  UNL1        0.0113
      9 C           5.2231   -2.8458   19.4423 C.ar    1  UNL1        0.0585
     10 CL          4.8351   -2.4403   18.0512 Cl      1  UNL1       -0.0822
     11 C           6.6004   -2.5447   19.9547 C.ar    1  UNL1        0.0226
     12 C           6.9884   -2.9501   21.3457 C.ar    1  UNL1        0.0591
     13 CL          8.3656   -2.6491   21.8581 Cl      1  UNL1       -0.0824
     14 C           8.0268   -5.8794   26.6279 C.3     1  UNL1        0.2374
     15 O           7.0382   -6.2058   27.7077 O.3     1  UNL1       -0.4727
     16 C           6.4841   -3.3930   31.1762 C.ar    1  UNL1        0.0481
     17 C           6.8528   -4.8257   31.4240 C.ar    1  UNL1        0.0176
     18 C           7.0375   -5.7633   30.2678 C.ar    1  UNL1        0.0382
     19 C           6.8535   -5.2682   28.8639 C.ar    1  UNL1        0.1388
     20 C           6.4848   -3.8355   28.6162 C.ar    1  UNL1        0.0382
     21 C           6.3001   -2.8979   29.7724 C.ar    1  UNL1        0.0176
     22 C           4.4359    0.3986   36.5315 C.3     1  UNL1        0.0948
     23 C           5.7453    0.3574   35.8010 C.2     1  UNL1        0.2262
     24 O           6.8700    1.2539   36.2268 O.2     1  UNL1       -0.2749
     25 N           5.9300   -0.5802   34.6448 N.am    1  UNL1       -0.2760
     26 C           4.8052   -1.4766   34.2191 C.3     1  UNL1        0.1148
     27 C           4.9899   -2.4142   33.0629 C.3     1  UNL1        0.1123
     28 N           6.2994   -2.4554   32.3324 N.pl3   1  UNL1       -0.3041
     29 C           7.4241   -1.5589   32.7582 C.3     1  UNL1        0.1123
     30 C           7.2394   -0.6213   33.9144 C.3     1  UNL1        0.1148
     31 C           5.4594   -2.9577   24.0272 C.3     1  UNL1        0.1682
     32 N           5.9430   -1.8755   24.9463 N.ar    1  UNL1       -0.3025
     33 C           7.2283   -1.1140   24.8122 C.ar    1  UNL1        0.0982
     34 C           7.3058   -0.1326   25.9439 C.ar    1  UNL1        0.1193
     35 N           6.0683   -0.2875   26.7774 N.ar    1  UNL1       -0.2223
     36 C           5.2260   -1.3647   26.1608 C.ar    1  UNL1        0.1788
@<TRIPOS>BOND
     1    22    23    1
     2    23    24    2
     3    23    25   am
     4    25    26    1
     5    26    27    1
     6    27    28    1
     7    28    16    1
     8    16    17   ar
     9    17    18   ar
    10    18    19   ar
    11    19    15    1
    12    15    14    1
    13    14     1    1
    14     1     2    1
    15     2     3    1
    16     3     4    1
    17     4    31    1
    18    31    32    1
    19    32    33   ar
    20    33    34   ar
    21    34    35   ar
    22    35    36   ar
    23     4     6    1
    24     6     7   ar
    25     7     8   ar
    26     8     9   ar
    27     9    10    1
    28     9    11   ar
    29    11    12   ar
    30    12    13    1
    31     4     5    1
    32    19    20   ar
    33    20    21   ar
    34    28    29    1
    35    29    30    1
    36    30    25    1
    37    21    16   ar
    38     5     1    1
    39    36    32   ar
    40    12     6   ar
@<TRIPOS>MOLECULE
*****
 36 40 0 0 0
SMALL
GASTEIGER

@<TRIPOS>ATOM
      1 C          -0.6953    3.1887   20.0436 C.3     1  UNL1        0.1909
      2 C          -0.3518    2.6584   21.4041 C.3     1  UNL1        0.1783
      3 O          -1.3705    3.1779   22.3749 O.3     1  UNL1       -0.3267
      4 C          -2.3435    4.0294   21.6144 C.3     1  UNL1        0.2296
      5 O          -1.9262    4.0360   20.1736 O.3     1  UNL1       -0.3255
      6 C          -2.9925    4.2085   22.9547 C.ar    1  UNL1        0.0409
      7 C          -4.1391    3.3286   23.3564 C.ar    1  UNL1        0.0022
      8 C          -4.7882    3.5078   24.6968 C.ar    1  UNL1        0.0113
      9 C          -4.2908    4.5667   25.6354 C.ar    1  UNL1        0.0585
     10 CL         -4.9399    4.7459   26.9758 Cl      1  UNL1       -0.0822
     11 C          -3.1442    5.4466   25.2338 C.ar    1  UNL1        0.0226
     12 C          -2.4952    5.2675   23.8935 C.ar    1  UNL1        0.0591
     13 CL         -1.3486    6.1473   23.4917 Cl      1  UNL1       -0.0824
     14 C           0.0597    2.9191   18.7758 C.3     1  UNL1        0.2374
     15 O           0.1828    1.5159   18.2602 O.3     1  UNL1       -0.4727
     16 C           3.5468   -1.1152   19.6785 C.ar    1  UNL1        0.0481
     17 C           2.1824   -1.2488   20.2871 C.ar    1  UNL1        0.0176
     18 C           1.0611   -0.3718   19.8144 C.ar    1  UNL1        0.0382
     19 C           1.3041    0.6389   18.7330 C.ar    1  UNL1        0.1388
     20 C           2.6685    0.7724   18.1243 C.ar    1  UNL1        0.0382
     21 C           3.7898   -0.1046   18.5970 C.ar    1  UNL1        0.0176
     22 C           9.3168   -4.6795   20.7975 C.3     1  UNL1        0.0948
     23 C           8.0320   -4.6233   21.5694 C.2     1  UNL1        0.2262
     24 O           7.8684   -5.4442   22.8141 O.2     1  UNL1       -0.2749
     25 N           6.9107   -3.7463   21.0967 N.am    1  UNL1       -0.2760
     26 C           7.0742   -2.9254   19.8520 C.3     1  UNL1        0.1148
     27 C           5.9529   -2.0484   19.3793 C.3     1  UNL1        0.1123
     28 N           4.6681   -1.9922   20.1512 N.pl3   1  UNL1       -0.3041
     29 C           4.5045   -2.8131   21.3959 C.3     1  UNL1        0.1123
     30 C           5.6258   -3.6902   21.8687 C.3     1  UNL1        0.1148
     31 C          -3.4523    4.9183   21.1340 C.3     1  UNL1        0.1682
     32 N          -4.3082    4.4919   19.9784 N.ar    1  UNL1       -0.3025
     33 C          -4.4000    5.1793   18.6484 C.ar    1  UNL1        0.0982
     34 C          -5.3712    4.4155   17.7979 C.ar    1  UNL1        0.1193
     35 N          -5.8796    3.2560   18.6023 N.ar    1  UNL1       -0.2223
     36 C          -5.2226    3.3032   19.9499 C.ar    1  UNL1        0.1788
@<TRIPOS>BOND
     1    22    23    1
     2    23    24    2
     3    23    25   am
     4    25    26    1
     5    26    27    1
     6    27    28    1
     7    28    16    1
     8    16    17   ar
     9    17    18   ar
    10    18    19   ar
    11    19    15    1
    12    15    14    1
    13    14     1    1
    14     1     2    1
    15     2     3    1
    16     3     4    1
    17     4    31    1
    18    31    32    1
    19    32    33   ar
    20    33    34   ar
    21    34    35   ar
    22    35    36   ar
    23     4     6    1
    24     6     7   ar
    25     7     8   ar
    26     8     9   ar
    27     9    10    1
    28     9    11   ar
    29    11    12   ar
    30    12    13    1
    31     4     5    1
    32    19    20   ar
    33    20    21   ar
    34    28    29    1
    35    29    30    1
    36    30    25    1
    37    21    16   ar
    38     5     1    1
    39    36    32   ar
    40    12     6   ar
@<TRIPOS>MOLECULE
*****
 36 40 0 0 0
SMALL
GASTEIGER

@<TRIPOS>ATOM
      1 C           6.5372   -3.7625   30.1155 C.3     1  UNL1        0.1909
      2 C           6.9007   -4.1641   31.5143 C.3     1  UNL1        0.1783
      3 O           6.6672   -2.9844   32.4109 O.3     1  UNL1       -0.3267
      4 C           6.1593   -1.8537   31.5662 C.3     1  UNL1        0.2296
      5 O           6.0789   -2.3345   30.1476 O.3     1  UNL1       -0.3255
      6 C           6.1322   -1.1037   32.8649 C.ar    1  UNL1        0.0409
      7 C           7.1101    0.0072   33.1099 C.ar    1  UNL1        0.0022
      8 C           7.0830    0.7572   34.4087 C.ar    1  UNL1        0.0113
      9 C           6.0782    0.3964   35.4623 C.ar    1  UNL1        0.0585
     10 CL          6.0512    1.1465   36.7611 Cl      1  UNL1       -0.0822
     11 C           5.1004   -0.7144   35.2173 C.ar    1  UNL1        0.0226
     12 C           5.1274   -1.4644   33.9186 C.ar    1  UNL1        0.0591
     13 CL          4.1496   -2.5752   33.6735 Cl      1  UNL1       -0.0824
     14 C           6.6178   -4.6355   28.8984 C.3     1  UNL1        0.2374
     15 O           7.4352   -4.2025   27.7176 O.3     1  UNL1       -0.4727
     16 C           5.4000   -2.5977   24.0390 C.ar    1  UNL1        0.0481
     17 C           5.3242   -1.8377   25.3299 C.ar    1  UNL1        0.0176
     18 C           6.0026   -2.3726   26.5562 C.ar    1  UNL1        0.0382
     19 C           6.7568   -3.6675   26.4914 C.ar    1  UNL1        0.1388
     20 C           6.8326   -4.4275   25.2005 C.ar    1  UNL1        0.0382
     21 C           6.1542   -3.8926   23.9743 C.ar    1  UNL1        0.0176
     22 C           1.3650    0.2419   19.2530 C.3     1  UNL1        0.0948
     23 C           2.6864   -0.4579   19.1341 C.2     1  UNL1        0.2262
     24 O           3.3293   -0.6228   17.7890 O.2     1  UNL1       -0.2749
     25 N           3.3648   -0.9929   20.3603 N.am    1  UNL1       -0.2760
     26 C           2.7218   -0.8280   21.7054 C.3     1  UNL1        0.1148
     27 C           3.4002   -1.3629   22.9317 C.3     1  UNL1        0.1123
     28 N           4.7216   -2.0627   22.8128 N.pl3   1  UNL1       -0.3041
     29 C           5.3646   -2.2276   21.4677 C.3     1  UNL1        0.1123
     30 C           4.6861   -1.6927   20.2415 C.3     1  UNL1        0.1148
     31 C           5.6457   -0.5661   30.9929 C.3     1  UNL1        0.1682
     32 N           4.2862   -0.5158   30.3611 N.ar    1  UNL1       -0.3025
     33 C           3.9921   -0.1901   28.9268 C.ar    1  UNL1        0.0982
     34 C           2.5063   -0.2554   28.7319 C.ar    1  UNL1        0.1193
     35 N           1.8821   -0.6215   30.0458 N.ar    1  UNL1       -0.2223
     36 C           2.9822   -0.7825   31.0527 C.ar    1  UNL1        0.1788
@<TRIPOS>BOND
     1    22    23    1
     2    23    24    2
     3    23    25   am
     4    25    26    1
     5    26    27    1
     6    27    28    1
     7    28    16    1
     8    16    17   ar
     9    17    18   ar
    10    18    19   ar
    11    19    15    1
    12    15    14    1
    13    14     1    1
    14     1     2    1
    15     2     3    1
    16     3     4    1
    17     4    31    1
    18    31    32    1
    19    32    33   ar
    20    33    34   ar
    21    34    35   ar
    22    35    36   ar
    23     4     6    1
    24     6     7   ar
    25     7     8   ar
    26     8     9   ar
    27     9    10    1
    28     9    11   ar
    29    11    12   ar
    30    12    13    1
    31     4     5    1
    32    19    20   ar
    33    20    21   ar
    34    28    29    1
    35    29    30    1
    36    30    25    1
    37    21    16   ar
    38     5     1    1
    39    36    32   ar
    40    12     6   ar
@<TRIPOS>MOLECULE
*****
 36 40 0 0 0
SMALL
GASTEIGER

@<TRIPOS>ATOM
      1 C          -2.0016    3.5579   22.4285 C.3     1  UNL1        0.1909
      2 C          -2.5693    3.3362   23.7991 C.3     1  UNL1        0.1783
      3 O          -3.8993    4.0265   23.8672 O.3     1  UNL1       -0.3267
      4 C          -4.1536    4.6748   22.5386 C.3     1  UNL1        0.2296
      5 O          -2.9807    4.3852   21.6494 O.3     1  UNL1       -0.3255
      6 C          -5.4355    5.1194   23.1779 C.ar    1  UNL1        0.0409
      7 C          -6.6610    4.2601   23.0777 C.ar    1  UNL1        0.0022
      8 C          -7.9430    4.7046   23.7171 C.ar    1  UNL1        0.0113
      9 C          -7.9996    6.0084   24.4567 C.ar    1  UNL1        0.0585
     10 CL         -9.2817    6.4529   25.0960 Cl      1  UNL1       -0.0822
     11 C          -6.7741    6.8677   24.5569 C.ar    1  UNL1        0.0226
     12 C          -5.4922    6.4231   23.9175 C.ar    1  UNL1        0.0591
     13 CL         -4.2668    7.2823   24.0177 Cl      1  UNL1       -0.0824
     14 C          -0.6857    3.0428   21.9252 C.3     1  UNL1        0.2374
     15 O          -0.6319    1.7700   21.1333 O.3     1  UNL1       -0.4727
     16 C           2.9845   -0.8946   21.3997 C.ar    1  UNL1        0.0481
     17 C           2.7197    0.1198   22.4724 C.ar    1  UNL1        0.0176
     18 C           1.5142    1.0080   22.3836 C.ar    1  UNL1        0.0382
     19 C           0.5736    0.8818   21.2221 C.ar    1  UNL1        0.1388
     20 C           0.8384   -0.1326   20.1494 C.ar    1  UNL1        0.0382
     21 C           2.0439   -1.0208   20.2382 C.ar    1  UNL1        0.0176
     22 C           8.9424   -4.2686   20.7917 C.3     1  UNL1        0.0948
     23 C           7.8065   -4.4474   21.7549 C.2     1  UNL1        0.2262
     24 O           7.8761   -5.5144   22.8069 O.2     1  UNL1       -0.2749
     25 N           6.6010   -3.5592   21.6661 N.am    1  UNL1       -0.2760
     26 C           6.5314   -2.4922   20.6141 C.3     1  UNL1        0.1148
     27 C           5.3259   -1.6040   20.5253 C.3     1  UNL1        0.1123
     28 N           4.1900   -1.7828   21.4885 N.pl3   1  UNL1       -0.3041
     29 C           4.2596   -2.8498   22.5405 C.3     1  UNL1        0.1123
     30 C           5.4651   -3.7380   22.6293 C.3     1  UNL1        0.1148
     31 C          -4.6758    5.4161   21.3436 C.3     1  UNL1        0.1682
     32 N          -4.7703    4.7259   20.0152 N.ar    1  UNL1       -0.3025
     33 C          -4.0110    5.0932   18.7749 C.ar    1  UNL1        0.0982
     34 C          -4.4121    4.1415   17.6870 C.ar    1  UNL1        0.1193
     35 N          -5.4193    3.1861   18.2551 N.ar    1  UNL1       -0.2223
     36 C          -5.6406    3.5472   19.6940 C.ar    1  UNL1        0.1788
@<TRIPOS>BOND
     1    22    23    1
     2    23    24    2
     3    23    25   am
     4    25    26    1
     5    26    27    1
     6    27    28    1
     7    28    16    1
     8    16    17   ar
     9    17    18   ar
    10    18    19   ar
    11    19    15    1
    12    15    14    1
    13    14     1    1
    14     1     2    1
    15     2     3    1
    16     3     4    1
    17     4    31    1
    18    31    32    1
    19    32    33   ar
    20    33    34   ar
    21    34    35   ar
    22    35    36   ar
    23     4     6    1
    24     6     7   ar
    25     7     8   ar
    26     8     9   ar
    27     9    10    1
    28     9    11   ar
    29    11    12   ar
    30    12    13    1
    31     4     5    1
    32    19    20   ar
    33    20    21   ar
    34    28    29    1
    35    29    30    1
    36    30    25    1
    37    21    16   ar
    38     5     1    1
    39    36    32   ar
    40    12     6   ar
