@<TRIPOS>MOLECULE
*****
 40 45 0 0 0
SMALL
GASTEIGER

@<TRIPOS>ATOM
      1 N          -8.8537  -17.5070   21.1947 N.3     1  UNL1       -0.2641
      2 C         -10.3349  -17.2754   21.2414 C.3     1  UNL1        0.0981
      3 C         -11.0172  -16.5543   20.1169 C.3     1  UNL1        0.0224
      4 C         -12.4984  -16.3227   20.1636 C.3     1  UNL1        0.0065
      5 C         -13.2975  -16.8123   21.3348 C.3     1  UNL1        0.0277
      6 C         -12.6153  -17.5334   22.4593 C.ar    1  UNL1       -0.0073
      7 C         -13.4144  -18.0230   23.6306 C.ar    1  UNL1       -0.0015
      8 C         -12.7322  -18.7441   24.7551 C.ar    1  UNL1        0.0203
      9 C         -11.2509  -18.9757   24.7084 C.ar    1  UNL1        0.0985
     10 N         -10.4518  -18.4861   23.5372 N.ar    1  UNL1       -0.2471
     11 C         -11.1340  -17.7649   22.4126 C.ar    1  UNL1        0.0695
     12 C          -8.3176  -18.8816   20.9247 C.3     1  UNL1        0.0994
     13 C          -3.9051  -19.6872   21.2869 C.ar    1  UNL1       -0.0064
     14 C          -4.7478  -19.5586   22.5212 C.ar    1  UNL1       -0.0032
     15 C          -6.2186  -19.2901   22.4005 C.ar    1  UNL1       -0.0032
     16 C          -6.8468  -19.1501   21.0455 C.ar    1  UNL1       -0.0062
     17 C          -6.0041  -19.2787   19.8113 C.ar    1  UNL1       -0.0032
     18 C          -4.5332  -19.5472   19.9320 C.ar    1  UNL1       -0.0032
     19 C          -2.4343  -19.9557   21.4076 C.3     1  UNL1        0.0959
     20 N          -1.5396  -18.9481   22.0666 N.3     1  UNL1       -0.2887
     21 H          -1.9803  -18.6972   22.9516 H       1  UNL1        0.1239
     22 C          -1.2134  -17.6627   21.3656 C.3     1  UNL1        0.1154
     23 C          -2.3199  -17.1163   17.0382 C.ar    1  UNL1        0.0207
     24 C          -1.0687  -17.8581   17.4045 C.ar    1  UNL1        0.0028
     25 C          -0.6998  -18.0402   18.8470 C.ar    1  UNL1        0.0161
     26 C          -1.5822  -17.4806   19.9232 C.ar    1  UNL1        0.0750
     27 N          -2.8334  -16.7388   19.5569 N.ar    1  UNL1       -0.2468
     28 C          -3.2023  -16.5566   18.1144 C.ar    1  UNL1        0.0985
     29 C          -7.9084  -16.3639   21.4179 C.3     1  UNL1        0.0888
     30 C          -7.4184  -16.0551   22.8016 C.3     1  UNL1        0.0748
     31 C          -8.4003  -15.8553   23.9178 C.3     1  UNL1        0.0432
     32 C          -7.9102  -15.5465   25.3015 C.ar    1  UNL1       -0.0234
     33 C          -8.8921  -15.3467   26.4177 C.ar    1  UNL1       -0.0045
     34 C          -8.4020  -15.0380   27.8013 C.ar    1  UNL1       -0.0003
     35 C          -6.9301  -14.9290   28.0687 C.ar    1  UNL1       -0.0003
     36 C          -5.9482  -15.1287   26.9525 C.ar    1  UNL1       -0.0032
     37 C          -6.4383  -15.4375   25.5689 C.ar    1  UNL1       -0.0103
     38 C          -5.4564  -15.6373   24.4526 C.3     1  UNL1        0.0953
     39 N          -5.9465  -15.9461   23.0690 N.3     1  UNL1       -0.2934
     40 H          -5.5318  -16.8390   22.8022 H       1  UNL1        0.1236
@<TRIPOS>BOND
     1    23    24   ar
     2    24    25   ar
     3    25    26   ar
     4    26    22    1
     5    22    20    1
     6    20    19    1
     7    19    13    1
     8    13    14   ar
     9    14    15   ar
    10    15    16   ar
    11    16    12    1
    12    12     1    1
    13     1    29    1
    14    30    29    1
    15    30    31    1
    16    31    32    1
    17    32    33   ar
    18    33    34   ar
    19    34    35   ar
    20    35    36   ar
    21    36    37   ar
    22    37    38    1
    23    38    39    1
    24     2     1    1
    25     2     3    1
    26     3     4    1
    27     4     5    1
    28     5     6    1
    29     6     7   ar
    30     7     8   ar
    31     8     9   ar
    32     9    10   ar
    33    10    11   ar
    34    16    17   ar
    35    17    18   ar
    36    26    27   ar
    37    27    28   ar
    38    28    23   ar
    39    18    13   ar
    40    39    30    1
    41    11     2    1
    42    37    32   ar
    43    11     6   ar
    44    20    21    1
    45    39    40    1
@<TRIPOS>MOLECULE
*****
 40 45 0 0 0
SMALL
GASTEIGER

@<TRIPOS>ATOM
      1 N           7.2084   -4.0098   23.5622 N.3     1  UNL1       -0.2641
      2 C           7.6582   -5.2416   24.2905 C.3     1  UNL1        0.0981
      3 C           8.3213   -6.3574   23.5386 C.3     1  UNL1        0.0224
      4 C           8.7711   -7.5891   24.2670 C.3     1  UNL1        0.0065
      5 C           8.5579   -7.7051   25.7472 C.3     1  UNL1        0.0277
      6 C           7.8948   -6.5893   26.4990 C.ar    1  UNL1       -0.0073
      7 C           7.6816   -6.7052   27.9793 C.ar    1  UNL1       -0.0015
      8 C           7.0185   -5.5895   28.7312 C.ar    1  UNL1        0.0203
      9 C           6.5687   -4.3577   28.0029 C.ar    1  UNL1        0.0985
     10 N           6.7819   -4.2417   26.5227 N.ar    1  UNL1       -0.2471
     11 C           7.4450   -5.3576   25.7707 C.ar    1  UNL1        0.0695
     12 C           8.1751   -2.8899   23.3145 C.3     1  UNL1        0.0994
     13 C           7.8945   -0.4709   19.5304 C.ar    1  UNL1       -0.0064
     14 C           8.4247   -1.8735   19.4864 C.ar    1  UNL1       -0.0032
     15 C           8.5182   -2.6798   20.7478 C.ar    1  UNL1       -0.0032
     16 C           8.0815   -2.0836   22.0531 C.ar    1  UNL1       -0.0062
     17 C           7.5514   -0.6811   22.0971 C.ar    1  UNL1       -0.0032
     18 C           7.4579    0.1252   20.8357 C.ar    1  UNL1       -0.0032
     19 C           7.8010    0.3354   18.2690 C.3     1  UNL1        0.0959
     20 N           6.9605   -0.1537   17.1268 N.3     1  UNL1       -0.2887
     21 H           7.1290    0.4795   16.3450 H       1  UNL1        0.1239
     22 C           5.4726   -0.2623   17.2832 C.3     1  UNL1        0.1154
     23 C           3.6810   -3.8486   19.3273 C.ar    1  UNL1        0.0207
     24 C           3.0131   -2.5101   19.4391 C.ar    1  UNL1        0.0028
     25 C           3.6103   -1.3147   18.7577 C.ar    1  UNL1        0.0161
     26 C           4.8754   -1.4577   17.9646 C.ar    1  UNL1        0.0750
     27 N           5.5433   -2.7961   17.8528 N.ar    1  UNL1       -0.2468
     28 C           4.9461   -3.9916   18.5342 C.ar    1  UNL1        0.0985
     29 C           5.7920   -3.8980   23.0815 C.3     1  UNL1        0.0888
     30 C           4.9181   -2.7833   23.5755 C.3     1  UNL1        0.0748
     31 C           4.0861   -1.9968   22.6064 C.3     1  UNL1        0.0432
     32 C           3.2123   -0.8821   23.1004 C.ar    1  UNL1       -0.0234
     33 C           2.3803   -0.0956   22.1314 C.ar    1  UNL1       -0.0045
     34 C           1.5065    1.0190   22.6254 C.ar    1  UNL1       -0.0003
     35 C           1.4647    1.3471   24.0885 C.ar    1  UNL1       -0.0003
     36 C           2.2966    0.5605   25.0576 C.ar    1  UNL1       -0.0032
     37 C           3.1704   -0.5541   24.5635 C.ar    1  UNL1       -0.0103
     38 C           4.0025   -1.3407   25.5326 C.3     1  UNL1        0.0953
     39 N           4.8763   -2.4553   25.0386 N.3     1  UNL1       -0.2934
     40 H           4.5752   -3.3017   25.5217 H       1  UNL1        0.1236
@<TRIPOS>BOND
     1    23    24   ar
     2    24    25   ar
     3    25    26   ar
     4    26    22    1
     5    22    20    1
     6    20    19    1
     7    19    13    1
     8    13    14   ar
     9    14    15   ar
    10    15    16   ar
    11    16    12    1
    12    12     1    1
    13     1    29    1
    14    30    29    1
    15    30    31    1
    16    31    32    1
    17    32    33   ar
    18    33    34   ar
    19    34    35   ar
    20    35    36   ar
    21    36    37   ar
    22    37    38    1
    23    38    39    1
    24     2     1    1
    25     2     3    1
    26     3     4    1
    27     4     5    1
    28     5     6    1
    29     6     7   ar
    30     7     8   ar
    31     8     9   ar
    32     9    10   ar
    33    10    11   ar
    34    16    17   ar
    35    17    18   ar
    36    26    27   ar
    37    27    28   ar
    38    28    23   ar
    39    18    13   ar
    40    39    30    1
    41    11     2    1
    42    37    32   ar
    43    11     6   ar
    44    20    21    1
    45    39    40    1
@<TRIPOS>MOLECULE
*****
 40 45 0 0 0
SMALL
GASTEIGER

@<TRIPOS>ATOM
      1 N           0.0170    2.3188   20.4247 N.3     1  UNL1       -0.2641
      2 C          -0.7218    3.1522   19.4199 C.3     1  UNL1        0.0981
      3 C           0.0025    3.7108   18.2311 C.3     1  UNL1        0.0224
      4 C          -0.7364    4.5442   17.2262 C.3     1  UNL1        0.0065
      5 C          -2.1994    4.8188   17.4102 C.3     1  UNL1        0.0277
      6 C          -2.9237    4.2602   18.5990 C.ar    1  UNL1       -0.0073
      7 C          -4.3869    4.5348   18.7830 C.ar    1  UNL1       -0.0015
      8 C          -5.1111    3.9762   19.9718 C.ar    1  UNL1        0.0203
      9 C          -4.3723    3.1428   20.9766 C.ar    1  UNL1        0.0985
     10 N          -2.9092    2.8682   20.7927 N.ar    1  UNL1       -0.2471
     11 C          -2.1849    3.4268   19.6038 C.ar    1  UNL1        0.0695
     12 C           0.6976    2.9759   21.5888 C.3     1  UNL1        0.0994
     13 C          -0.3661    1.7687   25.7913 C.ar    1  UNL1       -0.0064
     14 C          -1.1413    2.8532   25.1035 C.ar    1  UNL1       -0.0032
     15 C          -0.7868    3.2556   23.7027 C.ar    1  UNL1       -0.0032
     16 C           0.3430    2.5735   22.9896 C.ar    1  UNL1       -0.0062
     17 C           1.1182    1.4891   23.6774 C.ar    1  UNL1       -0.0032
     18 C           0.7636    1.0867   25.0783 C.ar    1  UNL1       -0.0032
     19 C          -0.7207    1.3663   27.1922 C.3     1  UNL1        0.0959
     20 N          -0.3460    0.0051   27.6991 N.3     1  UNL1       -0.2887
     21 H          -1.1844   -0.5727   27.6382 H       1  UNL1        0.1239
     22 C           0.1906   -0.1555   29.0905 C.3     1  UNL1        0.1154
     23 C           4.5911   -0.8359   29.7405 C.ar    1  UNL1        0.0207
     24 C           4.0491   -0.7115   28.3474 C.ar    1  UNL1        0.0028
     25 C           2.5823   -0.4847   28.1307 C.ar    1  UNL1        0.0161
     26 C           1.6574   -0.3823   29.3072 C.ar    1  UNL1        0.0750
     27 N           2.1993   -0.5067   30.7003 N.ar    1  UNL1       -0.2468
     28 C           3.6662   -0.7335   30.9170 C.ar    1  UNL1        0.0985
     29 C           0.0753    0.8285   20.2655 C.3     1  UNL1        0.0888
     30 C           1.2808    0.1871   19.6447 C.3     1  UNL1        0.0748
     31 C           1.9168   -1.0040   20.2980 C.3     1  UNL1        0.0432
     32 C           3.1223   -1.6454   19.6772 C.ar    1  UNL1       -0.0234
     33 C           3.7582   -2.8365   20.3306 C.ar    1  UNL1       -0.0045
     34 C           4.9637   -3.4779   19.7098 C.ar    1  UNL1       -0.0003
     35 C           5.5333   -2.9281   18.4357 C.ar    1  UNL1       -0.0003
     36 C           4.8974   -1.7371   17.7823 C.ar    1  UNL1       -0.0032
     37 C           3.6919   -1.0957   18.4031 C.ar    1  UNL1       -0.0103
     38 C           3.0559    0.0954   17.7498 C.3     1  UNL1        0.0953
     39 N           1.8504    0.7368   18.3706 N.3     1  UNL1       -0.2934
     40 H           1.1056    0.6990   17.6747 H       1  UNL1        0.1236
@<TRIPOS>BOND
     1    23    24   ar
     2    24    25   ar
     3    25    26   ar
     4    26    22    1
     5    22    20    1
     6    20    19    1
     7    19    13    1
     8    13    14   ar
     9    14    15   ar
    10    15    16   ar
    11    16    12    1
    12    12     1    1
    13     1    29    1
    14    30    29    1
    15    30    31    1
    16    31    32    1
    17    32    33   ar
    18    33    34   ar
    19    34    35   ar
    20    35    36   ar
    21    36    37   ar
    22    37    38    1
    23    38    39    1
    24     2     1    1
    25     2     3    1
    26     3     4    1
    27     4     5    1
    28     5     6    1
    29     6     7   ar
    30     7     8   ar
    31     8     9   ar
    32     9    10   ar
    33    10    11   ar
    34    16    17   ar
    35    17    18   ar
    36    26    27   ar
    37    27    28   ar
    38    28    23   ar
    39    18    13   ar
    40    39    30    1
    41    11     2    1
    42    37    32   ar
    43    11     6   ar
    44    20    21    1
    45    39    40    1
@<TRIPOS>MOLECULE
*****
 40 45 0 0 0
SMALL
GASTEIGER

@<TRIPOS>ATOM
      1 N           7.0424   -4.0905   23.1145 N.3     1  UNL1       -0.2641
      2 C           7.6813   -5.2653   23.7941 C.3     1  UNL1        0.0981
      3 C           8.4599   -6.2643   22.9906 C.3     1  UNL1        0.0224
      4 C           9.0987   -7.4390   23.6702 C.3     1  UNL1        0.0065
      5 C           8.9589   -7.6148   25.1533 C.3     1  UNL1        0.0277
      6 C           8.1802   -6.6158   25.9567 C.ar    1  UNL1       -0.0073
      7 C           8.0404   -6.7915   27.4399 C.ar    1  UNL1       -0.0015
      8 C           7.2617   -5.7925   28.2433 C.ar    1  UNL1        0.0203
      9 C           6.6229   -4.6177   27.5638 C.ar    1  UNL1        0.0985
     10 N           6.7627   -4.4420   26.0807 N.ar    1  UNL1       -0.2471
     11 C           7.5414   -5.4410   25.2771 C.ar    1  UNL1        0.0695
     12 C           7.8855   -2.9335   22.6667 C.3     1  UNL1        0.0994
     13 C           6.9570   -0.8391   18.7935 C.ar    1  UNL1       -0.0064
     14 C           7.3503   -2.2867   18.7878 C.ar    1  UNL1       -0.0032
     15 C           7.6598   -2.9848   20.0789 C.ar    1  UNL1       -0.0032
     16 C           7.5760   -2.2354   21.3756 C.ar    1  UNL1       -0.0062
     17 C           7.1827   -0.7879   21.3812 C.ar    1  UNL1       -0.0032
     18 C           6.8732   -0.0898   20.0901 C.ar    1  UNL1       -0.0032
     19 C           6.6475   -0.1410   17.5024 C.3     1  UNL1        0.0959
     20 N           5.2985   -0.3033   16.8667 N.3     1  UNL1       -0.2887
     21 H           5.1188    0.5489   16.3357 H       1  UNL1        0.1239
     22 C           4.0902   -0.5433   17.7224 C.3     1  UNL1        0.1154
     23 C           1.4591    2.9059   18.9184 C.ar    1  UNL1        0.0207
     24 C           0.8446    1.5965   18.5209 C.ar    1  UNL1        0.0028
     25 C           1.7217    0.4468   18.1222 C.ar    1  UNL1        0.0161
     26 C           3.2131    0.6064   18.1210 C.ar    1  UNL1        0.0750
     27 N           3.8276    1.9158   18.5185 N.ar    1  UNL1       -0.2468
     28 C           2.9506    3.0656   18.9172 C.ar    1  UNL1        0.0985
     29 C           5.5606   -4.0727   22.8828 C.3     1  UNL1        0.0888
     30 C           4.7480   -2.8883   23.3152 C.3     1  UNL1        0.0748
     31 C           3.9392   -2.1257   22.3082 C.3     1  UNL1        0.0432
     32 C           3.1265   -0.9413   22.7407 C.ar    1  UNL1       -0.0234
     33 C           2.3178   -0.1786   21.7336 C.ar    1  UNL1       -0.0045
     34 C           1.5052    1.0057   22.1661 C.ar    1  UNL1       -0.0003
     35 C           1.5014    1.4273   23.6056 C.ar    1  UNL1       -0.0003
     36 C           2.3102    0.6647   24.6127 C.ar    1  UNL1       -0.0032
     37 C           3.1228   -0.5197   24.1802 C.ar    1  UNL1       -0.0103
     38 C           3.9316   -1.2824   25.1872 C.3     1  UNL1        0.0953
     39 N           4.7442   -2.4667   24.7547 N.3     1  UNL1       -0.2934
     40 H           4.4110   -3.2654   25.2946 H       1  UNL1        0.1236
@<TRIPOS>BOND
     1    23    24   ar
     2    24    25   ar
     3    25    26   ar
     4    26    22    1
     5    22    20    1
     6    20    19    1
     7    19    13    1
     8    13    14   ar
     9    14    15   ar
    10    15    16   ar
    11    16    12    1
    12    12     1    1
    13     1    29    1
    14    30    29    1
    15    30    31    1
    16    31    32    1
    17    32    33   ar
    18    33    34   ar
    19    34    35   ar
    20    35    36   ar
    21    36    37   ar
    22    37    38    1
    23    38    39    1
    24     2     1    1
    25     2     3    1
    26     3     4    1
    27     4     5    1
    28     5     6    1
    29     6     7   ar
    30     7     8   ar
    31     8     9   ar
    32     9    10   ar
    33    10    11   ar
    34    16    17   ar
    35    17    18   ar
    36    26    27   ar
    37    27    28   ar
    38    28    23   ar
    39    18    13   ar
    40    39    30    1
    41    11     2    1
    42    37    32   ar
    43    11     6   ar
    44    20    21    1
    45    39    40    1
@<TRIPOS>MOLECULE
*****
 40 45 0 0 0
SMALL
GASTEIGER

@<TRIPOS>ATOM
      1 N          -0.3328    2.4345   20.4843 N.3     1  UNL1       -0.2641
      2 C          -1.1438    3.1965   19.4785 C.3     1  UNL1        0.0981
      3 C          -0.4937    3.7193   18.2319 C.3     1  UNL1        0.0224
      4 C          -1.3048    4.4813   17.2261 C.3     1  UNL1        0.0065
      5 C          -2.7658    4.7205   17.4669 C.3     1  UNL1        0.0277
      6 C          -3.4159    4.1977   18.7135 C.ar    1  UNL1       -0.0073
      7 C          -4.8770    4.4369   18.9544 C.ar    1  UNL1       -0.0015
      8 C          -5.5270    3.9141   20.2010 C.ar    1  UNL1        0.0203
      9 C          -4.7160    3.1521   21.2068 C.ar    1  UNL1        0.0985
     10 N          -3.2550    2.9129   20.9660 N.ar    1  UNL1       -0.2471
     11 C          -2.6048    3.4357   19.7193 C.ar    1  UNL1        0.0695
     12 C          -0.2019    0.9447   20.3686 C.3     1  UNL1        0.0994
     13 C           3.6362   -0.8676   18.8737 C.ar    1  UNL1       -0.0064
     14 C           2.8258    0.0194   17.9755 C.ar    1  UNL1       -0.0032
     15 C           1.5464    0.6235   18.4738 C.ar    1  UNL1       -0.0032
     16 C           1.0774    0.3406   19.8703 C.ar    1  UNL1       -0.0062
     17 C           1.8878   -0.5463   20.7684 C.ar    1  UNL1       -0.0032
     18 C           3.1671   -1.1504   20.2701 C.ar    1  UNL1       -0.0032
     19 C           4.9155   -1.4717   18.3755 C.3     1  UNL1        0.0959
     20 N           4.9133   -2.8497   17.7827 N.3     1  UNL1       -0.2887
     21 H           4.0496   -2.9386   17.2475 H       1  UNL1        0.1239
     22 C           4.9941   -4.0510   18.6773 C.3     1  UNL1        0.1154
     23 C           6.5156   -3.6209   22.8904 C.ar    1  UNL1        0.0207
     24 C           7.4562   -3.4593   21.7331 C.ar    1  UNL1        0.0028
     25 C           6.9490   -3.6027   20.3287 C.ar    1  UNL1        0.0161
     26 C           5.5013   -3.9077   20.0816 C.ar    1  UNL1        0.0750
     27 N           4.5607   -4.0692   21.2388 N.ar    1  UNL1       -0.2468
     28 C           5.0679   -3.9259   22.6432 C.ar    1  UNL1        0.0985
     29 C           0.3474    3.1622   21.6057 C.3     1  UNL1        0.0888
     30 C          -0.0752    2.9174   23.0240 C.3     1  UNL1        0.0748
     31 C           0.8218    2.1539   23.9527 C.3     1  UNL1        0.0432
     32 C           0.3992    1.9091   25.3710 C.ar    1  UNL1       -0.0234
     33 C           1.2962    1.1455   26.2997 C.ar    1  UNL1       -0.0045
     34 C           0.8736    0.9008   27.7179 C.ar    1  UNL1       -0.0003
     35 C          -0.4459    1.4196   28.2075 C.ar    1  UNL1       -0.0003
     36 C          -1.3429    2.1831   27.2789 C.ar    1  UNL1       -0.0032
     37 C          -0.9203    2.4279   25.8606 C.ar    1  UNL1       -0.0103
     38 C          -1.8173    3.1915   24.9319 C.3     1  UNL1        0.0953
     39 N          -1.3947    3.4362   23.5137 N.3     1  UNL1       -0.2934
     40 H          -1.3811    4.4474   23.3808 H       1  UNL1        0.1236
@<TRIPOS>BOND
     1    23    24   ar
     2    24    25   ar
     3    25    26   ar
     4    26    22    1
     5    22    20    1
     6    20    19    1
     7    19    13    1
     8    13    14   ar
     9    14    15   ar
    10    15    16   ar
    11    16    12    1
    12    12     1    1
    13     1    29    1
    14    30    29    1
    15    30    31    1
    16    31    32    1
    17    32    33   ar
    18    33    34   ar
    19    34    35   ar
    20    35    36   ar
    21    36    37   ar
    22    37    38    1
    23    38    39    1
    24     2     1    1
    25     2     3    1
    26     3     4    1
    27     4     5    1
    28     5     6    1
    29     6     7   ar
    30     7     8   ar
    31     8     9   ar
    32     9    10   ar
    33    10    11   ar
    34    16    17   ar
    35    17    18   ar
    36    26    27   ar
    37    27    28   ar
    38    28    23   ar
    39    18    13   ar
    40    39    30    1
    41    11     2    1
    42    37    32   ar
    43    11     6   ar
    44    20    21    1
    45    39    40    1
@<TRIPOS>MOLECULE
*****
 40 45 0 0 0
SMALL
GASTEIGER

@<TRIPOS>ATOM
      1 N         -10.4339  -16.9868   21.2475 N.3     1  UNL1       -0.2641
      2 C         -11.3501  -17.5197   22.3088 C.3     1  UNL1        0.0981
      3 C         -12.7315  -16.9549   22.4599 C.3     1  UNL1        0.0224
      4 C         -13.6477  -17.4878   23.5212 C.3     1  UNL1        0.0065
      5 C         -13.1826  -18.5855   24.4316 C.3     1  UNL1        0.0277
      6 C         -11.8013  -19.1503   24.2806 C.ar    1  UNL1       -0.0073
      7 C         -11.3361  -20.2480   25.1909 C.ar    1  UNL1       -0.0015
      8 C          -9.9548  -20.8128   25.0399 C.ar    1  UNL1        0.0203
      9 C          -9.0385  -20.2799   23.9785 C.ar    1  UNL1        0.0985
     10 N          -9.5036  -19.1822   23.0682 N.ar    1  UNL1       -0.2471
     11 C         -10.8850  -18.6174   23.2192 C.ar    1  UNL1        0.0695
     12 C         -10.2078  -17.7710   19.9890 C.3     1  UNL1        0.0994
     13 C          -6.7541  -20.6431   19.7173 C.ar    1  UNL1       -0.0064
     14 C          -7.9605  -20.8362   18.8470 C.ar    1  UNL1       -0.0032
     15 C          -9.1117  -19.8789   18.9375 C.ar    1  UNL1       -0.0032
     16 C          -9.0566  -18.7284   19.8984 C.ar    1  UNL1       -0.0062
     17 C          -7.8503  -18.5352   20.7688 C.ar    1  UNL1       -0.0032
     18 C          -6.6991  -19.4926   20.6782 C.ar    1  UNL1       -0.0032
     19 C          -5.6029  -21.6004   19.6268 C.3     1  UNL1        0.0959
     20 N          -4.2430  -21.1854   20.1049 N.3     1  UNL1       -0.2887
     21 H          -4.3244  -21.0075   21.1059 H       1  UNL1        0.1239
     22 C          -3.5709  -19.9861   19.5051 C.3     1  UNL1        0.1154
     23 C          -2.2033  -16.6143   22.1529 C.ar    1  UNL1        0.0207
     24 C          -3.0248  -17.7314   22.7251 C.ar    1  UNL1        0.0028
     25 C          -3.4806  -18.8553   21.8425 C.ar    1  UNL1        0.0161
     26 C          -3.1150  -18.8622   20.3877 C.ar    1  UNL1        0.0750
     27 N          -2.2937  -17.7451   19.8156 N.ar    1  UNL1       -0.2468
     28 C          -1.8378  -16.6211   20.6982 C.ar    1  UNL1        0.0985
     29 C          -9.7437  -15.6697   21.4446 C.3     1  UNL1        0.0888
     30 C          -8.7505  -15.5024   22.5562 C.3     1  UNL1        0.0748
     31 C          -9.1729  -15.7213   23.9787 C.3     1  UNL1        0.0432
     32 C          -8.1797  -15.5539   25.0903 C.ar    1  UNL1       -0.0234
     33 C          -8.6021  -15.7728   26.5128 C.ar    1  UNL1       -0.0045
     34 C          -7.6089  -15.6054   27.6243 C.ar    1  UNL1       -0.0003
     35 C          -6.1933  -15.2192   27.3133 C.ar    1  UNL1       -0.0003
     36 C          -5.7708  -15.0003   25.8908 C.ar    1  UNL1       -0.0032
     37 C          -6.7640  -15.1677   24.7793 C.ar    1  UNL1       -0.0103
     38 C          -6.3416  -14.9488   23.3567 C.3     1  UNL1        0.0953
     39 N          -7.3348  -15.1161   22.2452 N.3     1  UNL1       -0.2934
     40 H          -6.9632  -15.8348   21.6240 H       1  UNL1        0.1236
@<TRIPOS>BOND
     1    23    24   ar
     2    24    25   ar
     3    25    26   ar
     4    26    22    1
     5    22    20    1
     6    20    19    1
     7    19    13    1
     8    13    14   ar
     9    14    15   ar
    10    15    16   ar
    11    16    12    1
    12    12     1    1
    13     1    29    1
    14    30    29    1
    15    30    31    1
    16    31    32    1
    17    32    33   ar
    18    33    34   ar
    19    34    35   ar
    20    35    36   ar
    21    36    37   ar
    22    37    38    1
    23    38    39    1
    24     2     1    1
    25     2     3    1
    26     3     4    1
    27     4     5    1
    28     5     6    1
    29     6     7   ar
    30     7     8   ar
    31     8     9   ar
    32     9    10   ar
    33    10    11   ar
    34    16    17   ar
    35    17    18   ar
    36    26    27   ar
    37    27    28   ar
    38    28    23   ar
    39    18    13   ar
    40    39    30    1
    41    11     2    1
    42    37    32   ar
    43    11     6   ar
    44    20    21    1
    45    39    40    1
@<TRIPOS>MOLECULE
*****
 40 45 0 0 0
SMALL
GASTEIGER

@<TRIPOS>ATOM
      1 N           6.9543   -3.7758   24.4842 N.3     1  UNL1       -0.2641
      2 C           7.6915   -5.0711   24.3143 C.3     1  UNL1        0.0981
      3 C           8.2566   -5.4424   22.9754 C.3     1  UNL1        0.0224
      4 C           8.9937   -6.7377   22.8055 C.3     1  UNL1        0.0065
      5 C           9.1657   -7.6617   23.9746 C.3     1  UNL1        0.0277
      6 C           8.6006   -7.2903   25.3135 C.ar    1  UNL1       -0.0073
      7 C           8.7726   -8.2143   26.4826 C.ar    1  UNL1       -0.0015
      8 C           8.2075   -7.8429   27.8215 C.ar    1  UNL1        0.0203
      9 C           7.4704   -6.5477   27.9914 C.ar    1  UNL1        0.0985
     10 N           7.2984   -5.6237   26.8223 N.ar    1  UNL1       -0.2471
     11 C           7.8635   -5.9950   25.4833 C.ar    1  UNL1        0.0695
     12 C           5.6320   -3.5709   23.8063 C.3     1  UNL1        0.0994
     13 C           5.4681   -2.8327   19.3703 C.ar    1  UNL1       -0.0064
     14 C           4.5147   -3.8013   20.0052 C.ar    1  UNL1       -0.0032
     15 C           4.5694   -4.0474   21.4839 C.ar    1  UNL1       -0.0032
     16 C           5.5774   -3.3248   22.3277 C.ar    1  UNL1       -0.0062
     17 C           6.5307   -2.3562   21.6928 C.ar    1  UNL1       -0.0032
     18 C           6.4760   -2.1102   20.2141 C.ar    1  UNL1       -0.0032
     19 C           5.4134   -2.5866   17.8917 C.3     1  UNL1        0.0959
     20 N           4.1675   -2.0288   17.2697 N.3     1  UNL1       -0.2887
     21 H           4.2968   -2.0751   16.2590 H       1  UNL1        0.1239
     22 C           3.7330   -0.6286   17.5870 C.3     1  UNL1        0.1154
     23 C           2.8907    0.5553   21.8460 C.ar    1  UNL1        0.0207
     24 C           2.0952   -0.5406   21.2008 C.ar    1  UNL1        0.0028
     25 C           2.3760   -0.9353   19.7812 C.ar    1  UNL1        0.0161
     26 C           3.4523   -0.2340   19.0067 C.ar    1  UNL1        0.0750
     27 N           4.2478    0.8619   19.6518 N.ar    1  UNL1       -0.2468
     28 C           3.9670    1.2565   21.0715 C.ar    1  UNL1        0.0985
     29 C           7.5395   -2.6854   25.3319 C.3     1  UNL1        0.0888
     30 C           6.9118   -2.3417   26.6502 C.3     1  UNL1        0.0748
     31 C           5.5249   -1.7720   26.6947 C.3     1  UNL1        0.0432
     32 C           4.8972   -1.4283   28.0131 C.ar    1  UNL1       -0.0234
     33 C           3.5104   -0.8586   28.0576 C.ar    1  UNL1       -0.0045
     34 C           2.8827   -0.5149   29.3759 C.ar    1  UNL1       -0.0003
     35 C           3.6420   -0.7410   30.6496 C.ar    1  UNL1       -0.0003
     36 C           5.0288   -1.3107   30.6051 C.ar    1  UNL1       -0.0032
     37 C           5.6564   -1.6543   29.2868 C.ar    1  UNL1       -0.0103
     38 C           7.0434   -2.2241   29.2423 C.3     1  UNL1        0.0953
     39 N           7.6710   -2.5678   27.9240 N.3     1  UNL1       -0.2934
     40 H           7.9010   -3.5609   27.9574 H       1  UNL1        0.1236
@<TRIPOS>BOND
     1    23    24   ar
     2    24    25   ar
     3    25    26   ar
     4    26    22    1
     5    22    20    1
     6    20    19    1
     7    19    13    1
     8    13    14   ar
     9    14    15   ar
    10    15    16   ar
    11    16    12    1
    12    12     1    1
    13     1    29    1
    14    30    29    1
    15    30    31    1
    16    31    32    1
    17    32    33   ar
    18    33    34   ar
    19    34    35   ar
    20    35    36   ar
    21    36    37   ar
    22    37    38    1
    23    38    39    1
    24     2     1    1
    25     2     3    1
    26     3     4    1
    27     4     5    1
    28     5     6    1
    29     6     7   ar
    30     7     8   ar
    31     8     9   ar
    32     9    10   ar
    33    10    11   ar
    34    16    17   ar
    35    17    18   ar
    36    26    27   ar
    37    27    28   ar
    38    28    23   ar
    39    18    13   ar
    40    39    30    1
    41    11     2    1
    42    37    32   ar
    43    11     6   ar
    44    20    21    1
    45    39    40    1
@<TRIPOS>MOLECULE
*****
 40 45 0 0 0
SMALL
GASTEIGER

@<TRIPOS>ATOM
      1 N           0.7582    2.0399   22.3592 N.3     1  UNL1       -0.2641
      2 C           1.8208    1.7185   23.3679 C.3     1  UNL1        0.0981
      3 C           3.2602    1.6639   22.9495 C.3     1  UNL1        0.0224
      4 C           4.3228    1.3425   23.9582 C.3     1  UNL1        0.0065
      5 C           3.9461    1.0757   25.3854 C.3     1  UNL1        0.0277
      6 C           2.5067    1.1302   25.8038 C.ar    1  UNL1       -0.0073
      7 C           2.1299    0.8634   27.2310 C.ar    1  UNL1       -0.0015
      8 C           0.6905    0.9180   27.6495 C.ar    1  UNL1        0.0203
      9 C          -0.3721    1.2394   26.6407 C.ar    1  UNL1        0.0985
     10 N           0.0046    1.5063   25.2136 N.ar    1  UNL1       -0.2471
     11 C           1.4441    1.4517   24.7951 C.ar    1  UNL1        0.0695
     12 C           0.3452    1.0094   21.3507 C.3     1  UNL1        0.0994
     13 C           3.3555   -0.6054   18.4215 C.ar    1  UNL1       -0.0064
     14 C           2.7970   -1.4967   19.4910 C.ar    1  UNL1       -0.0032
     15 C           1.7936   -0.9584   20.4674 C.ar    1  UNL1       -0.0032
     16 C           1.3486    0.4711   20.3743 C.ar    1  UNL1       -0.0062
     17 C           1.9071    1.3622   19.3048 C.ar    1  UNL1       -0.0032
     18 C           2.9106    0.8240   18.3284 C.ar    1  UNL1       -0.0032
     19 C           4.3590   -1.1437   17.4451 C.3     1  UNL1        0.0959
     20 N           4.8790   -2.5424   17.5984 N.3     1  UNL1       -0.2887
     21 H           4.1184   -3.0980   17.9898 H       1  UNL1        0.1239
     22 C           6.0878   -2.8043   18.4470 C.3     1  UNL1        0.1154
     23 C           5.7940   -2.5252   22.9287 C.ar    1  UNL1        0.0207
     24 C           6.1971   -1.3230   22.1271 C.ar    1  UNL1        0.0028
     25 C           6.2950   -1.4161   20.6333 C.ar    1  UNL1        0.0161
     26 C           5.9899   -2.7113   19.9409 C.ar    1  UNL1        0.0750
     27 N           5.5869   -3.9134   20.7423 N.ar    1  UNL1       -0.2468
     28 C           5.4889   -3.8204   22.2363 C.ar    1  UNL1        0.0985
     29 C           0.1086    3.3920   22.3591 C.3     1  UNL1        0.0888
     30 C          -1.3849    3.5065   22.2794 C.3     1  UNL1        0.0748
     31 C          -2.1862    3.7467   23.5244 C.3     1  UNL1        0.0432
     32 C          -3.6798    3.8612   23.4447 C.ar    1  UNL1       -0.0234
     33 C          -4.4811    4.1015   24.6897 C.ar    1  UNL1       -0.0045
     34 C          -5.9745    4.2160   24.6099 C.ar    1  UNL1       -0.0003
     35 C          -6.6667    4.0903   23.2851 C.ar    1  UNL1       -0.0003
     36 C          -5.8654    3.8500   22.0401 C.ar    1  UNL1       -0.0032
     37 C          -4.3719    3.7355   22.1199 C.ar    1  UNL1       -0.0103
     38 C          -3.5706    3.4952   20.8748 C.3     1  UNL1        0.0953
     39 N          -2.0771    3.3807   20.9546 N.3     1  UNL1       -0.2934
     40 H          -1.6934    4.1085   20.3516 H       1  UNL1        0.1236
@<TRIPOS>BOND
     1    23    24   ar
     2    24    25   ar
     3    25    26   ar
     4    26    22    1
     5    22    20    1
     6    20    19    1
     7    19    13    1
     8    13    14   ar
     9    14    15   ar
    10    15    16   ar
    11    16    12    1
    12    12     1    1
    13     1    29    1
    14    30    29    1
    15    30    31    1
    16    31    32    1
    17    32    33   ar
    18    33    34   ar
    19    34    35   ar
    20    35    36   ar
    21    36    37   ar
    22    37    38    1
    23    38    39    1
    24     2     1    1
    25     2     3    1
    26     3     4    1
    27     4     5    1
    28     5     6    1
    29     6     7   ar
    30     7     8   ar
    31     8     9   ar
    32     9    10   ar
    33    10    11   ar
    34    16    17   ar
    35    17    18   ar
    36    26    27   ar
    37    27    28   ar
    38    28    23   ar
    39    18    13   ar
    40    39    30    1
    41    11     2    1
    42    37    32   ar
    43    11     6   ar
    44    20    21    1
    45    39    40    1
@<TRIPOS>MOLECULE
*****
 40 45 0 0 0
SMALL
GASTEIGER

@<TRIPOS>ATOM
      1 N          -7.6584  -18.3322   22.5131 N.3     1  UNL1       -0.2641
      2 C          -9.0670  -18.6290   22.9349 C.3     1  UNL1        0.0981
      3 C          -9.3282  -19.6081   24.0408 C.3     1  UNL1        0.0224
      4 C         -10.7367  -19.9050   24.4626 C.3     1  UNL1        0.0065
      5 C         -11.8840  -19.2227   23.7785 C.3     1  UNL1        0.0277
      6 C         -11.6228  -18.2436   22.6725 C.ar    1  UNL1       -0.0073
      7 C         -12.7702  -17.5613   21.9883 C.ar    1  UNL1       -0.0015
      8 C         -12.5090  -16.5822   20.8824 C.ar    1  UNL1        0.0203
      9 C         -11.1005  -16.2854   20.4606 C.ar    1  UNL1        0.0985
     10 N          -9.9531  -16.9676   21.1448 N.ar    1  UNL1       -0.2471
     11 C         -10.2143  -17.9468   22.2508 C.ar    1  UNL1        0.0695
     12 C          -7.1076  -16.9449   22.6617 C.3     1  UNL1        0.0994
     13 C          -6.7303  -15.0994   26.7484 C.ar    1  UNL1       -0.0064
     14 C          -8.0748  -15.5298   26.2411 C.ar    1  UNL1       -0.0032
     15 C          -8.2005  -16.1450   24.8788 C.ar    1  UNL1       -0.0032
     16 C          -6.9819  -16.3298   24.0239 C.ar    1  UNL1       -0.0062
     17 C          -5.6375  -15.8994   24.5313 C.ar    1  UNL1       -0.0032
     18 C          -5.5118  -15.2842   25.8935 C.ar    1  UNL1       -0.0032
     19 C          -6.6046  -14.4842   28.1107 C.3     1  UNL1        0.0959
     20 N          -7.1991  -13.1339   28.3816 N.3     1  UNL1       -0.2887
     21 H          -7.2594  -12.6532   27.4840 H       1  UNL1        0.1239
     22 C          -6.5204  -12.1927   29.3321 C.3     1  UNL1        0.1154
     23 C          -3.6535   -9.0961   27.7694 C.ar    1  UNL1        0.0207
     24 C          -3.4404   -9.6984   29.1265 C.ar    1  UNL1        0.0028
     25 C          -4.3960  -10.7306   29.6474 C.ar    1  UNL1        0.0161
     26 C          -5.5647  -11.1605   28.8112 C.ar    1  UNL1        0.0750
     27 N          -5.7779  -10.5582   27.4541 N.ar    1  UNL1       -0.2468
     28 C          -4.8222   -9.5260   26.9331 C.ar    1  UNL1        0.0985
     29 C          -6.8007  -19.4226   21.9428 C.3     1  UNL1        0.0888
     30 C          -5.3457  -19.1713   21.6780 C.3     1  UNL1        0.0748
     31 C          -4.8918  -18.7679   20.3065 C.3     1  UNL1        0.0432
     32 C          -3.4369  -18.5166   20.0416 C.ar    1  UNL1       -0.0234
     33 C          -2.9830  -18.1132   18.6701 C.ar    1  UNL1       -0.0045
     34 C          -1.5281  -17.8619   18.4053 C.ar    1  UNL1       -0.0003
     35 C          -0.5271  -18.0142   19.5120 C.ar    1  UNL1       -0.0003
     36 C          -0.9810  -18.4176   20.8836 C.ar    1  UNL1       -0.0032
     37 C          -2.4359  -18.6688   21.1484 C.ar    1  UNL1       -0.0103
     38 C          -2.8899  -19.0723   22.5199 C.3     1  UNL1        0.0953
     39 N          -4.3448  -19.3236   22.7847 N.3     1  UNL1       -0.2934
     40 H          -4.6246  -18.6804   23.5253 H       1  UNL1        0.1236
@<TRIPOS>BOND
     1    23    24   ar
     2    24    25   ar
     3    25    26   ar
     4    26    22    1
     5    22    20    1
     6    20    19    1
     7    19    13    1
     8    13    14   ar
     9    14    15   ar
    10    15    16   ar
    11    16    12    1
    12    12     1    1
    13     1    29    1
    14    30    29    1
    15    30    31    1
    16    31    32    1
    17    32    33   ar
    18    33    34   ar
    19    34    35   ar
    20    35    36   ar
    21    36    37   ar
    22    37    38    1
    23    38    39    1
    24     2     1    1
    25     2     3    1
    26     3     4    1
    27     4     5    1
    28     5     6    1
    29     6     7   ar
    30     7     8   ar
    31     8     9   ar
    32     9    10   ar
    33    10    11   ar
    34    16    17   ar
    35    17    18   ar
    36    26    27   ar
    37    27    28   ar
    38    28    23   ar
    39    18    13   ar
    40    39    30    1
    41    11     2    1
    42    37    32   ar
    43    11     6   ar
    44    20    21    1
    45    39    40    1
