@<TRIPOS>MOLECULE
*****
 29 32 0 0 0
SMALL
GASTEIGER

@<TRIPOS>ATOM
      1 C           4.0527    3.3177   18.2343 C.3     1  UNL1        0.0282
      2 C           2.7940    2.7296   18.7999 C.3     1  UNL1        0.1189
      3 C           1.5003    3.4810   18.6915 C.ar    1  UNL1        0.1137
      4 N           1.1597    4.8109   18.0870 N.ar    1  UNL1       -0.1315
      5 N          -0.3094    5.0446   18.2790 N.ar    1  UNL1       -0.0587
      6 N          -0.8768    3.8592   19.0022 N.ar    1  UNL1       -0.1957
      7 C           0.2417    2.8929   19.2571 C.ar    1  UNL1        0.0823
      8 C           0.2768    1.5533   19.9312 C.3     1  UNL1        0.0688
      9 C           1.5705    0.8020   20.0397 C.3     1  UNL1        0.1004
     10 N           2.8290    1.3900   19.4741 N.am    1  UNL1       -0.2719
     11 C           4.1228    0.6386   19.5826 C.2     1  UNL1        0.2501
     12 O           5.3814    1.2267   19.0169 O.2     1  UNL1       -0.2699
     13 C           4.1578   -0.7009   20.2566 C.ar    1  UNL1        0.0641
     14 C           4.0493   -0.7921   21.7499 C.ar    1  UNL1        0.0054
     15 C           4.0844   -2.1317   22.4240 C.ar    1  UNL1        0.0001
     16 C           4.2280   -3.3800   21.6048 C.ar    1  UNL1        0.0047
     17 C           4.3365   -3.2888   20.1115 C.ar    1  UNL1        0.0821
     18 C           4.3014   -1.9492   19.4374 C.ar    1  UNL1        0.0659
     19 CL          4.4099   -1.8581   17.9441 Cl      1  UNL1       -0.0822
     20 C           4.4801   -4.5371   19.2923 C.3     1  UNL1        0.4194
     21 F           4.6236   -5.7855   18.4731 F       1  UNL1       -0.1658
     22 F           5.9580   -4.5354   19.5487 F       1  UNL1       -0.1658
     23 F           3.0021   -4.5389   19.0359 F       1  UNL1       -0.1658
     24 C          -2.3109    3.6730   19.4005 C.ar    1  UNL1        0.1843
     25 C          -2.6531    3.2690   20.8040 C.ar    1  UNL1        0.1376
     26 N          -4.0872    3.0827   21.2024 N.ar    1  UNL1       -0.2375
     27 C          -5.1791    3.3004   20.1973 C.ar    1  UNL1        0.1196
     28 C          -4.8369    3.7044   18.7937 C.ar    1  UNL1        0.1212
     29 N          -3.4029    3.8907   18.3954 N.ar    1  UNL1       -0.2220
@<TRIPOS>BOND
     1     2     1    1
     2     2     3    1
     3     3     4   ar
     4     4     5   ar
     5     5     6   ar
     6     6    24    1
     7    24    25   ar
     8    25    26   ar
     9    26    27   ar
    10    27    28   ar
    11    28    29   ar
    12     6     7   ar
    13     7     8    1
    14     8     9    1
    15     9    10    1
    16    10    11   am
    17    11    12    2
    18    11    13    1
    19    13    14   ar
    20    14    15   ar
    21    15    16   ar
    22    16    17   ar
    23    17    20    1
    24    20    21    1
    25    20    22    1
    26    20    23    1
    27    17    18   ar
    28    18    19    1
    29    10     2    1
    30    18    13   ar
    31     7     3   ar
    32    29    24   ar
@<TRIPOS>MOLECULE
*****
 29 32 0 0 0
SMALL
GASTEIGER

@<TRIPOS>ATOM
      1 C           8.4124   -6.8057   23.4949 C.3     1  UNL1        0.0282
      2 C           7.8451   -5.7624   24.4113 C.3     1  UNL1        0.1189
      3 C           7.8643   -5.9773   25.8957 C.ar    1  UNL1        0.1137
      4 N           8.3721   -7.1088   26.7394 N.ar    1  UNL1       -0.1315
      5 N           8.1187   -6.7646   28.1773 N.ar    1  UNL1       -0.0587
      6 N           7.4543   -5.4205   28.2221 N.ar    1  UNL1       -0.1957
      7 C           7.2971   -4.9340   26.8120 C.ar    1  UNL1        0.0823
      8 C           6.7107   -3.6756   26.2439 C.3     1  UNL1        0.0688
      9 C           6.6915   -3.4607   24.7595 C.3     1  UNL1        0.1004
     10 N           7.2587   -4.5040   23.8432 N.am    1  UNL1       -0.2719
     11 C           7.2395   -4.2890   22.3588 C.2     1  UNL1        0.2501
     12 O           7.8067   -5.3323   21.4425 O.2     1  UNL1       -0.2699
     13 C           6.6531   -3.0306   21.7907 C.ar    1  UNL1        0.0641
     14 C           7.5192   -1.8219   21.5937 C.ar    1  UNL1        0.0054
     15 C           6.9327   -0.5636   21.0256 C.ar    1  UNL1        0.0001
     16 C           5.4803   -0.5140   20.6546 C.ar    1  UNL1        0.0047
     17 C           4.6141   -1.7228   20.8516 C.ar    1  UNL1        0.0821
     18 C           5.2005   -2.9811   21.4197 C.ar    1  UNL1        0.0659
     19 CL          4.3344   -4.1898   21.6166 Cl      1  UNL1       -0.0822
     20 C           3.1616   -1.6732   20.4805 C.3     1  UNL1        0.4194
     21 F           1.7090   -1.6235   20.1094 F       1  UNL1       -0.1658
     22 F           3.5078   -2.0608   19.0734 F       1  UNL1       -0.1658
     23 F           2.8153   -1.2855   21.8876 F       1  UNL1       -0.1658
     24 C           7.0229   -4.6912   29.4598 C.ar    1  UNL1        0.1843
     25 C           6.9713   -5.4108   30.7749 C.ar    1  UNL1        0.1376
     26 N           6.5399   -4.6814   32.0126 N.ar    1  UNL1       -0.2375
     27 C           6.1601   -3.2325   31.9352 C.ar    1  UNL1        0.1196
     28 C           6.2117   -2.5128   30.6201 C.ar    1  UNL1        0.1212
     29 N           6.6431   -3.2421   29.3824 N.ar    1  UNL1       -0.2220
@<TRIPOS>BOND
     1     2     1    1
     2     2     3    1
     3     3     4   ar
     4     4     5   ar
     5     5     6   ar
     6     6    24    1
     7    24    25   ar
     8    25    26   ar
     9    26    27   ar
    10    27    28   ar
    11    28    29   ar
    12     6     7   ar
    13     7     8    1
    14     8     9    1
    15     9    10    1
    16    10    11   am
    17    11    12    2
    18    11    13    1
    19    13    14   ar
    20    14    15   ar
    21    15    16   ar
    22    16    17   ar
    23    17    20    1
    24    20    21    1
    25    20    22    1
    26    20    23    1
    27    17    18   ar
    28    18    19    1
    29    10     2    1
    30    18    13   ar
    31     7     3   ar
    32    29    24   ar
@<TRIPOS>MOLECULE
*****
 29 32 0 0 0
SMALL
GASTEIGER

@<TRIPOS>ATOM
      1 C           3.7932    3.3106   23.4422 C.3     1  UNL1        0.0282
      2 C           3.6908    1.8149   23.3917 C.3     1  UNL1        0.1189
      3 C           4.0191    1.0830   22.1243 C.ar    1  UNL1        0.1137
      4 N           4.4676    1.5626   20.7757 N.ar    1  UNL1       -0.1315
      5 N           4.6423    0.3634   19.8918 N.ar    1  UNL1       -0.0587
      6 N           4.3019   -0.8574   20.6941 N.ar    1  UNL1       -0.1957
      7 C           3.9167   -0.4127   22.0739 C.ar    1  UNL1        0.0823
      8 C           3.4860   -1.1764   23.2910 C.3     1  UNL1        0.0688
      9 C           3.1577   -0.4444   24.5584 C.3     1  UNL1        0.1004
     10 N           3.2601    1.0512   24.6088 N.am    1  UNL1       -0.2719
     11 C           2.9317    1.7832   25.8763 C.2     1  UNL1        0.2501
     12 O           3.0342    3.2788   25.9267 O.2     1  UNL1       -0.2699
     13 C           2.5010    1.0195   27.0934 C.ar    1  UNL1        0.0641
     14 C           3.5162    0.2785   27.9120 C.ar    1  UNL1        0.0054
     15 C           3.0854   -0.4852   29.1292 C.ar    1  UNL1        0.0001
     16 C           1.6396   -0.5079   29.5275 C.ar    1  UNL1        0.0047
     17 C           0.6243    0.2331   28.7088 C.ar    1  UNL1        0.0821
     18 C           1.0550    0.9968   27.4917 C.ar    1  UNL1        0.0659
     19 CL          0.0398    1.7378   26.6730 Cl      1  UNL1       -0.0822
     20 C          -0.8217    0.2104   29.1071 C.3     1  UNL1        0.4194
     21 F          -2.2676    0.1877   29.5055 F       1  UNL1       -0.1658
     22 F          -1.0688   -0.9144   28.1460 F       1  UNL1       -0.1658
     23 F          -0.5745    1.3353   30.0682 F       1  UNL1       -0.1658
     24 C           4.3399   -2.2742   20.2029 C.ar    1  UNL1        0.1843
     25 C           5.5568   -3.1182   20.4413 C.ar    1  UNL1        0.1376
     26 N           5.5949   -4.5351   19.9501 N.ar    1  UNL1       -0.2375
     27 C           4.4161   -5.1078   19.2205 C.ar    1  UNL1        0.1196
     28 C           3.1992   -4.2637   18.9820 C.ar    1  UNL1        0.1212
     29 N           3.1611   -2.8469   19.4732 N.ar    1  UNL1       -0.2220
@<TRIPOS>BOND
     1     2     1    1
     2     2     3    1
     3     3     4   ar
     4     4     5   ar
     5     5     6   ar
     6     6    24    1
     7    24    25   ar
     8    25    26   ar
     9    26    27   ar
    10    27    28   ar
    11    28    29   ar
    12     6     7   ar
    13     7     8    1
    14     8     9    1
    15     9    10    1
    16    10    11   am
    17    11    12    2
    18    11    13    1
    19    13    14   ar
    20    14    15   ar
    21    15    16   ar
    22    16    17   ar
    23    17    20    1
    24    20    21    1
    25    20    22    1
    26    20    23    1
    27    17    18   ar
    28    18    19    1
    29    10     2    1
    30    18    13   ar
    31     7     3   ar
    32    29    24   ar
@<TRIPOS>MOLECULE
*****
 29 32 0 0 0
SMALL
GASTEIGER

@<TRIPOS>ATOM
      1 C           2.7390    1.9525   23.6973 C.3     1  UNL1        0.0282
      2 C           1.8385    1.8425   22.5027 C.3     1  UNL1        0.1189
      3 C           0.5080    2.5353   22.5001 C.ar    1  UNL1        0.1137
      4 N          -0.1803    3.3904   23.5223 N.ar    1  UNL1       -0.1315
      5 N          -1.5062    3.8089   22.9595 N.ar    1  UNL1       -0.0587
      6 N          -1.6374    3.2125   21.5894 N.ar    1  UNL1       -0.1957
      7 C          -0.3925    2.4253   21.3055 C.ar    1  UNL1        0.0823
      8 C           0.0375    1.6226   20.1136 C.3     1  UNL1        0.0688
      9 C           1.3679    0.9298   20.1162 C.3     1  UNL1        0.1004
     10 N           2.2684    1.0398   21.3107 N.am    1  UNL1       -0.2719
     11 C           3.5989    0.3470   21.3133 C.2     1  UNL1        0.2501
     12 O           4.4994    0.4570   22.5079 O.2     1  UNL1       -0.2699
     13 C           4.0288   -0.4558   20.1214 C.ar    1  UNL1        0.0641
     14 C           4.4464    0.2399   18.8597 C.ar    1  UNL1        0.0054
     15 C           4.8763   -0.5630   17.6677 C.ar    1  UNL1        0.0001
     16 C           4.8887   -2.0612   17.7375 C.ar    1  UNL1        0.0047
     17 C           4.4712   -2.7568   18.9992 C.ar    1  UNL1        0.0821
     18 C           4.0412   -1.9541   20.1911 C.ar    1  UNL1        0.0659
     19 CL          3.6237   -2.6497   21.4528 Cl      1  UNL1       -0.0822
     20 C           4.4836   -4.2552   19.0689 C.3     1  UNL1        0.4194
     21 F           4.4960   -5.7535   19.1386 F       1  UNL1       -0.1658
     22 F           5.9288   -4.2246   19.4695 F       1  UNL1       -0.1658
     23 F           3.0384   -4.2858   18.6683 F       1  UNL1       -0.1658
     24 C          -2.8079    3.3747   20.6655 C.ar    1  UNL1        0.1843
     25 C          -2.6029    3.9229   19.2845 C.ar    1  UNL1        0.1376
     26 N          -3.7734    4.0852   18.3605 N.ar    1  UNL1       -0.2375
     27 C          -5.1488    3.6992   18.8177 C.ar    1  UNL1        0.1196
     28 C          -5.3538    3.1510   20.1989 C.ar    1  UNL1        0.1212
     29 N          -4.1834    2.9888   21.1228 N.ar    1  UNL1       -0.2220
@<TRIPOS>BOND
     1     2     1    1
     2     2     3    1
     3     3     4   ar
     4     4     5   ar
     5     5     6   ar
     6     6    24    1
     7    24    25   ar
     8    25    26   ar
     9    26    27   ar
    10    27    28   ar
    11    28    29   ar
    12     6     7   ar
    13     7     8    1
    14     8     9    1
    15     9    10    1
    16    10    11   am
    17    11    12    2
    18    11    13    1
    19    13    14   ar
    20    14    15   ar
    21    15    16   ar
    22    16    17   ar
    23    17    20    1
    24    20    21    1
    25    20    22    1
    26    20    23    1
    27    17    18   ar
    28    18    19    1
    29    10     2    1
    30    18    13   ar
    31     7     3   ar
    32    29    24   ar
@<TRIPOS>MOLECULE
*****
 29 32 0 0 0
SMALL
GASTEIGER

@<TRIPOS>ATOM
      1 C           5.8035   -3.2792   18.7497 C.3     1  UNL1        0.0282
      2 C           5.4391   -2.9795   20.1736 C.3     1  UNL1        0.1189
      3 C           6.1534   -3.6766   21.2933 C.ar    1  UNL1        0.1137
      4 N           7.2505   -4.6994   21.3011 N.ar    1  UNL1       -0.1315
      5 N           7.5642   -5.0317   22.7298 N.ar    1  UNL1       -0.0587
      6 N           6.6608   -4.2144   23.6050 N.ar    1  UNL1       -0.1957
      7 C           5.7889   -3.3768   22.7172 C.ar    1  UNL1        0.0823
      8 C           4.7101   -2.3799   23.0213 C.3     1  UNL1        0.0688
      9 C           3.9959   -1.6828   21.9016 C.3     1  UNL1        0.1004
     10 N           4.3603   -1.9825   20.4778 N.am    1  UNL1       -0.2719
     11 C           3.6459   -1.2854   19.3580 C.2     1  UNL1        0.2501
     12 O           4.0104   -1.5851   17.9342 O.2     1  UNL1       -0.2699
     13 C           2.5672   -0.2885   19.6622 C.ar    1  UNL1        0.0641
     14 C           1.2424   -0.7544   20.1893 C.ar    1  UNL1        0.0054
     15 C           0.1637    0.2426   20.4934 C.ar    1  UNL1        0.0001
     16 C           0.4097    1.7053   20.2704 C.ar    1  UNL1        0.0047
     17 C           1.7345    2.1712   19.7432 C.ar    1  UNL1        0.0821
     18 C           2.8133    1.1743   19.4391 C.ar    1  UNL1        0.0659
     19 CL          4.1380    1.6402   18.9119 Cl      1  UNL1       -0.0822
     20 C           1.9805    3.6340   19.5202 C.3     1  UNL1        0.4194
     21 F           2.2266    5.0968   19.2971 F       1  UNL1       -0.1658
     22 F           1.5250    3.4938   18.0979 F       1  UNL1       -0.1658
     23 F           2.4361    3.7742   20.9424 F       1  UNL1       -0.1658
     24 C           6.6342   -4.2315   25.1047 C.ar    1  UNL1        0.1843
     25 C           6.8671   -5.5156   25.8442 C.ar    1  UNL1        0.1376
     26 N           6.8404   -5.5328   27.3440 N.ar    1  UNL1       -0.2375
     27 C           6.5808   -4.2660   28.1040 C.ar    1  UNL1        0.1196
     28 C           6.3479   -2.9820   27.3644 C.ar    1  UNL1        0.1212
     29 N           6.3745   -2.9647   25.8648 N.ar    1  UNL1       -0.2220
@<TRIPOS>BOND
     1     2     1    1
     2     2     3    1
     3     3     4   ar
     4     4     5   ar
     5     5     6   ar
     6     6    24    1
     7    24    25   ar
     8    25    26   ar
     9    26    27   ar
    10    27    28   ar
    11    28    29   ar
    12     6     7   ar
    13     7     8    1
    14     8     9    1
    15     9    10    1
    16    10    11   am
    17    11    12    2
    18    11    13    1
    19    13    14   ar
    20    14    15   ar
    21    15    16   ar
    22    16    17   ar
    23    17    20    1
    24    20    21    1
    25    20    22    1
    26    20    23    1
    27    17    18   ar
    28    18    19    1
    29    10     2    1
    30    18    13   ar
    31     7     3   ar
    32    29    24   ar
@<TRIPOS>MOLECULE
*****
 29 32 0 0 0
SMALL
GASTEIGER

@<TRIPOS>ATOM
      1 C           7.6346   -4.6162   24.9935 C.3     1  UNL1        0.0282
      2 C           6.5170   -3.6158   24.9740 C.3     1  UNL1        0.1189
      3 C           6.0863   -2.9475   26.2459 C.ar    1  UNL1        0.1137
      4 N           6.5724   -3.0719   27.6595 N.ar    1  UNL1       -0.1315
      5 N           5.7552   -2.1485   28.5135 N.ar    1  UNL1       -0.0587
      6 N           4.7641   -1.4533   27.6278 N.ar    1  UNL1       -0.1957
      7 C           4.9687   -1.9472   26.2263 C.ar    1  UNL1        0.0823
      8 C           4.2818   -1.6152   24.9348 C.3     1  UNL1        0.0688
      9 C           4.7125   -2.2836   23.6629 C.3     1  UNL1        0.1004
     10 N           5.8301   -3.2838   23.6824 N.am    1  UNL1       -0.2719
     11 C           6.2608   -3.9522   22.4104 C.2     1  UNL1        0.2501
     12 O           7.3784   -4.9525   22.4300 O.2     1  UNL1       -0.2699
     13 C           5.5739   -3.6202   21.1190 C.ar    1  UNL1        0.0641
     14 C           4.2891   -4.3038   20.7555 C.ar    1  UNL1        0.0054
     15 C           3.6022   -3.9718   19.4640 C.ar    1  UNL1        0.0001
     16 C           4.2001   -2.9563   18.5360 C.ar    1  UNL1        0.0047
     17 C           5.4849   -2.2727   18.8994 C.ar    1  UNL1        0.0821
     18 C           6.1718   -2.6047   20.1909 C.ar    1  UNL1        0.0659
     19 CL          7.4566   -1.9212   20.5543 Cl      1  UNL1       -0.0822
     20 C           6.0828   -1.2572   17.9714 C.3     1  UNL1        0.4194
     21 F           6.6807   -0.2417   17.0433 F       1  UNL1       -0.1658
     22 F           7.0337   -2.2936   17.4499 F       1  UNL1       -0.1658
     23 F           5.1319   -0.2209   18.4928 F       1  UNL1       -0.1658
     24 C           3.7469   -0.4420   28.0666 C.ar    1  UNL1        0.1843
     25 C           4.0890    1.0184   28.0571 C.ar    1  UNL1        0.1376
     26 N           3.0718    2.0299   28.4959 N.ar    1  UNL1       -0.2375
     27 C           1.7127    1.5808   28.9442 C.ar    1  UNL1        0.1196
     28 C           1.3707    0.1203   28.9536 C.ar    1  UNL1        0.1212
     29 N           2.3877   -0.8911   28.5149 N.ar    1  UNL1       -0.2220
@<TRIPOS>BOND
     1     2     1    1
     2     2     3    1
     3     3     4   ar
     4     4     5   ar
     5     5     6   ar
     6     6    24    1
     7    24    25   ar
     8    25    26   ar
     9    26    27   ar
    10    27    28   ar
    11    28    29   ar
    12     6     7   ar
    13     7     8    1
    14     8     9    1
    15     9    10    1
    16    10    11   am
    17    11    12    2
    18    11    13    1
    19    13    14   ar
    20    14    15   ar
    21    15    16   ar
    22    16    17   ar
    23    17    20    1
    24    20    21    1
    25    20    22    1
    26    20    23    1
    27    17    18   ar
    28    18    19    1
    29    10     2    1
    30    18    13   ar
    31     7     3   ar
    32    29    24   ar
@<TRIPOS>MOLECULE
*****
 29 32 0 0 0
SMALL
GASTEIGER

@<TRIPOS>ATOM
      1 C           2.2468    1.3202   23.9735 C.3     1  UNL1        0.0282
      2 C           1.5383    1.3663   22.6522 C.3     1  UNL1        0.1189
      3 C           0.2731    2.1589   22.5068 C.ar    1  UNL1        0.1137
      4 N          -0.5083    2.9897   23.4810 N.ar    1  UNL1       -0.1315
      5 N          -1.6998    3.5493   22.7617 N.ar    1  UNL1       -0.0587
      6 N          -1.6547    3.0643   21.3430 N.ar    1  UNL1       -0.1957
      7 C          -0.4354    2.2050   21.1854 C.ar    1  UNL1        0.0823
      8 C           0.1214    1.4586   20.0095 C.3     1  UNL1        0.0688
      9 C           1.3865    0.6660   20.1549 C.3     1  UNL1        0.1004
     10 N           2.0950    0.6199   21.4761 N.am    1  UNL1       -0.2719
     11 C           3.3602   -0.1727   21.6215 C.2     1  UNL1        0.2501
     12 O           4.0687   -0.2188   22.9429 O.2     1  UNL1       -0.2699
     13 C           3.9169   -0.9192   20.4456 C.ar    1  UNL1        0.0641
     14 C           3.5925   -2.3715   20.2572 C.ar    1  UNL1        0.0054
     15 C           4.1493   -3.1179   19.0812 C.ar    1  UNL1        0.0001
     16 C           5.0304   -2.4121   18.0937 C.ar    1  UNL1        0.0047
     17 C           5.3548   -0.9597   18.2821 C.ar    1  UNL1        0.0821
     18 C           4.7981   -0.2132   19.4580 C.ar    1  UNL1        0.0659
     19 CL          5.1225    1.2391   19.6463 Cl      1  UNL1       -0.0822
     20 C           6.2359   -0.2538   17.2945 C.3     1  UNL1        0.4194
     21 F           7.1171    0.4521   16.3068 F       1  UNL1       -0.1658
     22 F           7.4303   -0.5399   18.1556 F       1  UNL1       -0.1658
     23 F           5.0415    0.0323   16.4333 F       1  UNL1       -0.1658
     24 C          -2.6535    3.3828   20.2702 C.ar    1  UNL1        0.1843
     25 C          -4.1181    3.1837   20.5261 C.ar    1  UNL1        0.1376
     26 N          -5.1170    3.5022   19.4533 N.ar    1  UNL1       -0.2375
     27 C          -4.6514    4.0197   18.1247 C.ar    1  UNL1        0.1196
     28 C          -3.1867    4.2187   17.8688 C.ar    1  UNL1        0.1212
     29 N          -2.1879    3.9003   18.9415 N.ar    1  UNL1       -0.2220
@<TRIPOS>BOND
     1     2     1    1
     2     2     3    1
     3     3     4   ar
     4     4     5   ar
     5     5     6   ar
     6     6    24    1
     7    24    25   ar
     8    25    26   ar
     9    26    27   ar
    10    27    28   ar
    11    28    29   ar
    12     6     7   ar
    13     7     8    1
    14     8     9    1
    15     9    10    1
    16    10    11   am
    17    11    12    2
    18    11    13    1
    19    13    14   ar
    20    14    15   ar
    21    15    16   ar
    22    16    17   ar
    23    17    20    1
    24    20    21    1
    25    20    22    1
    26    20    23    1
    27    17    18   ar
    28    18    19    1
    29    10     2    1
    30    18    13   ar
    31     7     3   ar
    32    29    24   ar
@<TRIPOS>MOLECULE
*****
 29 32 0 0 0
SMALL
GASTEIGER

@<TRIPOS>ATOM
      1 C           7.0424    1.2731   24.4002 C.3     1  UNL1        0.0282
      2 C           5.5812    0.9389   24.4577 C.3     1  UNL1        0.1189
      3 C           4.8251    1.0992   25.7432 C.ar    1  UNL1        0.1137
      4 N           5.2486    1.5620   27.1057 N.ar    1  UNL1       -0.1315
      5 N           4.0492    1.5139   28.0052 N.ar    1  UNL1       -0.0587
      6 N           2.8844    1.0213   27.1986 N.ar    1  UNL1       -0.1957
      7 C           3.3639    0.7650   25.8006 C.ar    1  UNL1        0.0823
      8 C           2.6588    0.2705   24.5724 C.3     1  UNL1        0.0688
      9 C           3.4149    0.1103   23.2869 C.3     1  UNL1        0.1004
     10 N           4.8760    0.4444   23.2295 N.am    1  UNL1       -0.2719
     11 C           5.6321    0.2841   21.9439 C.2     1  UNL1        0.2501
     12 O           7.0933    0.6183   21.8865 O.2     1  UNL1       -0.2699
     13 C           4.9271   -0.2104   20.7158 C.ar    1  UNL1        0.0641
     14 C           4.1429    0.7446   19.8654 C.ar    1  UNL1        0.0054
     15 C           3.4378    0.2501   18.6372 C.ar    1  UNL1        0.0001
     16 C           3.5169   -1.1993   18.2595 C.ar    1  UNL1        0.0047
     17 C           4.3011   -2.1544   19.1099 C.ar    1  UNL1        0.0821
     18 C           5.0062   -1.6599   20.3380 C.ar    1  UNL1        0.0659
     19 CL          5.7903   -2.6149   21.1883 Cl      1  UNL1       -0.0822
     20 C           4.3802   -3.6039   18.7320 C.3     1  UNL1        0.4194
     21 F           4.4592   -5.0534   18.3542 F       1  UNL1       -0.1658
     22 F           5.6502   -3.3384   17.9794 F       1  UNL1       -0.1658
     23 F           3.1101   -3.8693   19.4847 F       1  UNL1       -0.1658
     24 C           1.4856    0.8203   27.7017 C.ar    1  UNL1        0.1843
     25 C           1.2140   -0.1857   28.7806 C.ar    1  UNL1        0.1376
     26 N          -0.1848   -0.3867   29.2838 N.ar    1  UNL1       -0.2375
     27 C          -1.3118    0.4182   28.7080 C.ar    1  UNL1        0.1196
     28 C          -1.0402    1.4242   27.6290 C.ar    1  UNL1        0.1212
     29 N           0.3585    1.6253   27.1258 N.ar    1  UNL1       -0.2220
@<TRIPOS>BOND
     1     2     1    1
     2     2     3    1
     3     3     4   ar
     4     4     5   ar
     5     5     6   ar
     6     6    24    1
     7    24    25   ar
     8    25    26   ar
     9    26    27   ar
    10    27    28   ar
    11    28    29   ar
    12     6     7   ar
    13     7     8    1
    14     8     9    1
    15     9    10    1
    16    10    11   am
    17    11    12    2
    18    11    13    1
    19    13    14   ar
    20    14    15   ar
    21    15    16   ar
    22    16    17   ar
    23    17    20    1
    24    20    21    1
    25    20    22    1
    26    20    23    1
    27    17    18   ar
    28    18    19    1
    29    10     2    1
    30    18    13   ar
    31     7     3   ar
    32    29    24   ar
@<TRIPOS>MOLECULE
*****
 29 32 0 0 0
SMALL
GASTEIGER

@<TRIPOS>ATOM
      1 C          -1.4304    3.5212   21.2792 C.3     1  UNL1        0.0282
      2 C          -0.6205    2.8961   22.3761 C.3     1  UNL1        0.1189
      3 C          -1.0729    3.0113   23.8016 C.ar    1  UNL1        0.1137
      4 N          -2.2648    3.6744   24.4258 N.ar    1  UNL1       -0.1315
      5 N          -2.1915    3.4590   25.9084 N.ar    1  UNL1       -0.0587
      6 N          -0.9542    2.6629   26.2006 N.ar    1  UNL1       -0.1957
      7 C          -0.2629    2.3862   24.8985 C.ar    1  UNL1        0.0823
      8 C           0.9996    1.6458   24.5698 C.3     1  UNL1        0.0688
      9 C           1.4520    1.5305   23.1444 C.3     1  UNL1        0.1004
     10 N           0.6420    2.1556   22.0476 N.am    1  UNL1       -0.2719
     11 C           1.0945    2.0403   20.6220 C.2     1  UNL1        0.2501
     12 O           0.2845    2.6655   19.5252 O.2     1  UNL1       -0.2699
     13 C           2.3570    1.2999   20.2934 C.ar    1  UNL1        0.0641
     14 C           3.6616    2.0367   20.2220 C.ar    1  UNL1        0.0054
     15 C           4.9241    1.2962   19.8934 C.ar    1  UNL1        0.0001
     16 C           4.8818   -0.1809   19.6361 C.ar    1  UNL1        0.0047
     17 C           3.5771   -0.9177   19.7075 C.ar    1  UNL1        0.0821
     18 C           2.3147   -0.1773   20.0361 C.ar    1  UNL1        0.0659
     19 CL          1.0101   -0.9141   20.1075 Cl      1  UNL1       -0.0822
     20 C           3.5349   -2.3949   19.4502 C.3     1  UNL1        0.4194
     21 F           3.4928   -3.8721   19.1930 F       1  UNL1       -0.1658
     22 F           3.5336   -2.1375   17.9725 F       1  UNL1       -0.1658
     23 F           3.5363   -2.6523   20.9280 F       1  UNL1       -0.1658
     24 C          -0.4899    2.2210   27.5567 C.ar    1  UNL1        0.1843
     25 C          -0.9638    0.9154   28.1231 C.ar    1  UNL1        0.1376
     26 N          -0.4994    0.4735   29.4793 N.ar    1  UNL1       -0.2375
     27 C           0.4388    1.3372   30.2690 C.ar    1  UNL1        0.1196
     28 C           0.9127    2.6428   29.7025 C.ar    1  UNL1        0.1212
     29 N           0.4484    3.0847   28.3464 N.ar    1  UNL1       -0.2220
@<TRIPOS>BOND
     1     2     1    1
     2     2     3    1
     3     3     4   ar
     4     4     5   ar
     5     5     6   ar
     6     6    24    1
     7    24    25   ar
     8    25    26   ar
     9    26    27   ar
    10    27    28   ar
    11    28    29   ar
    12     6     7   ar
    13     7     8    1
    14     8     9    1
    15     9    10    1
    16    10    11   am
    17    11    12    2
    18    11    13    1
    19    13    14   ar
    20    14    15   ar
    21    15    16   ar
    22    16    17   ar
    23    17    20    1
    24    20    21    1
    25    20    22    1
    26    20    23    1
    27    17    18   ar
    28    18    19    1
    29    10     2    1
    30    18    13   ar
    31     7     3   ar
    32    29    24   ar
