@<TRIPOS>MOLECULE
*****
 37 39 0 0 0
SMALL
GASTEIGER

@<TRIPOS>ATOM
      1 C           2.0009    0.6544   20.5197 C.ar    1  UNL1        0.0528
      2 C           0.5864    0.9301   20.9356 C.ar    1  UNL1        0.0167
      3 C          -0.1930    2.0226   20.2656 C.ar    1  UNL1        0.0505
      4 C           0.4422    2.8394   19.1796 C.ar    1  UNL1        0.0170
      5 C           1.8567    2.5637   18.7636 C.ar    1  UNL1        0.0307
      6 C           2.6361    1.4712   19.4337 C.ar    1  UNL1        0.1402
      7 F           4.0507    1.1955   19.0177 F       1  UNL1       -0.2044
      8 C           2.5676    0.4824   22.3549 C.3     1  UNL1        0.0607
      9 C           2.7804   -0.4381   21.1897 C.3     1  UNL1        0.2223
     10 C           2.7224   -0.9791   19.7920 C.3     1  UNL1        0.1959
     11 O           3.3700   -2.2930   19.4688 O.3     1  UNL1       -0.3357
     12 C           4.0756   -3.0658   20.5436 C.3     1  UNL1        0.2740
     13 C           4.8550   -4.1582   21.2136 C.3     1  UNL1        0.0512
     14 C           4.1335   -2.5248   21.9413 C.2     1  UNL1        0.3217
     15 N           4.8391   -3.2976   23.0161 N.pl3   1  UNL1       -0.2480
     16 N           3.4859   -1.2109   22.2645 N.2     1  UNL1       -0.0692
     17 H           5.2641   -4.1599   22.8040 H       1  UNL1        0.2882
     18 H           4.8771   -2.9425   23.9335 H       1  UNL1        0.2882
     19 C           4.2883   -3.9862   19.3784 C.3     1  UNL1        0.4305
     20 F           4.5011   -4.9067   18.2133 F       1  UNL1       -0.1670
     21 F           2.8066   -4.1940   19.2719 F       1  UNL1       -0.1670
     22 F           5.7700   -3.7785   19.4849 F       1  UNL1       -0.1670
     23 N          -1.6076    2.2983   20.6815 N.am    1  UNL1       -0.2791
     24 C          -1.8921    3.3237   21.7388 C.2     1  UNL1        0.2685
     25 O          -0.7621    4.0733   22.3800 O.2     1  UNL1       -0.2681
     26 H          -2.3492    1.8064   20.2607 H       1  UNL1        0.1552
     27 C          -3.3066    3.5994   22.1547 C.ar    1  UNL1        0.1476
     28 N          -4.3602    3.8428   21.1152 N.ar    1  UNL1       -0.2373
     29 C          -5.7748    4.1186   21.5312 C.ar    1  UNL1        0.1093
     30 C          -6.1357    4.1510   22.9867 C.ar    1  UNL1        0.0888
     31 C          -5.0821    3.9076   24.0263 C.ar    1  UNL1        0.0276
     32 C          -3.6676    3.6318   23.6103 C.ar    1  UNL1        0.0646
     33 N          -2.6140    3.3884   24.6499 N.pl3   1  UNL1       -0.3557
     34 H          -2.8509    3.4097   25.6053 H       1  UNL1        0.1424
     35 H          -1.6856    3.2074   24.3769 H       1  UNL1        0.1424
     36 C          -7.5502    4.4267   23.4027 C.1     1  UNL1        0.1020
     37 N          -8.9648    4.7025   23.8187 N.1     1  UNL1       -0.1908
@<TRIPOS>BOND
     1     9     8    1
     2     9     1    1
     3     1     2   ar
     4     2     3   ar
     5     3    23    1
     6    23    24   am
     7    24    25    2
     8    24    27    1
     9    27    28   ar
    10    28    29   ar
    11    29    30   ar
    12    30    36    1
    13    36    37    3
    14    30    31   ar
    15    31    32   ar
    16    32    33    1
    17     3     4   ar
    18     4     5   ar
    19     5     6   ar
    20     6     7    1
    21     9    10    1
    22    10    11    1
    23    11    12    1
    24    12    13    1
    25    12    19    1
    26    19    20    1
    27    19    21    1
    28    19    22    1
    29    12    14    1
    30    14    15    1
    31    14    16    2
    32    16     9    1
    33     6     1   ar
    34    32    27   ar
    35    23    26    1
    36    33    34    1
    37    33    35    1
    38    15    17    1
    39    15    18    1
@<TRIPOS>MOLECULE
*****
 37 39 0 0 0
SMALL
GASTEIGER

@<TRIPOS>ATOM
      1 C           7.1011   -4.0977   23.2381 C.ar    1  UNL1        0.0528
      2 C           6.5307   -3.6421   24.5485 C.ar    1  UNL1        0.0167
      3 C           6.7922   -4.4332   25.7958 C.ar    1  UNL1        0.0505
      4 C           7.6241   -5.6798   25.7327 C.ar    1  UNL1        0.0170
      5 C           8.1944   -6.1354   24.4224 C.ar    1  UNL1        0.0307
      6 C           7.9329   -5.3444   23.1750 C.ar    1  UNL1        0.1402
      7 F           8.5032   -5.8000   21.8646 F       1  UNL1       -0.2044
      8 C           8.0472   -2.5837   22.5093 C.3     1  UNL1        0.0607
      9 C           6.8396   -3.3067   21.9907 C.3     1  UNL1        0.2223
     10 C           5.7228   -4.3044   21.9053 C.3     1  UNL1        0.1959
     11 O           4.7639   -4.2600   20.7527 O.3     1  UNL1       -0.3357
     12 C           4.9218   -3.2178   19.6854 C.3     1  UNL1        0.2740
     13 C           4.6604   -2.4268   18.4381 C.3     1  UNL1        0.0512
     14 C           6.0386   -2.2202   19.7708 C.2     1  UNL1        0.3217
     15 N           6.1966   -1.1780   18.7035 N.pl3   1  UNL1       -0.2480
     16 N           6.9975   -2.2645   20.9234 N.2     1  UNL1       -0.0692
     17 H           5.5672   -1.1488   17.9470 H       1  UNL1        0.2882
     18 H           6.9296   -0.5232   18.7596 H       1  UNL1        0.2882
     19 C           3.7142   -3.9408   19.1668 C.3     1  UNL1        0.4305
     20 F           2.5065   -4.6638   18.6482 F       1  UNL1       -0.1670
     21 F           2.8308   -2.8622   19.7202 F       1  UNL1       -0.1670
     22 F           4.5976   -5.0194   18.6135 F       1  UNL1       -0.1670
     23 N           6.2219   -3.9776   27.1063 N.am    1  UNL1       -0.2791
     24 C           7.1381   -3.5672   28.2208 C.2     1  UNL1        0.2685
     25 O           8.6246   -3.6124   28.0249 O.2     1  UNL1       -0.2681
     26 H           5.2463   -3.9479   27.2348 H       1  UNL1        0.1552
     27 C           6.5679   -3.1116   29.5312 C.ar    1  UNL1        0.1476
     28 N           5.7851   -1.8342   29.6050 N.ar    1  UNL1       -0.2373
     29 C           5.2149   -1.3786   30.9155 C.ar    1  UNL1        0.1093
     30 C           5.4274   -2.2005   32.1521 C.ar    1  UNL1        0.0888
     31 C           6.2101   -3.4779   32.0783 C.ar    1  UNL1        0.0276
     32 C           6.7804   -3.9335   30.7679 C.ar    1  UNL1        0.0646
     33 N           7.5631   -5.2110   30.6942 N.pl3   1  UNL1       -0.3557
     34 H           7.7026   -5.7504   31.5058 H       1  UNL1        0.1424
     35 H           7.9374   -5.5100   29.8341 H       1  UNL1        0.1424
     36 C           4.8571   -1.7449   33.4625 C.1     1  UNL1        0.1020
     37 N           4.2868   -1.2893   34.7730 N.1     1  UNL1       -0.1908
@<TRIPOS>BOND
     1     9     8    1
     2     9     1    1
     3     1     2   ar
     4     2     3   ar
     5     3    23    1
     6    23    24   am
     7    24    25    2
     8    24    27    1
     9    27    28   ar
    10    28    29   ar
    11    29    30   ar
    12    30    36    1
    13    36    37    3
    14    30    31   ar
    15    31    32   ar
    16    32    33    1
    17     3     4   ar
    18     4     5   ar
    19     5     6   ar
    20     6     7    1
    21     9    10    1
    22    10    11    1
    23    11    12    1
    24    12    13    1
    25    12    19    1
    26    19    20    1
    27    19    21    1
    28    19    22    1
    29    12    14    1
    30    14    15    1
    31    14    16    2
    32    16     9    1
    33     6     1   ar
    34    32    27   ar
    35    23    26    1
    36    33    34    1
    37    33    35    1
    38    15    17    1
    39    15    18    1
@<TRIPOS>MOLECULE
*****
 37 39 0 0 0
SMALL
GASTEIGER

@<TRIPOS>ATOM
      1 C           3.1665    0.9952   19.8596 C.ar    1  UNL1        0.0528
      2 C           1.7181    1.2869   19.6011 C.ar    1  UNL1        0.0167
      3 C           1.3285    2.4758   18.7737 C.ar    1  UNL1        0.0505
      4 C           2.3874    3.3731   18.2048 C.ar    1  UNL1        0.0170
      5 C           3.8359    3.0814   18.4634 C.ar    1  UNL1        0.0307
      6 C           4.2254    1.8925   19.2907 C.ar    1  UNL1        0.1402
      7 F           5.6740    1.6007   19.5493 F       1  UNL1       -0.2044
      8 C           3.3855    0.8316   21.7685 C.3     1  UNL1        0.0607
      9 C           3.5561   -0.1938   20.6871 C.3     1  UNL1        0.2223
     10 C           3.5914   -0.8062   19.3183 C.3     1  UNL1        0.1959
     11 O           3.9571   -2.2515   19.1524 O.3     1  UNL1       -0.3357
     12 C           4.2874   -3.0843   20.3555 C.3     1  UNL1        0.2740
     13 C           4.6770   -4.2732   21.1829 C.3     1  UNL1        0.0512
     14 C           4.2521   -2.4719   21.7243 C.2     1  UNL1        0.3217
     15 N           4.5825   -3.3048   22.9273 N.pl3   1  UNL1       -0.2480
     16 N           3.8865   -1.0267   21.8901 N.2     1  UNL1       -0.0692
     17 H           4.8225   -4.2534   22.8185 H       1  UNL1        0.2882
     18 H           4.5593   -2.9028   23.8257 H       1  UNL1        0.2882
     19 C           4.4581   -4.1097   19.2740 C.3     1  UNL1        0.4305
     20 F           4.6287   -5.1350   18.1925 F       1  UNL1       -0.1670
     21 F           3.2173   -4.8104   19.7426 F       1  UNL1       -0.1670
     22 F           5.6988   -3.4090   18.8055 F       1  UNL1       -0.1670
     23 N          -0.1200    2.7675   18.5152 N.am    1  UNL1       -0.2791
     24 C          -0.9448    3.4559   19.5619 C.2     1  UNL1        0.2685
     25 O          -0.3212    3.8526   20.8673 O.2     1  UNL1       -0.2681
     26 H          -0.5293    2.5072   17.6584 H       1  UNL1        0.1552
     27 C          -2.3933    3.7477   19.3034 C.ar    1  UNL1        0.1476
     28 N          -2.8330    4.2213   17.9498 N.ar    1  UNL1       -0.2373
     29 C          -4.2815    4.5130   17.6913 C.ar    1  UNL1        0.1093
     30 C          -5.2903    4.3311   18.7865 C.ar    1  UNL1        0.0888
     31 C          -4.8505    3.8575   20.1401 C.ar    1  UNL1        0.0276
     32 C          -3.4021    3.5658   20.3986 C.ar    1  UNL1        0.0646
     33 N          -2.9624    3.0921   21.7522 N.pl3   1  UNL1       -0.3557
     34 H          -3.6244    2.9728   22.4710 H       1  UNL1        0.1424
     35 H          -2.0117    2.9007   21.9219 H       1  UNL1        0.1424
     36 C          -6.7387    4.6229   18.5280 C.1     1  UNL1        0.1020
     37 N          -8.1872    4.9146   18.2695 N.1     1  UNL1       -0.1908
@<TRIPOS>BOND
     1     9     8    1
     2     9     1    1
     3     1     2   ar
     4     2     3   ar
     5     3    23    1
     6    23    24   am
     7    24    25    2
     8    24    27    1
     9    27    28   ar
    10    28    29   ar
    11    29    30   ar
    12    30    36    1
    13    36    37    3
    14    30    31   ar
    15    31    32   ar
    16    32    33    1
    17     3     4   ar
    18     4     5   ar
    19     5     6   ar
    20     6     7    1
    21     9    10    1
    22    10    11    1
    23    11    12    1
    24    12    13    1
    25    12    19    1
    26    19    20    1
    27    19    21    1
    28    19    22    1
    29    12    14    1
    30    14    15    1
    31    14    16    2
    32    16     9    1
    33     6     1   ar
    34    32    27   ar
    35    23    26    1
    36    33    34    1
    37    33    35    1
    38    15    17    1
    39    15    18    1
@<TRIPOS>MOLECULE
*****
 37 39 0 0 0
SMALL
GASTEIGER

@<TRIPOS>ATOM
      1 C           2.0235    0.6065   20.2272 C.ar    1  UNL1        0.0528
      2 C           1.8719    0.6389   21.7192 C.ar    1  UNL1        0.0167
      3 C           0.7263    1.3815   22.3406 C.ar    1  UNL1        0.0505
      4 C          -0.2677    2.0915   21.4701 C.ar    1  UNL1        0.0170
      5 C          -0.1161    2.0591   19.9782 C.ar    1  UNL1        0.0307
      6 C           1.0295    1.3165   19.3567 C.ar    1  UNL1        0.1402
      7 F           1.1812    1.2840   17.8647 F       1  UNL1       -0.2044
      8 C           3.5622    1.2733   19.2750 C.3     1  UNL1        0.0607
      9 C           3.1692   -0.1361   19.6057 C.3     1  UNL1        0.2223
     10 C           2.3784   -1.2875   20.1523 C.3     1  UNL1        0.1959
     11 O           2.8696   -2.6920   19.9625 O.3     1  UNL1       -0.3357
     12 C           4.1517   -2.9451   19.2261 C.3     1  UNL1        0.2740
     13 C           5.2973   -3.6875   18.6047 C.3     1  UNL1        0.0512
     14 C           4.9425   -1.7936   18.6796 C.2     1  UNL1        0.3217
     15 N           6.2247   -2.0467   17.9432 N.pl3   1  UNL1       -0.2480
     16 N           4.4513   -0.3891   18.8694 N.2     1  UNL1       -0.0692
     17 H           6.5471   -2.9685   17.8187 H       1  UNL1        0.2882
     18 H           6.7437   -1.2909   17.5845 H       1  UNL1        0.2882
     19 C           3.7587   -4.3544   19.5569 C.3     1  UNL1        0.4305
     20 F           3.3658   -5.7638   19.8876 F       1  UNL1       -0.1670
     21 F           2.6470   -4.2801   18.5525 F       1  UNL1       -0.1670
     22 F           4.8704   -4.4286   20.5612 F       1  UNL1       -0.1670
     23 N           0.5747    1.4140   23.8326 N.am    1  UNL1       -0.2791
     24 C           1.7754    1.6362   24.7038 C.2     1  UNL1        0.2685
     25 O           3.1277    1.8259   24.0830 O.2     1  UNL1       -0.2681
     26 H          -0.3129    1.2895   24.2400 H       1  UNL1        0.1552
     27 C           1.6238    1.6687   26.1958 C.ar    1  UNL1        0.1476
     28 N           0.8251    2.7599   26.8449 N.ar    1  UNL1       -0.2373
     29 C           0.6735    2.7924   28.3369 C.ar    1  UNL1        0.1093
     30 C           1.3206    1.7337   29.1797 C.ar    1  UNL1        0.0888
     31 C           2.1193    0.6425   28.5306 C.ar    1  UNL1        0.0276
     32 C           2.2709    0.6100   27.0386 C.ar    1  UNL1        0.0646
     33 N           3.0696   -0.4812   26.3895 N.pl3   1  UNL1       -0.3557
     34 H           3.4943   -1.1761   26.9427 H       1  UNL1        0.1424
     35 H           3.1691   -0.5026   25.4103 H       1  UNL1        0.1424
     36 C           1.1690    1.7662   30.6716 C.1     1  UNL1        0.1020
     37 N           1.0174    1.7987   32.1637 N.1     1  UNL1       -0.1908
@<TRIPOS>BOND
     1     9     8    1
     2     9     1    1
     3     1     2   ar
     4     2     3   ar
     5     3    23    1
     6    23    24   am
     7    24    25    2
     8    24    27    1
     9    27    28   ar
    10    28    29   ar
    11    29    30   ar
    12    30    36    1
    13    36    37    3
    14    30    31   ar
    15    31    32   ar
    16    32    33    1
    17     3     4   ar
    18     4     5   ar
    19     5     6   ar
    20     6     7    1
    21     9    10    1
    22    10    11    1
    23    11    12    1
    24    12    13    1
    25    12    19    1
    26    19    20    1
    27    19    21    1
    28    19    22    1
    29    12    14    1
    30    14    15    1
    31    14    16    2
    32    16     9    1
    33     6     1   ar
    34    32    27   ar
    35    23    26    1
    36    33    34    1
    37    33    35    1
    38    15    17    1
    39    15    18    1
@<TRIPOS>MOLECULE
*****
 37 39 0 0 0
SMALL
GASTEIGER

@<TRIPOS>ATOM
      1 C           4.2190    0.9962   34.1527 C.ar    1  UNL1        0.0528
      2 C           3.5706    1.4381   32.8743 C.ar    1  UNL1        0.0167
      3 C           3.3590    0.4546   31.7617 C.ar    1  UNL1        0.0505
      4 C           3.7958   -0.9708   31.9275 C.ar    1  UNL1        0.0170
      5 C           4.4442   -1.4127   33.2059 C.ar    1  UNL1        0.0307
      6 C           4.6558   -0.4292   34.3184 C.ar    1  UNL1        0.1402
      7 F           5.3042   -0.8710   35.5969 F       1  UNL1       -0.2044
      8 C           5.7563    2.0827   34.5711 C.3     1  UNL1        0.0607
      9 C           4.4305    1.9797   35.2653 C.3     1  UNL1        0.2223
     10 C           3.0314    1.5353   35.5731 C.3     1  UNL1        0.1959
     11 O           2.3042    2.1100   36.7525 O.3     1  UNL1       -0.3357
     12 C           2.9763    3.1293   37.6240 C.3     1  UNL1        0.2740
     13 C           3.1879    4.1128   38.7366 C.3     1  UNL1        0.0512
     14 C           4.3754    3.5738   37.3162 C.2     1  UNL1        0.3217
     15 N           5.0474    4.5930   38.1878 N.pl3   1  UNL1       -0.2480
     16 N           5.1026    2.9990   36.1369 N.2     1  UNL1       -0.0692
     17 H           4.5702    4.9703   38.9618 H       1  UNL1        0.2882
     18 H           5.9658    4.8847   37.9857 H       1  UNL1        0.2882
     19 C           1.6506    3.0264   38.3183 C.3     1  UNL1        0.4305
     20 F           0.3248    2.9235   39.0125 F       1  UNL1       -0.1670
     21 F           1.0887    4.0712   37.4003 F       1  UNL1       -0.1670
     22 F           2.2124    1.9816   39.2362 F       1  UNL1       -0.1670
     23 N           2.7106    0.8964   30.4832 N.am    1  UNL1       -0.2791
     24 C           1.3154    1.4470   30.5012 C.2     1  UNL1        0.2685
     25 O           0.5686    1.5557   31.7976 O.2     1  UNL1       -0.2681
     26 H           3.2007    0.8250   29.6324 H       1  UNL1        0.1552
     27 C           0.6670    1.8888   29.2228 C.ar    1  UNL1        0.1476
     28 N           0.6120    3.3468   28.8746 N.ar    1  UNL1       -0.2373
     29 C          -0.0365    3.7886   27.5961 C.ar    1  UNL1        0.1093
     30 C          -0.6299    2.7724   26.6660 C.ar    1  UNL1        0.0888
     31 C          -0.5749    1.3145   27.0142 C.ar    1  UNL1        0.0276
     32 C           0.0735    0.8726   28.2926 C.ar    1  UNL1        0.0646
     33 N           0.1285   -0.5854   28.6408 N.pl3   1  UNL1       -0.3557
     34 H          -0.2610   -1.2523   28.0303 H       1  UNL1        0.1424
     35 H           0.5541   -0.8753   29.4798 H       1  UNL1        0.1424
     36 C          -1.2784    3.2143   25.3876 C.1     1  UNL1        0.1020
     37 N          -1.9268    3.6561   24.1091 N.1     1  UNL1       -0.1908
@<TRIPOS>BOND
     1     9     8    1
     2     9     1    1
     3     1     2   ar
     4     2     3   ar
     5     3    23    1
     6    23    24   am
     7    24    25    2
     8    24    27    1
     9    27    28   ar
    10    28    29   ar
    11    29    30   ar
    12    30    36    1
    13    36    37    3
    14    30    31   ar
    15    31    32   ar
    16    32    33    1
    17     3     4   ar
    18     4     5   ar
    19     5     6   ar
    20     6     7    1
    21     9    10    1
    22    10    11    1
    23    11    12    1
    24    12    13    1
    25    12    19    1
    26    19    20    1
    27    19    21    1
    28    19    22    1
    29    12    14    1
    30    14    15    1
    31    14    16    2
    32    16     9    1
    33     6     1   ar
    34    32    27   ar
    35    23    26    1
    36    33    34    1
    37    33    35    1
    38    15    17    1
    39    15    18    1
@<TRIPOS>MOLECULE
*****
 37 39 0 0 0
SMALL
GASTEIGER

@<TRIPOS>ATOM
      1 C           2.9808    0.2945   21.8874 C.ar    1  UNL1        0.0528
      2 C           3.1806   -0.1434   23.3080 C.ar    1  UNL1        0.0167
      3 C           2.1960    0.2636   24.3638 C.ar    1  UNL1        0.0505
      4 C           1.0116    1.1086   23.9990 C.ar    1  UNL1        0.0170
      5 C           0.8117    1.5466   22.5784 C.ar    1  UNL1        0.0307
      6 C           1.7963    1.1396   21.5226 C.ar    1  UNL1        0.1402
      7 F           1.5965    1.5776   20.1019 F       1  UNL1       -0.2044
      8 C           4.2930    1.3470   20.9444 C.3     1  UNL1        0.0607
      9 C           3.9654   -0.1125   20.8314 C.3     1  UNL1        0.2223
     10 C           3.2959   -1.4305   21.0852 C.3     1  UNL1        0.1959
     11 O           3.7248   -2.6487   20.3223 O.3     1  UNL1       -0.3357
     12 C           4.8231   -2.5489   19.3056 C.3     1  UNL1        0.2740
     13 C           5.8077   -2.9558   18.2497 C.3     1  UNL1        0.0512
     14 C           5.4926   -1.2308   19.0518 C.2     1  UNL1        0.3217
     15 N           6.5910   -1.1309   18.0351 N.pl3   1  UNL1       -0.2480
     16 N           5.0638   -0.0126   19.8147 N.2     1  UNL1       -0.0692
     17 H           6.8725   -1.9305   17.5344 H       1  UNL1        0.2882
     18 H           7.0305   -0.2658   17.8686 H       1  UNL1        0.2882
     19 C           4.4956   -4.0083   19.1927 C.3     1  UNL1        0.4305
     20 F           4.1680   -5.4678   19.0797 F       1  UNL1       -0.1670
     21 F           3.1179   -3.6618   18.7109 F       1  UNL1       -0.1670
     22 F           5.8732   -4.3547   19.6744 F       1  UNL1       -0.1670
     23 N           2.3958   -0.1744   25.7845 N.am    1  UNL1       -0.2791
     24 C           3.1166    0.7187   26.7504 C.2     1  UNL1        0.2685
     25 O           3.6375    2.0498   26.2955 O.2     1  UNL1       -0.2681
     26 H           2.0539   -1.0481   26.0830 H       1  UNL1        0.1552
     27 C           3.3164    0.2808   28.1710 C.ar    1  UNL1        0.1476
     28 N           2.1477   -0.2003   28.9790 N.ar    1  UNL1       -0.2373
     29 C           2.3476   -0.6383   30.3997 C.ar    1  UNL1        0.1093
     30 C           3.7161   -0.5951   31.0123 C.ar    1  UNL1        0.0888
     31 C           4.8847   -0.1140   30.2044 C.ar    1  UNL1        0.0276
     32 C           4.6849    0.3240   28.7837 C.ar    1  UNL1        0.0646
     33 N           5.8535    0.8051   27.9758 N.pl3   1  UNL1       -0.3557
     34 H           6.7517    0.8334   28.3779 H       1  UNL1        0.1424
     35 H           5.7224    1.0925   27.0433 H       1  UNL1        0.1424
     36 C           3.9159   -1.0330   32.4330 C.1     1  UNL1        0.1020
     37 N           4.1157   -1.4710   33.8537 N.1     1  UNL1       -0.1908
@<TRIPOS>BOND
     1     9     8    1
     2     9     1    1
     3     1     2   ar
     4     2     3   ar
     5     3    23    1
     6    23    24   am
     7    24    25    2
     8    24    27    1
     9    27    28   ar
    10    28    29   ar
    11    29    30   ar
    12    30    36    1
    13    36    37    3
    14    30    31   ar
    15    31    32   ar
    16    32    33    1
    17     3     4   ar
    18     4     5   ar
    19     5     6   ar
    20     6     7    1
    21     9    10    1
    22    10    11    1
    23    11    12    1
    24    12    13    1
    25    12    19    1
    26    19    20    1
    27    19    21    1
    28    19    22    1
    29    12    14    1
    30    14    15    1
    31    14    16    2
    32    16     9    1
    33     6     1   ar
    34    32    27   ar
    35    23    26    1
    36    33    34    1
    37    33    35    1
    38    15    17    1
    39    15    18    1
@<TRIPOS>MOLECULE
*****
 37 39 0 0 0
SMALL
GASTEIGER

@<TRIPOS>ATOM
      1 C           4.1037    1.2133   19.8763 C.ar    1  UNL1        0.0528
      2 C           3.1761    1.6584   20.9678 C.ar    1  UNL1        0.0167
      3 C           2.1887    2.7579   20.7107 C.ar    1  UNL1        0.0505
      4 C           2.1288    3.4121   19.3623 C.ar    1  UNL1        0.0170
      5 C           3.0564    2.9670   18.2708 C.ar    1  UNL1        0.0307
      6 C           4.0439    1.8675   18.5278 C.ar    1  UNL1        0.1402
      7 F           4.9715    1.4223   17.4363 F       1  UNL1       -0.2044
      8 C           5.9447    1.3080   20.4426 C.3     1  UNL1        0.0607
      9 C           5.0913    0.1138   20.1333 C.3     1  UNL1        0.2223
     10 C           3.8949   -0.6985   19.7347 C.3     1  UNL1        0.1959
     11 O           3.9825   -2.1956   19.7005 O.3     1  UNL1       -0.3357
     12 C           5.2664   -2.8803   20.0649 C.3     1  UNL1        0.2740
     13 C           6.2539   -3.9797   20.3219 C.3     1  UNL1        0.0512
     14 C           6.4627   -2.0680   20.4635 C.2     1  UNL1        0.3217
     15 N           7.7466   -2.7527   20.8279 N.pl3   1  UNL1       -0.2480
     16 N           6.3752   -0.5710   20.4977 N.2     1  UNL1       -0.0692
     17 H           7.8041   -3.7353   20.8055 H       1  UNL1        0.2882
     18 H           8.5318   -2.2196   21.0895 H       1  UNL1        0.2882
     19 C           4.4130   -4.0745   19.7556 C.3     1  UNL1        0.4305
     20 F           3.5596   -5.2687   19.4463 F       1  UNL1       -0.1670
     21 F           4.6850   -3.8898   18.2920 F       1  UNL1       -0.1670
     22 F           4.1410   -4.2591   21.2191 F       1  UNL1       -0.1670
     23 N           1.2610    3.2031   21.8022 N.am    1  UNL1       -0.2791
     24 C          -0.0945    2.5750   21.9371 C.2     1  UNL1        0.2685
     25 O          -0.5223    1.5017   20.9805 O.2     1  UNL1       -0.2681
     26 H           1.5418    3.9076   22.4301 H       1  UNL1        0.1552
     27 C          -1.0221    3.0202   23.0285 C.ar    1  UNL1        0.1476
     28 N          -0.5209    3.1374   24.4375 N.ar    1  UNL1       -0.2373
     29 C          -1.4487    3.5826   25.5289 C.ar    1  UNL1        0.1093
     30 C          -2.8775    3.9106   25.2114 C.ar    1  UNL1        0.0888
     31 C          -3.3787    3.7934   23.8025 C.ar    1  UNL1        0.0276
     32 C          -2.4510    3.3482   22.7111 C.ar    1  UNL1        0.0646
     33 N          -2.9522    3.2311   21.3021 N.pl3   1  UNL1       -0.3557
     34 H          -3.8900    3.4463   21.0937 H       1  UNL1        0.1424
     35 H          -2.3433    2.9389   20.5858 H       1  UNL1        0.1424
     36 C          -3.8051    4.3558   26.3028 C.1     1  UNL1        0.1020
     37 N          -4.7329    4.8010   27.3943 N.1     1  UNL1       -0.1908
@<TRIPOS>BOND
     1     9     8    1
     2     9     1    1
     3     1     2   ar
     4     2     3   ar
     5     3    23    1
     6    23    24   am
     7    24    25    2
     8    24    27    1
     9    27    28   ar
    10    28    29   ar
    11    29    30   ar
    12    30    36    1
    13    36    37    3
    14    30    31   ar
    15    31    32   ar
    16    32    33    1
    17     3     4   ar
    18     4     5   ar
    19     5     6   ar
    20     6     7    1
    21     9    10    1
    22    10    11    1
    23    11    12    1
    24    12    13    1
    25    12    19    1
    26    19    20    1
    27    19    21    1
    28    19    22    1
    29    12    14    1
    30    14    15    1
    31    14    16    2
    32    16     9    1
    33     6     1   ar
    34    32    27   ar
    35    23    26    1
    36    33    34    1
    37    33    35    1
    38    15    17    1
    39    15    18    1
@<TRIPOS>MOLECULE
*****
 37 39 0 0 0
SMALL
GASTEIGER

@<TRIPOS>ATOM
      1 C           2.6964    0.4944   21.1704 C.ar    1  UNL1        0.0528
      2 C           2.7530    0.5574   22.6679 C.ar    1  UNL1        0.0167
      3 C           2.5837    1.8720   23.3702 C.ar    1  UNL1        0.0505
      4 C           2.3577    3.1235   22.5748 C.ar    1  UNL1        0.0170
      5 C           2.3011    3.0605   21.0773 C.ar    1  UNL1        0.0307
      6 C           2.4704    1.7460   20.3750 C.ar    1  UNL1        0.1402
      7 F           2.4138    1.6829   18.8774 F       1  UNL1       -0.2044
      8 C           1.3685   -0.7427   20.5184 C.3     1  UNL1        0.0607
      9 C           2.8657   -0.8202   20.4680 C.3     1  UNL1        0.2223
     10 C           4.3040   -0.4412   20.6616 C.3     1  UNL1        0.1959
     11 O           5.3917   -1.3497   20.1703 O.3     1  UNL1       -0.3357
     12 C           5.0411   -2.6374   19.4855 C.3     1  UNL1        0.2740
     13 C           5.2103   -3.9520   18.7832 C.3     1  UNL1        0.0512
     14 C           3.6028   -3.0165   19.2920 C.2     1  UNL1        0.3217
     15 N           3.2521   -4.3042   18.6071 N.pl3   1  UNL1       -0.2480
     16 N           2.5151   -2.1079   19.7832 N.2     1  UNL1       -0.0692
     17 H           3.9660   -4.9006   18.2847 H       1  UNL1        0.2882
     18 H           2.3081   -4.5530   18.4801 H       1  UNL1        0.2882
     19 C           6.5383   -2.7149   19.4351 C.3     1  UNL1        0.4305
     20 F           8.0354   -2.7924   19.3847 F       1  UNL1       -0.1670
     21 F           6.5001   -2.4878   17.9529 F       1  UNL1       -0.1670
     22 F           6.5763   -2.9421   20.9173 F       1  UNL1       -0.1670
     23 N           2.6404    1.9351   24.8678 N.am    1  UNL1       -0.2791
     24 C           1.3783    1.8271   25.6713 C.2     1  UNL1        0.2685
     25 O           0.0596    1.6561   24.9771 O.2     1  UNL1       -0.2681
     26 H           3.5059    2.0473   25.3234 H       1  UNL1        0.1552
     27 C           1.4349    1.8902   27.1689 C.ar    1  UNL1        0.1476
     28 N           2.4518    2.7612   27.8450 N.ar    1  UNL1       -0.2373
     29 C           2.5084    2.8242   29.3426 C.ar    1  UNL1        0.1093
     30 C           1.5480    2.0163   30.1641 C.ar    1  UNL1        0.0888
     31 C           0.5311    1.1452   29.4880 C.ar    1  UNL1        0.0276
     32 C           0.4745    1.0822   27.9904 C.ar    1  UNL1        0.0646
     33 N          -0.5424    0.2111   27.3143 N.pl3   1  UNL1       -0.3557
     34 H          -1.1728   -0.3192   27.8535 H       1  UNL1        0.1424
     35 H          -0.5796    0.1697   26.3314 H       1  UNL1        0.1424
     36 C           1.6046    2.0793   31.6617 C.1     1  UNL1        0.1020
     37 N           1.6612    2.1423   33.1593 N.1     1  UNL1       -0.1908
@<TRIPOS>BOND
     1     9     8    1
     2     9     1    1
     3     1     2   ar
     4     2     3   ar
     5     3    23    1
     6    23    24   am
     7    24    25    2
     8    24    27    1
     9    27    28   ar
    10    28    29   ar
    11    29    30   ar
    12    30    36    1
    13    36    37    3
    14    30    31   ar
    15    31    32   ar
    16    32    33    1
    17     3     4   ar
    18     4     5   ar
    19     5     6   ar
    20     6     7    1
    21     9    10    1
    22    10    11    1
    23    11    12    1
    24    12    13    1
    25    12    19    1
    26    19    20    1
    27    19    21    1
    28    19    22    1
    29    12    14    1
    30    14    15    1
    31    14    16    2
    32    16     9    1
    33     6     1   ar
    34    32    27   ar
    35    23    26    1
    36    33    34    1
    37    33    35    1
    38    15    17    1
    39    15    18    1
@<TRIPOS>MOLECULE
*****
 37 39 0 0 0
SMALL
GASTEIGER

@<TRIPOS>ATOM
      1 C           4.4756   -1.4188   20.1035 C.ar    1  UNL1        0.0528
      2 C           4.6303   -1.5688   21.5879 C.ar    1  UNL1        0.0167
      3 C           4.6563   -2.9357   22.2049 C.ar    1  UNL1        0.0505
      4 C           4.5277   -4.1527   21.3374 C.ar    1  UNL1        0.0170
      5 C           4.3730   -4.0027   19.8530 C.ar    1  UNL1        0.0307
      6 C           4.3470   -2.6358   19.2360 C.ar    1  UNL1        0.1402
      7 F           4.1923   -2.4858   17.7515 F       1  UNL1       -0.2044
      8 C           5.9167   -0.3506   19.3958 C.3     1  UNL1        0.0607
      9 C           4.4495   -0.0518   19.4864 C.3     1  UNL1        0.2223
     10 C           2.9915   -0.2278   19.7913 C.3     1  UNL1        0.1959
     11 O           2.0168    0.8594   19.4477 O.3     1  UNL1       -0.3357
     12 C           2.5003    2.1227   18.7992 C.3     1  UNL1        0.2740
     13 C           2.4743    3.4896   18.1822 C.3     1  UNL1        0.0512
     14 C           3.9584    2.2986   18.4943 C.2     1  UNL1        0.3217
     15 N           4.4419    3.5619   17.8458 N.pl3   1  UNL1       -0.2480
     16 N           4.9330    1.2114   18.8379 N.2     1  UNL1       -0.0692
     17 H           3.8022    4.2754   17.6202 H       1  UNL1        0.2882
     18 H           5.3989    3.6773   17.6456 H       1  UNL1        0.2882
     19 C           1.0332    2.4214   18.8899 C.3     1  UNL1        0.4305
     20 F          -0.4340    2.7202   18.9805 F       1  UNL1       -0.1670
     21 F           0.7363    1.2217   18.0397 F       1  UNL1       -0.1670
     22 F           1.3300    3.6211   19.7399 F       1  UNL1       -0.1670
     23 N           4.8110   -3.0858   23.6894 N.am    1  UNL1       -0.2791
     24 C           6.1571   -3.3924   24.2759 C.2     1  UNL1        0.2685
     25 O           7.3485   -3.5491   23.3780 O.2     1  UNL1       -0.2681
     26 H           4.0291   -2.9830   24.2786 H       1  UNL1        0.1552
     27 C           6.3118   -3.5425   25.7603 C.ar    1  UNL1        0.1476
     28 N           5.8479   -2.4496   26.6770 N.ar    1  UNL1       -0.2373
     29 C           6.0026   -2.5997   28.1615 C.ar    1  UNL1        0.1093
     30 C           6.6213   -3.8426   28.7292 C.ar    1  UNL1        0.0888
     31 C           7.0853   -4.9355   27.8125 C.ar    1  UNL1        0.0276
     32 C           6.9306   -4.7855   26.3281 C.ar    1  UNL1        0.0646
     33 N           7.3945   -5.8783   25.4114 N.pl3   1  UNL1       -0.3557
     34 H           7.8006   -6.6941   25.7840 H       1  UNL1        0.1424
     35 H           7.2930   -5.7798   24.4371 H       1  UNL1        0.1424
     36 C           6.7760   -3.9927   30.2136 C.1     1  UNL1        0.1020
     37 N           6.9307   -4.1427   31.6981 N.1     1  UNL1       -0.1908
@<TRIPOS>BOND
     1     9     8    1
     2     9     1    1
     3     1     2   ar
     4     2     3   ar
     5     3    23    1
     6    23    24   am
     7    24    25    2
     8    24    27    1
     9    27    28   ar
    10    28    29   ar
    11    29    30   ar
    12    30    36    1
    13    36    37    3
    14    30    31   ar
    15    31    32   ar
    16    32    33    1
    17     3     4   ar
    18     4     5   ar
    19     5     6   ar
    20     6     7    1
    21     9    10    1
    22    10    11    1
    23    11    12    1
    24    12    13    1
    25    12    19    1
    26    19    20    1
    27    19    21    1
    28    19    22    1
    29    12    14    1
    30    14    15    1
    31    14    16    2
    32    16     9    1
    33     6     1   ar
    34    32    27   ar
    35    23    26    1
    36    33    34    1
    37    33    35    1
    38    15    17    1
    39    15    18    1
