@<TRIPOS>MOLECULE
*****
 27 29 0 0 0
SMALL
GASTEIGER

@<TRIPOS>ATOM
      1 C          -9.5434  -17.1492   23.1120 C.ar    1  UNL1        0.0812
      2 N         -10.5089  -16.0239   22.8852 N.ar    1  UNL1       -0.2455
      3 C         -11.3112  -15.9678   21.6191 C.ar    1  UNL1        0.1099
      4 C         -11.1481  -17.0370   20.5798 C.ar    1  UNL1        0.0780
      5 CL        -11.9505  -16.9809   19.3136 Cl      1  UNL1       -0.0806
      6 C         -10.1825  -18.1623   20.8066 C.ar    1  UNL1        0.0300
      7 C          -9.3802  -18.2184   22.0727 C.ar    1  UNL1        0.0796
      8 N          -8.4146  -19.3437   22.2995 N.pl3   1  UNL1       -0.2138
      9 H          -8.7167  -20.1701   22.7411 H       1  UNL1        0.1738
     10 S          -6.9887  -19.2098   21.8536 S.O2    1  UNL1        0.0736
     11 O          -6.6614  -20.5198   22.5068 O.2     1  UNL1       -0.1499
     12 O          -7.3160  -17.8998   21.2003 O.2     1  UNL1       -0.1499
     13 C          -5.5628  -19.0759   21.4076 C.ar    1  UNL1        0.1261
     14 C          -5.1770  -19.4484   20.0067 C.ar    1  UNL1        0.0211
     15 C          -3.7511  -19.3144   19.5608 C.ar    1  UNL1        0.0136
     16 C          -2.7110  -18.8080   20.5157 C.ar    1  UNL1        0.0683
     17 CL         -1.2851  -18.6741   20.0698 Cl      1  UNL1       -0.0814
     18 C          -3.0968  -18.4356   21.9165 C.ar    1  UNL1        0.0695
     19 CL         -2.0568  -17.9292   22.8715 Cl      1  UNL1       -0.0813
     20 C          -4.5227  -18.5695   22.3625 C.ar    1  UNL1        0.0324
     21 C          -8.7410  -17.2053   24.3781 C.3     1  UNL1        0.1143
     22 C          -7.8639  -15.7204   27.1486 C.3     1  UNL1        0.1570
     23 N          -7.1551  -15.6177   25.8307 N.ar    1  UNL1       -0.2145
     24 N          -5.9187  -14.8145   25.5548 N.ar    1  UNL1       -0.0431
     25 N          -5.5577  -15.0005   24.1108 N.ar    1  UNL1       -0.0230
     26 N          -6.5710  -15.9188   23.4943 N.ar    1  UNL1       -0.1123
     27 C          -7.5582  -16.3002   24.5572 C.ar    1  UNL1        0.1669
@<TRIPOS>BOND
     1    22    23    1
     2    23    24   ar
     3    24    25   ar
     4    25    26   ar
     5    26    27   ar
     6    27    21    1
     7    21     1    1
     8     1     2   ar
     9     2     3   ar
    10     3     4   ar
    11     4     5    1
    12     4     6   ar
    13     6     7   ar
    14     7     8    1
    15     8    10    1
    16    10    11    2
    17    10    12    2
    18    10    13    1
    19    13    14   ar
    20    14    15   ar
    21    15    16   ar
    22    16    17    1
    23    16    18   ar
    24    18    19    1
    25    18    20   ar
    26    27    23   ar
    27     7     1   ar
    28    20    13   ar
    29     8     9    1
@<TRIPOS>MOLECULE
*****
 27 29 0 0 0
SMALL
GASTEIGER

@<TRIPOS>ATOM
      1 C         -10.1307  -17.5893   23.0661 C.ar    1  UNL1        0.0812
      2 N         -11.0604  -16.4179   23.1822 N.ar    1  UNL1       -0.2455
      3 C         -11.7166  -15.8568   21.9556 C.ar    1  UNL1        0.1099
      4 C         -11.4431  -16.4671   20.6129 C.ar    1  UNL1        0.0780
      5 CL        -12.0994  -15.9059   19.3863 Cl      1  UNL1       -0.0806
      6 C         -10.5135  -17.6385   20.4968 C.ar    1  UNL1        0.0300
      7 C          -9.8573  -18.1996   21.7234 C.ar    1  UNL1        0.0796
      8 N          -8.9275  -19.3710   21.6073 N.pl3   1  UNL1       -0.2138
      9 H          -9.2911  -20.2840   21.5482 H       1  UNL1        0.1738
     10 S          -7.4439  -19.1514   21.5814 S.O2    1  UNL1        0.0736
     11 O          -7.6448  -17.8876   20.7987 O.2     1  UNL1       -0.1499
     12 O          -7.2431  -20.4151   22.3641 O.2     1  UNL1       -0.1499
     13 C          -5.9603  -18.9317   21.5554 C.ar    1  UNL1        0.1261
     14 C          -5.2559  -18.4238   22.7785 C.ar    1  UNL1        0.0211
     15 C          -3.7723  -18.2041   22.7525 C.ar    1  UNL1        0.0136
     16 C          -2.9932  -18.4923   21.5035 C.ar    1  UNL1        0.0683
     17 CL         -1.5096  -18.2726   21.4775 Cl      1  UNL1       -0.0814
     18 C          -3.6976  -19.0002   20.2805 C.ar    1  UNL1        0.0695
     19 CL         -2.9185  -19.2884   19.0315 Cl      1  UNL1       -0.0813
     20 C          -5.1812  -19.2199   20.3065 C.ar    1  UNL1        0.0324
     21 C          -9.4745  -18.1505   24.2927 C.3     1  UNL1        0.1143
     22 C          -7.5379  -15.6014   23.6591 C.3     1  UNL1        0.1570
     23 N          -7.9811  -16.0556   25.0182 N.ar    1  UNL1       -0.2145
     24 N          -7.6119  -15.4179   26.3248 N.ar    1  UNL1       -0.0431
     25 N          -8.2739  -16.1954   27.4235 N.ar    1  UNL1       -0.0230
     26 N          -9.0522  -17.3137   26.7960 N.ar    1  UNL1       -0.1123
     27 C          -8.8712  -17.2273   25.3095 C.ar    1  UNL1        0.1669
@<TRIPOS>BOND
     1    22    23    1
     2    23    24   ar
     3    24    25   ar
     4    25    26   ar
     5    26    27   ar
     6    27    21    1
     7    21     1    1
     8     1     2   ar
     9     2     3   ar
    10     3     4   ar
    11     4     5    1
    12     4     6   ar
    13     6     7   ar
    14     7     8    1
    15     8    10    1
    16    10    11    2
    17    10    12    2
    18    10    13    1
    19    13    14   ar
    20    14    15   ar
    21    15    16   ar
    22    16    17    1
    23    16    18   ar
    24    18    19    1
    25    18    20   ar
    26    27    23   ar
    27     7     1   ar
    28    20    13   ar
    29     8     9    1
@<TRIPOS>MOLECULE
*****
 27 29 0 0 0
SMALL
GASTEIGER

@<TRIPOS>ATOM
      1 C          -4.1222  -18.1748   22.2214 C.ar    1  UNL1        0.0812
      2 N          -3.0385  -17.7855   23.1827 N.ar    1  UNL1       -0.2455
      3 C          -3.3765  -17.0044   24.4178 C.ar    1  UNL1        0.1099
      4 C          -4.7983  -16.6126   24.6917 C.ar    1  UNL1        0.0780
      5 CL         -5.1364  -15.8314   25.9268 Cl      1  UNL1       -0.0806
      6 C          -5.8820  -17.0019   23.7304 C.ar    1  UNL1        0.0300
      7 C          -5.5440  -17.7829   22.4953 C.ar    1  UNL1        0.0796
      8 N          -6.6277  -18.1723   21.5340 N.pl3   1  UNL1       -0.2138
      9 H          -6.3973  -18.4445   20.6164 H       1  UNL1        0.1738
     10 S          -8.0624  -18.1468   21.9709 S.O2    1  UNL1        0.0736
     11 O          -8.1903  -16.7391   21.4688 O.2     1  UNL1       -0.1499
     12 O          -7.9346  -19.5545   22.4729 O.2     1  UNL1       -0.1499
     13 C          -9.4972  -18.1213   22.4078 C.ar    1  UNL1        0.1261
     14 C         -10.1219  -19.3483   23.0030 C.ar    1  UNL1        0.0211
     15 C         -11.5566  -19.3228   23.4399 C.ar    1  UNL1        0.0136
     16 C         -12.3667  -18.0703   23.2815 C.ar    1  UNL1        0.0683
     17 CL        -13.8014  -18.0448   23.7184 Cl      1  UNL1       -0.0814
     18 C         -11.7420  -16.8433   22.6863 C.ar    1  UNL1        0.0695
     19 CL        -12.5521  -15.5908   22.5279 Cl      1  UNL1       -0.0813
     20 C         -10.3073  -16.8688   22.2494 C.ar    1  UNL1        0.0324
     21 C          -3.7841  -18.9559   20.9862 C.3     1  UNL1        0.1143
     22 C          -3.1844  -17.1554   18.3314 C.3     1  UNL1        0.1570
     23 N          -2.1735  -17.9476   19.1063 N.ar    1  UNL1       -0.2145
     24 N          -0.7094  -18.0513   18.7968 N.ar    1  UNL1       -0.0431
     25 N          -0.0802  -18.9430   19.8259 N.ar    1  UNL1       -0.0230
     26 N          -1.1554  -19.3904   20.7713 N.ar    1  UNL1       -0.1123
     27 C          -2.4492  -18.7752   20.3265 C.ar    1  UNL1        0.1669
@<TRIPOS>BOND
     1    22    23    1
     2    23    24   ar
     3    24    25   ar
     4    25    26   ar
     5    26    27   ar
     6    27    21    1
     7    21     1    1
     8     1     2   ar
     9     2     3   ar
    10     3     4   ar
    11     4     5    1
    12     4     6   ar
    13     6     7   ar
    14     7     8    1
    15     8    10    1
    16    10    11    2
    17    10    12    2
    18    10    13    1
    19    13    14   ar
    20    14    15   ar
    21    15    16   ar
    22    16    17    1
    23    16    18   ar
    24    18    19    1
    25    18    20   ar
    26    27    23   ar
    27     7     1   ar
    28    20    13   ar
    29     8     9    1
@<TRIPOS>MOLECULE
*****
 27 29 0 0 0
SMALL
GASTEIGER

@<TRIPOS>ATOM
      1 C          -8.8671  -17.4640   22.7813 C.ar    1  UNL1        0.0812
      2 N          -9.4274  -16.3646   23.6341 N.ar    1  UNL1       -0.2455
      3 C          -8.5228  -15.5831   24.5401 C.ar    1  UNL1        0.1099
      4 C          -7.0578  -15.9010   24.5933 C.ar    1  UNL1        0.0780
      5 CL         -6.1532  -15.1194   25.4994 Cl      1  UNL1       -0.0806
      6 C          -6.4975  -17.0004   23.7405 C.ar    1  UNL1        0.0300
      7 C          -7.4021  -17.7819   22.8345 C.ar    1  UNL1        0.0796
      8 N          -6.8418  -18.8813   21.9817 N.pl3   1  UNL1       -0.2138
      9 H          -7.4050  -19.6512   21.7382 H       1  UNL1        0.1738
     10 S          -5.4232  -18.8077   21.4997 S.O2    1  UNL1        0.0736
     11 O          -5.8973  -18.2531   20.1891 O.2     1  UNL1       -0.1499
     12 O          -4.9491  -19.3623   22.8103 O.2     1  UNL1       -0.1499
     13 C          -4.0047  -18.7341   21.0177 C.ar    1  UNL1        0.1261
     14 C          -2.8814  -19.1323   21.9287 C.ar    1  UNL1        0.0211
     15 C          -1.4629  -19.0587   21.4468 C.ar    1  UNL1        0.0136
     16 C          -1.1675  -18.5869   20.0538 C.ar    1  UNL1        0.0683
     17 CL          0.2510  -18.5133   19.5718 Cl      1  UNL1       -0.0814
     18 C          -2.2908  -18.1888   19.1429 C.ar    1  UNL1        0.0695
     19 CL         -1.9954  -17.7169   17.7499 Cl      1  UNL1       -0.0813
     20 C          -3.7093  -18.2623   19.6249 C.ar    1  UNL1        0.0324
     21 C          -9.7717  -18.2455   21.8753 C.3     1  UNL1        0.1143
     22 C         -12.8173  -17.7172   22.9214 C.3     1  UNL1        0.1570
     23 N         -12.2567  -17.3020   21.5935 N.ar    1  UNL1       -0.2145
     24 N         -12.9977  -16.5711   20.5134 N.ar    1  UNL1       -0.0431
     25 N         -12.0557  -16.3622   19.3649 N.ar    1  UNL1       -0.0230
     26 N         -10.7326  -16.9640   19.7353 N.ar    1  UNL1       -0.1123
     27 C         -10.8568  -17.5449   21.1127 C.ar    1  UNL1        0.1669
@<TRIPOS>BOND
     1    22    23    1
     2    23    24   ar
     3    24    25   ar
     4    25    26   ar
     5    26    27   ar
     6    27    21    1
     7    21     1    1
     8     1     2   ar
     9     2     3   ar
    10     3     4   ar
    11     4     5    1
    12     4     6   ar
    13     6     7   ar
    14     7     8    1
    15     8    10    1
    16    10    11    2
    17    10    12    2
    18    10    13    1
    19    13    14   ar
    20    14    15   ar
    21    15    16   ar
    22    16    17    1
    23    16    18   ar
    24    18    19    1
    25    18    20   ar
    26    27    23   ar
    27     7     1   ar
    28    20    13   ar
    29     8     9    1
@<TRIPOS>MOLECULE
*****
 27 29 0 0 0
SMALL
GASTEIGER

@<TRIPOS>ATOM
      1 C         -13.7645   -7.2394   18.1068 C.ar    1  UNL1        0.0812
      2 N         -12.6476   -7.9961   17.4513 N.ar    1  UNL1       -0.2455
      3 C         -11.2223   -7.6237   17.7339 C.ar    1  UNL1        0.1099
      4 C         -10.9140   -6.4946   18.6720 C.ar    1  UNL1        0.0780
      5 CL         -9.4886   -6.1222   18.9545 Cl      1  UNL1       -0.0806
      6 C         -12.0309   -5.7379   19.3275 C.ar    1  UNL1        0.0300
      7 C         -13.4562   -6.1103   19.0450 C.ar    1  UNL1        0.0796
      8 N         -14.5732   -5.3536   19.7005 N.pl3   1  UNL1       -0.2138
      9 H         -15.2375   -5.8321   20.2474 H       1  UNL1        0.1738
     10 S         -14.6782   -3.8678   19.5229 S.O2    1  UNL1        0.0736
     11 O         -14.1697   -3.6649   20.9194 O.2     1  UNL1       -0.1499
     12 O         -15.1867   -4.0708   18.1263 O.2     1  UNL1       -0.1499
     13 C         -14.7831   -2.3821   19.3452 C.ar    1  UNL1        0.1261
     14 C         -16.0219   -1.6597   19.7854 C.ar    1  UNL1        0.0211
     15 C         -16.1268   -0.1740   19.6077 C.ar    1  UNL1        0.0136
     16 C         -14.9930    0.5894   18.9898 C.ar    1  UNL1        0.0683
     17 CL        -15.0979    2.0751   18.8121 Cl      1  UNL1       -0.0814
     18 C         -13.7543   -0.1330   18.5496 C.ar    1  UNL1        0.0695
     19 CL        -12.6205    0.6304   17.9317 Cl      1  UNL1       -0.0813
     20 C         -13.6494   -1.6187   18.7273 C.ar    1  UNL1        0.0324
     21 C         -15.1899   -7.6117   17.8243 C.3     1  UNL1        0.1143
     22 C         -17.5142   -8.0258   20.0773 C.3     1  UNL1        0.1570
     23 N         -16.7986   -9.1172   19.3378 N.ar    1  UNL1       -0.2145
     24 N         -17.0259  -10.5905   19.5040 N.ar    1  UNL1       -0.0431
     25 N         -16.0980  -11.3108   18.5712 N.ar    1  UNL1       -0.0230
     26 N         -15.2973  -10.2826   17.8284 N.ar    1  UNL1       -0.1123
     27 C         -15.7303   -8.9269   18.3022 C.ar    1  UNL1        0.1669
@<TRIPOS>BOND
     1    22    23    1
     2    23    24   ar
     3    24    25   ar
     4    25    26   ar
     5    26    27   ar
     6    27    21    1
     7    21     1    1
     8     1     2   ar
     9     2     3   ar
    10     3     4   ar
    11     4     5    1
    12     4     6   ar
    13     6     7   ar
    14     7     8    1
    15     8    10    1
    16    10    11    2
    17    10    12    2
    18    10    13    1
    19    13    14   ar
    20    14    15   ar
    21    15    16   ar
    22    16    17    1
    23    16    18   ar
    24    18    19    1
    25    18    20   ar
    26    27    23   ar
    27     7     1   ar
    28    20    13   ar
    29     8     9    1
@<TRIPOS>MOLECULE
*****
 27 29 0 0 0
SMALL
GASTEIGER

@<TRIPOS>ATOM
      1 C          -5.2192  -17.2684   23.2980 C.ar    1  UNL1        0.0812
      2 N          -4.2704  -17.3287   24.4582 N.ar    1  UNL1       -0.2455
      3 C          -4.5337  -16.5078   25.6857 C.ar    1  UNL1        0.1099
      4 C          -5.7457  -15.6266   25.7530 C.ar    1  UNL1        0.0780
      5 CL         -6.0088  -14.8057   26.9805 Cl      1  UNL1       -0.0806
      6 C          -6.6944  -15.5663   24.5927 C.ar    1  UNL1        0.0300
      7 C          -6.4312  -16.3872   23.3653 C.ar    1  UNL1        0.0796
      8 N          -7.3800  -16.3269   22.2050 N.pl3   1  UNL1       -0.2138
      9 H          -7.0599  -16.0313   21.3221 H       1  UNL1        0.1738
     10 S          -8.8165  -16.7171   22.3898 S.O2    1  UNL1        0.0736
     11 O          -9.2405  -15.5635   21.5298 O.2     1  UNL1       -0.1499
     12 O          -8.3926  -17.8707   23.2497 O.2     1  UNL1       -0.1499
     13 C         -10.2531  -17.1073   22.5746 C.ar    1  UNL1        0.1261
     14 C         -11.2616  -16.7799   21.5136 C.ar    1  UNL1        0.0211
     15 C         -12.6982  -17.1700   21.6984 C.ar    1  UNL1        0.0136
     16 C         -13.1261  -17.8876   22.9443 C.ar    1  UNL1        0.0683
     17 CL        -14.5626  -18.2778   23.1291 Cl      1  UNL1       -0.0814
     18 C         -12.1176  -18.2150   24.0052 C.ar    1  UNL1        0.0695
     19 CL        -12.5455  -18.9325   25.2510 Cl      1  UNL1       -0.0813
     20 C         -10.6810  -17.8248   23.8204 C.ar    1  UNL1        0.0324
     21 C          -4.9560  -18.0894   22.0704 C.3     1  UNL1        0.1143
     22 C          -2.1939  -16.3898   21.7072 C.3     1  UNL1        0.1570
     23 N          -2.3220  -17.8837   21.6644 N.ar    1  UNL1       -0.2145
     24 N          -1.2029  -18.8586   21.4472 N.ar    1  UNL1       -0.0431
     25 N          -1.7809  -20.2424   21.4799 N.ar    1  UNL1       -0.0230
     26 N          -3.2572  -20.1227   21.7173 N.ar    1  UNL1       -0.1123
     27 C          -3.5916  -18.6649   21.8314 C.ar    1  UNL1        0.1669
@<TRIPOS>BOND
     1    22    23    1
     2    23    24   ar
     3    24    25   ar
     4    25    26   ar
     5    26    27   ar
     6    27    21    1
     7    21     1    1
     8     1     2   ar
     9     2     3   ar
    10     3     4   ar
    11     4     5    1
    12     4     6   ar
    13     6     7   ar
    14     7     8    1
    15     8    10    1
    16    10    11    2
    17    10    12    2
    18    10    13    1
    19    13    14   ar
    20    14    15   ar
    21    15    16   ar
    22    16    17    1
    23    16    18   ar
    24    18    19    1
    25    18    20   ar
    26    27    23   ar
    27     7     1   ar
    28    20    13   ar
    29     8     9    1
@<TRIPOS>MOLECULE
*****
 27 29 0 0 0
SMALL
GASTEIGER

@<TRIPOS>ATOM
      1 C         -10.8440   -3.8289   18.4147 C.ar    1  UNL1        0.0812
      2 N          -9.9569   -3.4934   17.2526 N.ar    1  UNL1       -0.2455
      3 C         -10.1116   -2.1795   16.5458 C.ar    1  UNL1        0.1099
      4 C         -11.1535   -1.2011   17.0010 C.ar    1  UNL1        0.0780
      5 CL        -11.3082    0.1129   16.2941 Cl      1  UNL1       -0.0806
      6 C         -12.0406   -1.5366   18.1631 C.ar    1  UNL1        0.0300
      7 C         -11.8859   -2.8505   18.8699 C.ar    1  UNL1        0.0796
      8 N         -12.7730   -3.1860   20.0320 N.pl3   1  UNL1       -0.2138
      9 H         -12.5936   -2.7947   20.9174 H       1  UNL1        0.1738
     10 S         -13.9335   -4.1179   19.8451 S.O2    1  UNL1        0.0736
     11 O         -14.4006   -3.3017   18.6765 O.2     1  UNL1       -0.1499
     12 O         -13.4663   -4.9340   21.0138 O.2     1  UNL1       -0.1499
     13 C         -15.0940   -5.0497   19.6582 C.ar    1  UNL1        0.1261
     14 C         -16.4927   -4.5087   19.6262 C.ar    1  UNL1        0.0211
     15 C         -17.6532   -5.4405   19.4393 C.ar    1  UNL1        0.0136
     16 C         -17.4149   -6.9134   19.2844 C.ar    1  UNL1        0.0683
     17 CL        -18.5754   -7.8453   19.0975 Cl      1  UNL1       -0.0814
     18 C         -16.0163   -7.4544   19.3165 C.ar    1  UNL1        0.0695
     19 CL        -15.7781   -8.9273   19.1616 Cl      1  UNL1       -0.0813
     20 C         -14.8558   -6.5226   19.5034 C.ar    1  UNL1        0.0324
     21 C         -10.6893   -5.1429   19.1216 C.3     1  UNL1        0.1143
     22 C         -12.5778   -6.0505   16.6197 C.3     1  UNL1        0.1570
     23 N         -11.4226   -6.8266   17.1793 N.ar    1  UNL1       -0.2145
     24 N         -10.9327   -8.1562   16.6871 N.ar    1  UNL1       -0.0431
     25 N          -9.7619   -8.5608   17.5330 N.ar    1  UNL1       -0.0230
     26 N          -9.5282   -7.4812   18.5478 N.ar    1  UNL1       -0.1123
     27 C         -10.5546   -6.4094   18.3293 C.ar    1  UNL1        0.1669
@<TRIPOS>BOND
     1    22    23    1
     2    23    24   ar
     3    24    25   ar
     4    25    26   ar
     5    26    27   ar
     6    27    21    1
     7    21     1    1
     8     1     2   ar
     9     2     3   ar
    10     3     4   ar
    11     4     5    1
    12     4     6   ar
    13     6     7   ar
    14     7     8    1
    15     8    10    1
    16    10    11    2
    17    10    12    2
    18    10    13    1
    19    13    14   ar
    20    14    15   ar
    21    15    16   ar
    22    16    17    1
    23    16    18   ar
    24    18    19    1
    25    18    20   ar
    26    27    23   ar
    27     7     1   ar
    28    20    13   ar
    29     8     9    1
@<TRIPOS>MOLECULE
*****
 27 29 0 0 0
SMALL
GASTEIGER

@<TRIPOS>ATOM
      1 C         -11.9726   -3.1289   17.4855 C.ar    1  UNL1        0.0812
      2 N         -10.4843   -2.9884   17.3618 N.ar    1  UNL1       -0.2455
      3 C          -9.5797   -3.9930   18.0118 C.ar    1  UNL1        0.1099
      4 C         -10.1632   -5.1380   18.7853 C.ar    1  UNL1        0.0780
      5 CL         -9.2585   -6.1426   19.4352 Cl      1  UNL1       -0.0806
      6 C         -11.6515   -5.2785   18.9089 C.ar    1  UNL1        0.0300
      7 C         -12.5562   -4.2739   18.2590 C.ar    1  UNL1        0.0796
      8 N         -14.0445   -4.4144   18.3826 N.pl3   1  UNL1       -0.2138
      9 H         -14.6135   -3.6117   18.4171 H       1  UNL1        0.1738
     10 S         -14.6658   -5.7778   18.4534 S.O2    1  UNL1        0.0736
     11 O         -14.9799   -5.5593   19.9038 O.2     1  UNL1       -0.1499
     12 O         -14.3518   -5.9963   17.0031 O.2     1  UNL1       -0.1499
     13 C         -15.2871   -7.1412   18.5243 C.ar    1  UNL1        0.1261
     14 C         -14.6056   -8.3106   17.8775 C.ar    1  UNL1        0.0211
     15 C         -15.2270   -9.6740   17.9484 C.ar    1  UNL1        0.0136
     16 C         -16.5298   -9.8681   18.6661 C.ar    1  UNL1        0.0683
     17 CL        -17.1511  -11.2315   18.7370 Cl      1  UNL1       -0.0814
     18 C         -17.2112   -8.6988   19.3129 C.ar    1  UNL1        0.0695
     19 CL        -18.5141   -8.8929   20.0306 Cl      1  UNL1       -0.0813
     20 C         -16.5899   -7.3354   19.2420 C.ar    1  UNL1        0.0324
     21 C         -12.8773   -2.1243   16.8355 C.3     1  UNL1        0.1143
     22 C         -14.8667   -0.8882   19.1080 C.3     1  UNL1        0.1570
     23 N         -13.8046   -0.1359   18.3623 N.ar    1  UNL1       -0.2145
     24 N         -13.4705    1.3168   18.5303 N.ar    1  UNL1       -0.0431
     25 N         -12.3496    1.6464   17.5896 N.ar    1  UNL1       -0.0230
     26 N         -11.9910    0.3975   16.8402 N.ar    1  UNL1       -0.1123
     27 C         -12.8902   -0.7040   17.3178 C.ar    1  UNL1        0.1669
@<TRIPOS>BOND
     1    22    23    1
     2    23    24   ar
     3    24    25   ar
     4    25    26   ar
     5    26    27   ar
     6    27    21    1
     7    21     1    1
     8     1     2   ar
     9     2     3   ar
    10     3     4   ar
    11     4     5    1
    12     4     6   ar
    13     6     7   ar
    14     7     8    1
    15     8    10    1
    16    10    11    2
    17    10    12    2
    18    10    13    1
    19    13    14   ar
    20    14    15   ar
    21    15    16   ar
    22    16    17    1
    23    16    18   ar
    24    18    19    1
    25    18    20   ar
    26    27    23   ar
    27     7     1   ar
    28    20    13   ar
    29     8     9    1
@<TRIPOS>MOLECULE
*****
 27 29 0 0 0
SMALL
GASTEIGER

@<TRIPOS>ATOM
      1 C           5.4851   -1.6145   17.9654 C.ar    1  UNL1        0.0812
      2 N           6.6795   -1.0283   17.2729 N.ar    1  UNL1       -0.2455
      3 C           6.7555    0.4501   17.0310 C.ar    1  UNL1        0.1099
      4 C           5.6371    1.3423   17.4817 C.ar    1  UNL1        0.0780
      5 CL          5.7131    2.8208   17.2398 Cl      1  UNL1       -0.0806
      6 C           4.4427    0.7561   18.1743 C.ar    1  UNL1        0.0300
      7 C           4.3667   -0.7223   18.4161 C.ar    1  UNL1        0.0796
      8 N           3.1722   -1.3086   19.1087 N.pl3   1  UNL1       -0.2138
      9 H           2.7160   -2.0920   18.7248 H       1  UNL1        0.1738
     10 S           2.6729   -0.7012   20.3861 S.O2    1  UNL1        0.0736
     11 O           1.3316   -0.4744   19.7539 O.2     1  UNL1       -0.1499
     12 O           4.0141   -0.9279   21.0182 O.2     1  UNL1       -0.1499
     13 C           2.1736   -0.0938   21.6635 C.ar    1  UNL1        0.1261
     14 C           0.9939    0.8327   21.6426 C.ar    1  UNL1        0.0211
     15 C           0.4946    1.4401   22.9199 C.ar    1  UNL1        0.0136
     16 C           1.1749    1.1210   24.2183 C.ar    1  UNL1        0.0683
     17 CL          0.6756    1.7284   25.4957 Cl      1  UNL1       -0.0814
     18 C           2.3544    0.1947   24.2391 C.ar    1  UNL1        0.0695
     19 CL          3.0347   -0.1244   25.5374 Cl      1  UNL1       -0.0813
     20 C           2.8538   -0.4127   22.9617 C.ar    1  UNL1        0.0324
     21 C           5.4091   -3.0929   18.2073 C.3     1  UNL1        0.1143
     22 C           7.9072   -3.2370   20.3020 C.3     1  UNL1        0.1570
     23 N           6.5024   -3.6878   20.5728 N.ar    1  UNL1       -0.2145
     24 N           5.9993   -4.2839   21.8540 N.ar    1  UNL1       -0.0431
     25 N           4.5400   -4.5861   21.6830 N.ar    1  UNL1       -0.0230
     26 N           4.1413   -4.1768   20.2961 N.ar    1  UNL1       -0.1123
     27 C           5.3542   -3.6215   19.6100 C.ar    1  UNL1        0.1669
@<TRIPOS>BOND
     1    22    23    1
     2    23    24   ar
     3    24    25   ar
     4    25    26   ar
     5    26    27   ar
     6    27    21    1
     7    21     1    1
     8     1     2   ar
     9     2     3   ar
    10     3     4   ar
    11     4     5    1
    12     4     6   ar
    13     6     7   ar
    14     7     8    1
    15     8    10    1
    16    10    11    2
    17    10    12    2
    18    10    13    1
    19    13    14   ar
    20    14    15   ar
    21    15    16   ar
    22    16    17    1
    23    16    18   ar
    24    18    19    1
    25    18    20   ar
    26    27    23   ar
    27     7     1   ar
    28    20    13   ar
    29     8     9    1
