@<TRIPOS>MOLECULE
*****
 28 32 0 0 0
SMALL
GASTEIGER

@<TRIPOS>ATOM
      1 O         -11.6502  -16.6781   23.0204 O.2     1  UNL1       -0.2866
      2 C         -10.2053  -17.0401   22.8430 C.2     1  UNL1        0.1957
      3 C          -9.1766  -16.5092   23.7969 C.ar    1  UNL1        0.0420
      4 C          -9.5927  -15.6164   24.9282 C.ar    1  UNL1        0.0033
      5 C          -8.5640  -15.0856   25.8820 C.ar    1  UNL1        0.0001
      6 C          -7.1191  -15.4476   25.7046 C.ar    1  UNL1        0.0001
      7 C          -6.7030  -16.3403   24.5734 C.ar    1  UNL1        0.0033
      8 C          -7.7318  -16.8711   23.6195 C.ar    1  UNL1        0.0420
      9 C          -7.3157  -17.7640   22.4882 C.2     1  UNL1        0.1957
     10 O          -5.8709  -18.1259   22.3108 O.2     1  UNL1       -0.2866
     11 C          -8.3444  -18.2948   21.5343 C.ar    1  UNL1        0.0421
     12 C          -9.7893  -17.9328   21.7117 C.ar    1  UNL1        0.0420
     13 C         -10.8180  -18.4637   20.7578 C.ar    1  UNL1        0.0033
     14 C         -10.4019  -19.3565   19.6265 C.ar    1  UNL1        0.0001
     15 C          -8.9571  -19.7184   19.4491 C.ar    1  UNL1        0.0002
     16 C          -7.9284  -19.1876   20.4030 C.ar    1  UNL1        0.0062
     17 C          -6.4835  -19.5496   20.2256 C.ar    1  UNL1        0.0397
     18 C          -5.8954  -20.9227   20.3617 C.ar    1  UNL1        0.1216
     19 N          -4.4216  -20.8237   20.1012 N.ar    1  UNL1       -0.1677
     20 N          -4.0987  -19.3893   19.8040 N.ar    1  UNL1       -0.2513
     21 C          -5.3731  -18.6018   19.8809 C.ar    1  UNL1        0.0965
     22 C          -2.7401  -18.8390   19.4859 C.3     1  UNL1        0.1080
     23 C          -1.6419  -18.9168   20.5047 C.3     1  UNL1        0.0415
     24 C          -0.2833  -18.3665   20.1865 C.3     1  UNL1        0.0706
     25 N          -0.0228  -17.7384   18.8495 N.3     1  UNL1       -0.2974
     26 C          -1.1210  -17.6606   17.8307 C.3     1  UNL1        0.0706
     27 C          -2.4796  -18.2109   18.1489 C.3     1  UNL1        0.0415
     28 H           0.7396  -18.2633   18.4211 H       1  UNL1        0.1232
@<TRIPOS>BOND
     1     1     2    2
     2     2     3    1
     3     3     4   ar
     4     4     5   ar
     5     5     6   ar
     6     6     7   ar
     7     7     8   ar
     8     8     9    1
     9     9    10    2
    10     9    11    1
    11    11    12   ar
    12    12    13   ar
    13    13    14   ar
    14    14    15   ar
    15    15    16   ar
    16    16    17    1
    17    17    18   ar
    18    18    19   ar
    19    19    20   ar
    20    20    22    1
    21    22    23    1
    22    23    24    1
    23    24    25    1
    24    25    26    1
    25    26    27    1
    26    20    21   ar
    27    12     2    1
    28    21    17   ar
    29     8     3   ar
    30    16    11   ar
    31    27    22    1
    32    25    28    1
@<TRIPOS>MOLECULE
*****
 28 32 0 0 0
SMALL
GASTEIGER

@<TRIPOS>ATOM
      1 O           6.7225   -0.6002   17.0112 O.2     1  UNL1       -0.2866
      2 C           5.4914   -0.5668   17.8675 C.2     1  UNL1        0.1957
      3 C           4.9242   -1.8427   18.4158 C.ar    1  UNL1        0.0420
      4 C           5.5881   -3.1519   18.1076 C.ar    1  UNL1        0.0033
      5 C           5.0209   -4.4277   18.6559 C.ar    1  UNL1        0.0001
      6 C           3.7898   -4.3943   19.5122 C.ar    1  UNL1        0.0001
      7 C           3.1259   -3.0850   19.8203 C.ar    1  UNL1        0.0033
      8 C           3.6931   -1.8092   19.2721 C.ar    1  UNL1        0.0420
      9 C           3.0292   -0.4998   19.5802 C.2     1  UNL1        0.1957
     10 O           1.7981   -0.4663   20.4365 O.2     1  UNL1       -0.2866
     11 C           3.5964    0.7760   19.0320 C.ar    1  UNL1        0.0421
     12 C           4.8275    0.7425   18.1757 C.ar    1  UNL1        0.0420
     13 C           5.3947    2.0184   17.6274 C.ar    1  UNL1        0.0033
     14 C           4.7308    3.3277   17.9355 C.ar    1  UNL1        0.0001
     15 C           3.4997    3.3612   18.7919 C.ar    1  UNL1        0.0002
     16 C           2.9325    2.0854   19.3401 C.ar    1  UNL1        0.0062
     17 C           1.7014    2.1188   20.1964 C.ar    1  UNL1        0.0397
     18 C           0.2857    2.0281   19.7091 C.ar    1  UNL1        0.1216
     19 N          -0.6208    2.1021   20.9019 N.ar    1  UNL1       -0.1677
     20 N           0.2346    2.2386   22.1264 N.ar    1  UNL1       -0.2513
     21 C           1.6699    2.2490   21.6905 C.ar    1  UNL1        0.0965
     22 C          -0.2585    2.3460   23.5390 C.3     1  UNL1        0.1080
     23 C           0.2744    1.4199   24.5919 C.3     1  UNL1        0.0415
     24 C          -0.2187    1.5272   26.0044 C.3     1  UNL1        0.0706
     25 N          -1.2447    2.5606   26.3641 N.3     1  UNL1       -0.2974
     26 C          -1.7776    3.4867   25.3113 C.3     1  UNL1        0.0706
     27 C          -1.2845    3.3793   23.8987 C.3     1  UNL1        0.0415
     28 H          -0.8309    3.1464   27.0894 H       1  UNL1        0.1232
@<TRIPOS>BOND
     1     1     2    2
     2     2     3    1
     3     3     4   ar
     4     4     5   ar
     5     5     6   ar
     6     6     7   ar
     7     7     8   ar
     8     8     9    1
     9     9    10    2
    10     9    11    1
    11    11    12   ar
    12    12    13   ar
    13    13    14   ar
    14    14    15   ar
    15    15    16   ar
    16    16    17    1
    17    17    18   ar
    18    18    19   ar
    19    19    20   ar
    20    20    22    1
    21    22    23    1
    22    23    24    1
    23    24    25    1
    24    25    26    1
    25    26    27    1
    26    20    21   ar
    27    12     2    1
    28    21    17   ar
    29     8     3   ar
    30    16    11   ar
    31    27    22    1
    32    25    28    1
@<TRIPOS>MOLECULE
*****
 28 32 0 0 0
SMALL
GASTEIGER

@<TRIPOS>ATOM
      1 O         -12.2174  -18.2843   20.5789 O.2     1  UNL1       -0.2866
      2 C         -10.7620  -18.2740   20.9417 C.2     1  UNL1        0.1957
      3 C         -10.2836  -17.4494   22.0999 C.ar    1  UNL1        0.0420
      4 C         -11.2606  -16.6352   22.8952 C.ar    1  UNL1        0.0033
      5 C         -10.7821  -15.8107   24.0533 C.ar    1  UNL1        0.0001
      6 C          -9.3267  -15.8004   24.4161 C.ar    1  UNL1        0.0001
      7 C          -8.3497  -16.6146   23.6209 C.ar    1  UNL1        0.0033
      8 C          -8.8281  -17.4391   22.4628 C.ar    1  UNL1        0.0420
      9 C          -7.8511  -18.2534   21.6674 C.2     1  UNL1        0.1957
     10 O          -6.3957  -18.2431   22.0303 O.2     1  UNL1       -0.2866
     11 C          -8.3295  -19.0779   20.5093 C.ar    1  UNL1        0.0421
     12 C          -9.7850  -19.0882   20.1465 C.ar    1  UNL1        0.0420
     13 C         -10.2634  -19.9127   18.9883 C.ar    1  UNL1        0.0033
     14 C          -9.2864  -20.7269   18.1930 C.ar    1  UNL1        0.0001
     15 C          -7.8309  -20.7166   18.5558 C.ar    1  UNL1        0.0002
     16 C          -7.3525  -19.8921   19.7140 C.ar    1  UNL1        0.0062
     17 C          -5.8971  -19.8819   20.0768 C.ar    1  UNL1        0.0397
     18 C          -5.1390  -21.0091   20.7128 C.ar    1  UNL1        0.1216
     19 N          -3.7176  -20.5665   20.8964 N.ar    1  UNL1       -0.1677
     20 N          -3.5972  -19.1656   20.3739 N.ar    1  UNL1       -0.2513
     21 C          -4.9442  -18.7424   19.8674 C.ar    1  UNL1        0.0965
     22 C          -2.3491  -18.3338   20.3604 C.3     1  UNL1        0.1080
     23 C          -1.1243  -18.8306   19.6510 C.3     1  UNL1        0.0415
     24 C           0.1238  -17.9989   19.6374 C.3     1  UNL1        0.0706
     25 N           0.1473  -16.6702   20.3332 N.3     1  UNL1       -0.2974
     26 C          -1.0775  -16.1734   21.0426 C.3     1  UNL1        0.0706
     27 C          -2.3256  -17.0052   21.0562 C.3     1  UNL1        0.0415
     28 H           0.3822  -15.9723   19.6275 H       1  UNL1        0.1232
@<TRIPOS>BOND
     1     1     2    2
     2     2     3    1
     3     3     4   ar
     4     4     5   ar
     5     5     6   ar
     6     6     7   ar
     7     7     8   ar
     8     8     9    1
     9     9    10    2
    10     9    11    1
    11    11    12   ar
    12    12    13   ar
    13    13    14   ar
    14    14    15   ar
    15    15    16   ar
    16    16    17    1
    17    17    18   ar
    18    18    19   ar
    19    19    20   ar
    20    20    22    1
    21    22    23    1
    22    23    24    1
    23    24    25    1
    24    25    26    1
    25    26    27    1
    26    20    21   ar
    27    12     2    1
    28    21    17   ar
    29     8     3   ar
    30    16    11   ar
    31    27    22    1
    32    25    28    1
@<TRIPOS>MOLECULE
*****
 28 32 0 0 0
SMALL
GASTEIGER

@<TRIPOS>ATOM
      1 O           6.9881   -0.4509   16.9122 O.2     1  UNL1       -0.2866
      2 C           5.6983   -0.2017   17.6362 C.2     1  UNL1        0.1957
      3 C           4.9452   -1.3484   18.2429 C.ar    1  UNL1        0.0420
      4 C           5.4820   -2.7441   18.1257 C.ar    1  UNL1        0.0033
      5 C           4.7289   -3.8907   18.7325 C.ar    1  UNL1        0.0001
      6 C           3.4390   -3.6415   19.4565 C.ar    1  UNL1        0.0001
      7 C           2.9022   -2.2458   19.5737 C.ar    1  UNL1        0.0033
      8 C           3.6553   -1.0993   18.9669 C.ar    1  UNL1        0.0420
      9 C           3.1185    0.2965   19.0841 C.2     1  UNL1        0.1957
     10 O           1.8287    0.5457   19.8081 O.2     1  UNL1       -0.2866
     11 C           3.8716    1.4431   18.4774 C.ar    1  UNL1        0.0421
     12 C           5.1615    1.1940   17.7534 C.ar    1  UNL1        0.0420
     13 C           5.9145    2.3407   17.1466 C.ar    1  UNL1        0.0033
     14 C           5.3777    3.7364   17.2638 C.ar    1  UNL1        0.0001
     15 C           4.0879    3.9855   17.9878 C.ar    1  UNL1        0.0002
     16 C           3.3348    2.8389   18.5946 C.ar    1  UNL1        0.0062
     17 C           2.0449    3.0881   19.3186 C.ar    1  UNL1        0.0397
     18 C           1.8930    3.3315   20.7909 C.ar    1  UNL1        0.1216
     19 N           0.4347    3.5314   21.0796 N.ar    1  UNL1       -0.1677
     20 N          -0.3147    3.4115   19.7858 N.ar    1  UNL1       -0.2513
     21 C           0.6804    3.1375   18.6973 C.ar    1  UNL1        0.0965
     22 C          -1.7987    3.5426   19.6110 C.3     1  UNL1        0.1080
     23 C          -2.3601    4.0355   18.3102 C.3     1  UNL1        0.0415
     24 C          -3.8440    4.1666   18.1354 C.3     1  UNL1        0.0706
     25 N          -4.7667    3.8047   19.2614 N.3     1  UNL1       -0.2974
     26 C          -4.2053    3.3118   20.5621 C.3     1  UNL1        0.0706
     27 C          -2.7213    3.1808   20.7369 C.3     1  UNL1        0.0415
     28 H          -5.3853    3.0731   18.9115 H       1  UNL1        0.1232
@<TRIPOS>BOND
     1     1     2    2
     2     2     3    1
     3     3     4   ar
     4     4     5   ar
     5     5     6   ar
     6     6     7   ar
     7     7     8   ar
     8     8     9    1
     9     9    10    2
    10     9    11    1
    11    11    12   ar
    12    12    13   ar
    13    13    14   ar
    14    14    15   ar
    15    15    16   ar
    16    16    17    1
    17    17    18   ar
    18    18    19   ar
    19    19    20   ar
    20    20    22    1
    21    22    23    1
    22    23    24    1
    23    24    25    1
    24    25    26    1
    25    26    27    1
    26    20    21   ar
    27    12     2    1
    28    21    17   ar
    29     8     3   ar
    30    16    11   ar
    31    27    22    1
    32    25    28    1
@<TRIPOS>MOLECULE
*****
 28 32 0 0 0
SMALL
GASTEIGER

@<TRIPOS>ATOM
      1 O           1.2888   -0.3336   19.2876 O.2     1  UNL1       -0.2866
      2 C           2.1575   -0.6621   20.4655 C.2     1  UNL1        0.1957
      3 C           1.8923   -0.0203   21.7952 C.ar    1  UNL1        0.0420
      4 C           0.7585    0.9499   21.9469 C.ar    1  UNL1        0.0033
      5 C           0.4934    1.5916   23.2765 C.ar    1  UNL1        0.0001
      6 C           1.3621    1.2631   24.4544 C.ar    1  UNL1        0.0001
      7 C           2.4959    0.2929   24.3026 C.ar    1  UNL1        0.0033
      8 C           2.7611   -0.3488   22.9731 C.ar    1  UNL1        0.0420
      9 C           3.8950   -1.3190   22.8213 C.2     1  UNL1        0.1957
     10 O           4.7637   -1.6475   23.9992 O.2     1  UNL1       -0.2866
     11 C           4.1601   -1.9607   21.4917 C.ar    1  UNL1        0.0421
     12 C           3.2914   -1.6323   20.3138 C.ar    1  UNL1        0.0420
     13 C           3.5566   -2.2740   18.9842 C.ar    1  UNL1        0.0033
     14 C           4.6904   -3.2442   18.8325 C.ar    1  UNL1        0.0001
     15 C           5.5592   -3.5727   20.0104 C.ar    1  UNL1        0.0002
     16 C           5.2940   -2.9310   21.3399 C.ar    1  UNL1        0.0062
     17 C           6.1628   -3.2594   22.5178 C.ar    1  UNL1        0.0397
     18 C           7.4628   -2.5973   22.8665 C.ar    1  UNL1        0.1216
     19 N           7.9875   -3.2364   24.1180 N.ar    1  UNL1       -0.1677
     20 N           7.0118   -4.2934   24.5429 N.ar    1  UNL1       -0.2513
     21 C           5.8840   -4.3077   23.5539 C.ar    1  UNL1        0.0965
     22 C           7.1410   -5.1805   25.7455 C.3     1  UNL1        0.1080
     23 C           7.6013   -6.5991   25.5852 C.3     1  UNL1        0.0415
     24 C           7.7305   -7.4862   26.7878 C.3     1  UNL1        0.0706
     25 N           7.3995   -6.9546   28.1508 N.3     1  UNL1       -0.2974
     26 C           6.9393   -5.5360   28.3112 C.3     1  UNL1        0.0706
     27 C           6.8100   -4.6489   27.1086 C.3     1  UNL1        0.0415
     28 H           8.2403   -7.0575   28.7191 H       1  UNL1        0.1232
@<TRIPOS>BOND
     1     1     2    2
     2     2     3    1
     3     3     4   ar
     4     4     5   ar
     5     5     6   ar
     6     6     7   ar
     7     7     8   ar
     8     8     9    1
     9     9    10    2
    10     9    11    1
    11    11    12   ar
    12    12    13   ar
    13    13    14   ar
    14    14    15   ar
    15    15    16   ar
    16    16    17    1
    17    17    18   ar
    18    18    19   ar
    19    19    20   ar
    20    20    22    1
    21    22    23    1
    22    23    24    1
    23    24    25    1
    24    25    26    1
    25    26    27    1
    26    20    21   ar
    27    12     2    1
    28    21    17   ar
    29     8     3   ar
    30    16    11   ar
    31    27    22    1
    32    25    28    1
@<TRIPOS>MOLECULE
*****
 28 32 0 0 0
SMALL
GASTEIGER

@<TRIPOS>ATOM
      1 O          -5.8098    4.2593   23.6715 O.2     1  UNL1       -0.2866
      2 C          -4.7256    3.9506   22.6820 C.2     1  UNL1        0.1957
      3 C          -5.0250    3.9664   21.2122 C.ar    1  UNL1        0.0420
      4 C          -6.4084    4.2909   20.7320 C.ar    1  UNL1        0.0033
      5 C          -6.7077    4.3066   19.2622 C.ar    1  UNL1        0.0001
      6 C          -5.6235    3.9979   18.2727 C.ar    1  UNL1        0.0001
      7 C          -4.2400    3.6734   18.7529 C.ar    1  UNL1        0.0033
      8 C          -3.9407    3.6576   20.2226 C.ar    1  UNL1        0.0420
      9 C          -2.5572    3.3331   20.7029 C.2     1  UNL1        0.1957
     10 O          -1.4730    3.0243   19.7134 O.2     1  UNL1       -0.2866
     11 C          -2.2579    3.3173   22.1726 C.ar    1  UNL1        0.0421
     12 C          -3.3422    3.6261   23.1622 C.ar    1  UNL1        0.0420
     13 C          -3.0428    3.6103   24.6320 C.ar    1  UNL1        0.0033
     14 C          -1.6594    3.2858   25.1122 C.ar    1  UNL1        0.0001
     15 C          -0.5751    2.9770   24.1226 C.ar    1  UNL1        0.0002
     16 C          -0.8744    2.9928   22.6529 C.ar    1  UNL1        0.0062
     17 C           0.2098    2.6840   21.6634 C.ar    1  UNL1        0.0397
     18 C           1.0914    3.6868   20.9799 C.ar    1  UNL1        0.1216
     19 N           2.0292    2.9408   20.0777 N.ar    1  UNL1       -0.1677
     20 N           1.7273    1.4769   20.2036 N.ar    1  UNL1       -0.2513
     21 C           0.6028    1.3181   21.1836 C.ar    1  UNL1        0.0965
     22 C           2.4269    0.3667   19.4771 C.3     1  UNL1        0.1080
     23 C           2.6168   -0.9634   20.1441 C.3     1  UNL1        0.0415
     24 C           3.3164   -2.0737   19.4175 C.3     1  UNL1        0.0706
     25 N           3.8262   -1.8539   18.0241 N.3     1  UNL1       -0.2974
     26 C           3.6363   -0.5237   17.3571 C.3     1  UNL1        0.0706
     27 C           2.9367    0.5865   18.0836 C.3     1  UNL1        0.0415
     28 H           3.3713   -2.5481   17.4312 H       1  UNL1        0.1232
@<TRIPOS>BOND
     1     1     2    2
     2     2     3    1
     3     3     4   ar
     4     4     5   ar
     5     5     6   ar
     6     6     7   ar
     7     7     8   ar
     8     8     9    1
     9     9    10    2
    10     9    11    1
    11    11    12   ar
    12    12    13   ar
    13    13    14   ar
    14    14    15   ar
    15    15    16   ar
    16    16    17    1
    17    17    18   ar
    18    18    19   ar
    19    19    20   ar
    20    20    22    1
    21    22    23    1
    22    23    24    1
    23    24    25    1
    24    25    26    1
    25    26    27    1
    26    20    21   ar
    27    12     2    1
    28    21    17   ar
    29     8     3   ar
    30    16    11   ar
    31    27    22    1
    32    25    28    1
@<TRIPOS>MOLECULE
*****
 28 32 0 0 0
SMALL
GASTEIGER

@<TRIPOS>ATOM
      1 O           2.9416   -1.9829   18.6924 O.2     1  UNL1       -0.2866
      2 C           2.9931   -1.5507   20.1278 C.2     1  UNL1        0.1957
      3 C           3.9179   -2.2410   21.0862 C.ar    1  UNL1        0.0420
      4 C           4.7910   -3.3635   20.6091 C.ar    1  UNL1        0.0033
      5 C           5.7157   -4.0537   21.5674 C.ar    1  UNL1        0.0001
      6 C           5.7672   -3.6215   23.0029 C.ar    1  UNL1        0.0001
      7 C           4.8941   -2.4991   23.4800 C.ar    1  UNL1        0.0033
      8 C           3.9694   -1.8089   22.5217 C.ar    1  UNL1        0.0420
      9 C           3.0962   -0.6864   22.9988 C.2     1  UNL1        0.1957
     10 O           3.1477   -0.2542   24.4342 O.2     1  UNL1       -0.2866
     11 C           2.1715    0.0039   22.0404 C.ar    1  UNL1        0.0421
     12 C           2.1200   -0.4283   20.6050 C.ar    1  UNL1        0.0420
     13 C           1.1952    0.2620   19.6466 C.ar    1  UNL1        0.0033
     14 C           0.3220    1.3845   20.1237 C.ar    1  UNL1        0.0001
     15 C           0.3736    1.8167   21.5592 C.ar    1  UNL1        0.0002
     16 C           1.2983    1.1264   22.5175 C.ar    1  UNL1        0.0062
     17 C           1.3498    1.5586   23.9530 C.ar    1  UNL1        0.0397
     18 C           2.2147    2.6475   24.5155 C.ar    1  UNL1        0.1216
     19 N           1.9449    2.7396   25.9881 N.ar    1  UNL1       -0.1677
     20 N           0.9133    1.7077   26.3359 N.ar    1  UNL1       -0.2513
     21 C           0.5455    0.9777   25.0781 C.ar    1  UNL1        0.0965
     22 C           0.3487    1.4508   27.7016 C.3     1  UNL1        0.1080
     23 C           1.0084    2.0460   28.9101 C.3     1  UNL1        0.0415
     24 C           0.4437    1.7891   30.2758 C.3     1  UNL1        0.0706
     25 N          -0.7807    0.9369   30.4329 N.3     1  UNL1       -0.2974
     26 C          -1.4403    0.3417   29.2244 C.3     1  UNL1        0.0706
     27 C          -0.8757    0.5986   27.8587 C.3     1  UNL1        0.0415
     28 H          -1.4825    1.5127   30.8979 H       1  UNL1        0.1232
@<TRIPOS>BOND
     1     1     2    2
     2     2     3    1
     3     3     4   ar
     4     4     5   ar
     5     5     6   ar
     6     6     7   ar
     7     7     8   ar
     8     8     9    1
     9     9    10    2
    10     9    11    1
    11    11    12   ar
    12    12    13   ar
    13    13    14   ar
    14    14    15   ar
    15    15    16   ar
    16    16    17    1
    17    17    18   ar
    18    18    19   ar
    19    19    20   ar
    20    20    22    1
    21    22    23    1
    22    23    24    1
    23    24    25    1
    24    25    26    1
    25    26    27    1
    26    20    21   ar
    27    12     2    1
    28    21    17   ar
    29     8     3   ar
    30    16    11   ar
    31    27    22    1
    32    25    28    1
@<TRIPOS>MOLECULE
*****
 28 32 0 0 0
SMALL
GASTEIGER

@<TRIPOS>ATOM
      1 O           5.9952   -4.0526   23.9506 O.2     1  UNL1       -0.2866
      2 C           5.0767   -2.9238   23.5868 C.2     1  UNL1        0.1957
      3 C           4.7511   -1.8658   24.5990 C.ar    1  UNL1        0.0420
      4 C           5.3441   -1.9365   25.9750 C.ar    1  UNL1        0.0033
      5 C           5.0185   -0.8784   26.9872 C.ar    1  UNL1        0.0001
      6 C           4.1000    0.2503   26.6234 C.ar    1  UNL1        0.0001
      7 C           3.5071    0.3210   25.2474 C.ar    1  UNL1        0.0033
      8 C           3.8327   -0.7371   24.2352 C.ar    1  UNL1        0.0420
      9 C           3.2397   -0.6664   22.8591 C.2     1  UNL1        0.1957
     10 O           2.3212    0.4623   22.4953 O.2     1  UNL1       -0.2866
     11 C           3.5653   -1.7244   21.8470 C.ar    1  UNL1        0.0421
     12 C           4.4838   -2.8531   22.2108 C.ar    1  UNL1        0.0420
     13 C           4.8094   -3.9112   21.1985 C.ar    1  UNL1        0.0033
     14 C           4.2165   -3.8405   19.8225 C.ar    1  UNL1        0.0001
     15 C           3.2980   -2.7118   19.4587 C.ar    1  UNL1        0.0002
     16 C           2.9724   -1.6538   20.4709 C.ar    1  UNL1        0.0062
     17 C           2.0539   -0.5250   20.1070 C.ar    1  UNL1        0.0397
     18 C           0.6030   -0.4163   20.4719 C.ar    1  UNL1        0.1216
     19 N           0.0774    0.8690   19.9049 N.ar    1  UNL1       -0.1677
     20 N           1.2035    1.5548   19.1895 N.ar    1  UNL1       -0.2513
     21 C           2.4251    0.6932   19.3144 C.ar    1  UNL1        0.0965
     22 C           1.1223    2.8710   18.4746 C.3     1  UNL1        0.1080
     23 C          -0.1799    3.3251   17.8848 C.3     1  UNL1        0.0415
     24 C          -0.2611    4.6413   17.1699 C.3     1  UNL1        0.0706
     25 N           0.9600    5.5034   17.0449 N.3     1  UNL1       -0.2974
     26 C           2.2623    5.0493   17.6348 C.3     1  UNL1        0.0706
     27 C           2.3434    3.7331   18.3496 C.3     1  UNL1        0.0415
     28 H           0.7351    6.3975   17.4811 H       1  UNL1        0.1232
@<TRIPOS>BOND
     1     1     2    2
     2     2     3    1
     3     3     4   ar
     4     4     5   ar
     5     5     6   ar
     6     6     7   ar
     7     7     8   ar
     8     8     9    1
     9     9    10    2
    10     9    11    1
    11    11    12   ar
    12    12    13   ar
    13    13    14   ar
    14    14    15   ar
    15    15    16   ar
    16    16    17    1
    17    17    18   ar
    18    18    19   ar
    19    19    20   ar
    20    20    22    1
    21    22    23    1
    22    23    24    1
    23    24    25    1
    24    25    26    1
    25    26    27    1
    26    20    21   ar
    27    12     2    1
    28    21    17   ar
    29     8     3   ar
    30    16    11   ar
    31    27    22    1
    32    25    28    1
@<TRIPOS>MOLECULE
*****
 28 32 0 0 0
SMALL
GASTEIGER

@<TRIPOS>ATOM
      1 O           5.0535   -2.8518   23.8875 O.2     1  UNL1       -0.2866
      2 C           4.0405   -1.7685   23.6633 C.2     1  UNL1        0.1957
      3 C           3.5285   -1.4951   22.2801 C.ar    1  UNL1        0.0420
      4 C           4.0296   -2.3049   21.1212 C.ar    1  UNL1        0.0033
      5 C           3.5177   -2.0314   19.7380 C.ar    1  UNL1        0.0001
      6 C           2.5046   -0.9481   19.5138 C.ar    1  UNL1        0.0001
      7 C           2.0035   -0.1383   20.6727 C.ar    1  UNL1        0.0033
      8 C           2.5155   -0.4118   22.0558 C.ar    1  UNL1        0.0420
      9 C           2.0144    0.3980   23.2148 C.2     1  UNL1        0.1957
     10 O           1.0014    1.4813   22.9906 O.2     1  UNL1       -0.2866
     11 C           2.5263    0.1245   24.5979 C.ar    1  UNL1        0.0421
     12 C           3.5394   -0.9587   24.8222 C.ar    1  UNL1        0.0420
     13 C           4.0513   -1.2322   26.2054 C.ar    1  UNL1        0.0033
     14 C           3.5502   -0.4224   27.3643 C.ar    1  UNL1        0.0001
     15 C           2.5372    0.6609   27.1400 C.ar    1  UNL1        0.0002
     16 C           2.0252    0.9344   25.7569 C.ar    1  UNL1        0.0062
     17 C           1.0122    2.0176   25.5327 C.ar    1  UNL1        0.0397
     18 C           1.3109    3.4462   25.1865 C.ar    1  UNL1        0.1216
     19 N           0.0059    4.1741   25.0551 N.ar    1  UNL1       -0.1677
     20 N          -1.0994    3.1953   25.3201 N.ar    1  UNL1       -0.2513
     21 C          -0.4775    1.8625   25.6153 C.ar    1  UNL1        0.0965
     22 C          -2.5686    3.4963   25.2945 C.3     1  UNL1        0.1080
     23 C          -3.2454    4.0349   26.5200 C.3     1  UNL1        0.0415
     24 C          -4.7147    4.3360   26.4944 C.3     1  UNL1        0.0706
     25 N          -5.5072    4.0983   25.2432 N.3     1  UNL1       -0.2974
     26 C          -4.8304    3.5597   24.0177 C.3     1  UNL1        0.0706
     27 C          -3.3611    3.2587   24.0433 C.3     1  UNL1        0.0415
     28 H          -5.9204    4.9935   24.9819 H       1  UNL1        0.1232
@<TRIPOS>BOND
     1     1     2    2
     2     2     3    1
     3     3     4   ar
     4     4     5   ar
     5     5     6   ar
     6     6     7   ar
     7     7     8   ar
     8     8     9    1
     9     9    10    2
    10     9    11    1
    11    11    12   ar
    12    12    13   ar
    13    13    14   ar
    14    14    15   ar
    15    15    16   ar
    16    16    17    1
    17    17    18   ar
    18    18    19   ar
    19    19    20   ar
    20    20    22    1
    21    22    23    1
    22    23    24    1
    23    24    25    1
    24    25    26    1
    25    26    27    1
    26    20    21   ar
    27    12     2    1
    28    21    17   ar
    29     8     3   ar
    30    16    11   ar
    31    27    22    1
    32    25    28    1
