@<TRIPOS>MOLECULE
*****
 23 26 0 0 0
SMALL
GASTEIGER

@<TRIPOS>ATOM
      1 C         -10.6799  -17.6810   22.5574 C.3     1  UNL1        0.0388
      2 C         -11.6394  -18.5496   21.7991 C.3     1  UNL1        0.0228
      3 C         -12.7134  -17.6691   21.2325 C.3     1  UNL1        0.0689
      4 N         -12.4177  -16.2563   21.6405 N.3     1  UNL1       -0.2972
      5 C         -11.1609  -16.2637   22.4593 C.3     1  UNL1        0.0729
      6 H         -13.1901  -15.8873   22.1952 H       1  UNL1        0.1233
      7 C          -5.1308  -14.6503   25.8215 C.3     1  UNL1        0.1305
      8 N          -6.4122  -15.3932   26.0584 N.ar    1  UNL1       -0.3240
      9 C          -6.9764  -15.7738   27.3951 C.ar    1  UNL1        0.0760
     10 C          -8.2673  -16.5018   27.1630 C.ar    1  UNL1        0.0201
     11 C          -8.5008  -16.5710   25.6830 C.ar    1  UNL1        0.0170
     12 C          -9.6093  -17.1694   24.8687 C.ar    1  UNL1       -0.0027
     13 C          -9.5714  -17.0826   23.3717 C.ar    1  UNL1       -0.0210
     14 C          -8.4249  -16.3975   22.6890 C.ar    1  UNL1       -0.0028
     15 C          -7.3163  -15.7991   23.5033 C.ar    1  UNL1        0.0169
     16 C          -7.3543  -15.8858   25.0002 C.ar    1  UNL1        0.0600
     17 C          -9.9672  -18.9733   22.8256 C.3     1  UNL1        0.0318
     18 C          -8.8316  -19.4006   21.9437 C.ar    1  UNL1       -0.0218
     19 C          -7.5883  -19.9810   22.5499 C.ar    1  UNL1       -0.0043
     20 C          -6.4528  -20.4083   21.6679 C.ar    1  UNL1       -0.0003
     21 C          -6.5605  -20.2553   20.1796 C.ar    1  UNL1       -0.0000
     22 C          -7.8037  -19.6750   19.5733 C.ar    1  UNL1       -0.0003
     23 C          -8.9393  -19.2476   20.4553 C.ar    1  UNL1       -0.0043
@<TRIPOS>BOND
     1     7     8    1
     2     8     9   ar
     3     9    10   ar
     4    10    11   ar
     5    11    12   ar
     6    12    13   ar
     7    13     1    1
     8     1    17    1
     9    17    18    1
    10    18    19   ar
    11    19    20   ar
    12    20    21   ar
    13    21    22   ar
    14    22    23   ar
    15     1     2    1
    16     2     3    1
    17     3     4    1
    18     4     5    1
    19    13    14   ar
    20    14    15   ar
    21    15    16   ar
    22    16     8   ar
    23    16    11   ar
    24     5     1    1
    25    23    18   ar
    26     4     6    1
@<TRIPOS>MOLECULE
*****
 23 26 0 0 0
SMALL
GASTEIGER

@<TRIPOS>ATOM
      1 C         -10.2912  -17.3559   21.4684 C.3     1  UNL1        0.0388
      2 C         -11.0540  -18.0559   20.3830 C.3     1  UNL1        0.0228
      3 C         -11.6878  -17.0106   19.5138 C.3     1  UNL1        0.0689
      4 N         -11.3168  -15.6646   20.0620 N.3     1  UNL1       -0.2972
      5 C         -10.4536  -15.8780   21.2700 C.3     1  UNL1        0.0729
      6 H         -12.1595  -15.1535   20.3246 H       1  UNL1        0.1233
      7 C          -6.8568  -15.6417   27.4600 C.3     1  UNL1        0.1305
      8 N          -6.7520  -15.6320   25.9636 N.ar    1  UNL1       -0.3240
      9 C          -5.5889  -15.1233   25.1645 C.ar    1  UNL1        0.0760
     10 C          -5.9100  -15.3062   23.7108 C.ar    1  UNL1        0.0201
     11 C          -7.2715  -15.9280   23.6114 C.ar    1  UNL1        0.0170
     12 C          -8.1046  -16.3368   22.4330 C.ar    1  UNL1       -0.0027
     13 C          -9.4580  -16.9470   22.6469 C.ar    1  UNL1       -0.0210
     14 C          -9.9784  -17.1483   24.0393 C.ar    1  UNL1       -0.0028
     15 C          -9.1453  -16.7395   25.2177 C.ar    1  UNL1        0.0169
     16 C          -7.7918  -16.1293   25.0038 C.ar    1  UNL1        0.0600
     17 C          -9.9546  -18.7483   21.9132 C.3     1  UNL1        0.0318
     18 C          -8.6469  -19.3668   21.5166 C.ar    1  UNL1       -0.0218
     19 C          -8.2398  -19.3994   20.0731 C.ar    1  UNL1       -0.0043
     20 C          -6.9321  -20.0179   19.6765 C.ar    1  UNL1       -0.0003
     21 C          -6.0314  -20.6038   20.7231 C.ar    1  UNL1       -0.0000
     22 C          -6.4384  -20.5712   22.1665 C.ar    1  UNL1       -0.0003
     23 C          -7.7462  -19.9527   22.5632 C.ar    1  UNL1       -0.0043
@<TRIPOS>BOND
     1     7     8    1
     2     8     9   ar
     3     9    10   ar
     4    10    11   ar
     5    11    12   ar
     6    12    13   ar
     7    13     1    1
     8     1    17    1
     9    17    18    1
    10    18    19   ar
    11    19    20   ar
    12    20    21   ar
    13    21    22   ar
    14    22    23   ar
    15     1     2    1
    16     2     3    1
    17     3     4    1
    18     4     5    1
    19    13    14   ar
    20    14    15   ar
    21    15    16   ar
    22    16     8   ar
    23    16    11   ar
    24     5     1    1
    25    23    18   ar
    26     4     6    1
@<TRIPOS>MOLECULE
*****
 23 26 0 0 0
SMALL
GASTEIGER

@<TRIPOS>ATOM
      1 C          -7.1872  -18.2440   22.5643 C.3     1  UNL1        0.0388
      2 C          -5.7098  -18.0575   22.3845 C.3     1  UNL1        0.0228
      3 C          -5.1102  -19.3933   22.0590 C.3     1  UNL1        0.0689
      4 N          -6.2170  -20.4054   22.0376 N.3     1  UNL1       -0.2972
      5 C          -7.5007  -19.6951   22.3499 C.3     1  UNL1        0.0729
      6 H          -6.0408  -21.1259   22.7379 H       1  UNL1        0.1233
      7 C         -14.1236  -18.1675   24.1496 C.3     1  UNL1        0.1305
      8 N         -13.0762  -17.5322   23.2838 N.ar    1  UNL1       -0.3240
      9 C         -13.3047  -16.4404   22.2810 C.ar    1  UNL1        0.0760
     10 C         -11.9862  -16.1107   21.6463 C.ar    1  UNL1        0.0201
     11 C         -10.9429  -16.9988   22.2568 C.ar    1  UNL1        0.0170
     12 C          -9.4665  -17.1210   22.0219 C.ar    1  UNL1       -0.0027
     13 C          -8.6637  -18.1217   22.7991 C.ar    1  UNL1       -0.0210
     14 C          -9.3374  -19.0003   23.8112 C.ar    1  UNL1       -0.0028
     15 C         -10.8138  -18.8781   24.0461 C.ar    1  UNL1        0.0169
     16 C         -11.6165  -17.8774   23.2689 C.ar    1  UNL1        0.0600
     17 C          -7.1824  -16.7673   22.8278 C.3     1  UNL1        0.0318
     18 C          -6.9387  -16.2540   24.2159 C.ar    1  UNL1       -0.0218
     19 C          -5.5447  -15.9203   24.6583 C.ar    1  UNL1       -0.0043
     20 C          -5.3010  -15.4070   26.0465 C.ar    1  UNL1       -0.0003
     21 C          -6.4513  -15.2273   26.9924 C.ar    1  UNL1       -0.0000
     22 C          -7.8452  -15.5609   26.5501 C.ar    1  UNL1       -0.0003
     23 C          -8.0890  -16.0743   25.1618 C.ar    1  UNL1       -0.0043
@<TRIPOS>BOND
     1     7     8    1
     2     8     9   ar
     3     9    10   ar
     4    10    11   ar
     5    11    12   ar
     6    12    13   ar
     7    13     1    1
     8     1    17    1
     9    17    18    1
    10    18    19   ar
    11    19    20   ar
    12    20    21   ar
    13    21    22   ar
    14    22    23   ar
    15     1     2    1
    16     2     3    1
    17     3     4    1
    18     4     5    1
    19    13    14   ar
    20    14    15   ar
    21    15    16   ar
    22    16     8   ar
    23    16    11   ar
    24     5     1    1
    25    23    18   ar
    26     4     6    1
@<TRIPOS>MOLECULE
*****
 23 26 0 0 0
SMALL
GASTEIGER

@<TRIPOS>ATOM
      1 C          -7.2873  -15.6960   24.8394 C.3     1  UNL1        0.0388
      2 C          -6.0476  -15.5613   25.6730 C.3     1  UNL1        0.0228
      3 C          -6.4560  -15.5726   27.1163 C.3     1  UNL1        0.0689
      4 N          -7.9481  -15.7143   27.1747 N.3     1  UNL1       -0.2972
      5 C          -8.4619  -15.7906   25.7675 C.3     1  UNL1        0.0729
      6 H          -8.3542  -14.9073   27.6482 H       1  UNL1        0.1233
      7 C         -11.8150  -15.8598   19.3526 C.3     1  UNL1        0.1305
      8 N         -11.5944  -16.3565   20.7507 N.ar    1  UNL1       -0.3240
      9 C         -12.5234  -17.2401   21.5293 C.ar    1  UNL1        0.0760
     10 C         -11.9091  -17.4864   22.8754 C.ar    1  UNL1        0.0201
     11 C         -10.6006  -16.7551   22.9287 C.ar    1  UNL1        0.0170
     12 C          -9.5610  -16.6349   24.0034 C.ar    1  UNL1       -0.0027
     13 C          -8.3270  -15.8163   23.7648 C.ar    1  UNL1       -0.0210
     14 C          -8.1324  -15.1179   22.4516 C.ar    1  UNL1       -0.0028
     15 C          -9.1720  -15.2381   21.3770 C.ar    1  UNL1        0.0169
     16 C         -10.4060  -16.0567   21.6156 C.ar    1  UNL1        0.0600
     17 C          -6.3301  -15.6266   23.6867 C.3     1  UNL1        0.0318
     18 C          -5.5573  -16.8459   23.2791 C.ar    1  UNL1       -0.0218
     19 C          -6.2709  -18.0189   22.6749 C.ar    1  UNL1       -0.0043
     20 C          -5.4981  -19.2382   22.2673 C.ar    1  UNL1       -0.0003
     21 C          -4.0118  -19.2845   22.4639 C.ar    1  UNL1       -0.0000
     22 C          -3.2982  -18.1116   23.0680 C.ar    1  UNL1       -0.0003
     23 C          -4.0710  -16.8922   23.4756 C.ar    1  UNL1       -0.0043
@<TRIPOS>BOND
     1     7     8    1
     2     8     9   ar
     3     9    10   ar
     4    10    11   ar
     5    11    12   ar
     6    12    13   ar
     7    13     1    1
     8     1    17    1
     9    17    18    1
    10    18    19   ar
    11    19    20   ar
    12    20    21   ar
    13    21    22   ar
    14    22    23   ar
    15     1     2    1
    16     2     3    1
    17     3     4    1
    18     4     5    1
    19    13    14   ar
    20    14    15   ar
    21    15    16   ar
    22    16     8   ar
    23    16    11   ar
    24     5     1    1
    25    23    18   ar
    26     4     6    1
@<TRIPOS>MOLECULE
*****
 23 26 0 0 0
SMALL
GASTEIGER

@<TRIPOS>ATOM
      1 C          -7.7586  -16.6970   23.7375 C.3     1  UNL1        0.0388
      2 C          -9.0535  -16.2245   24.3291 C.3     1  UNL1        0.0228
      3 C          -8.8374  -14.8443   24.8751 C.3     1  UNL1        0.0689
      4 N          -7.4090  -14.4637   24.6210 N.3     1  UNL1       -0.2972
      5 C          -6.7422  -15.6087   23.9179 C.3     1  UNL1        0.0729
      6 H          -6.9372  -14.2791   25.5063 H       1  UNL1        0.1233
      7 C          -1.9611  -19.7861   21.0028 C.3     1  UNL1        0.1305
      8 N          -3.4602  -19.7742   20.9520 N.ar    1  UNL1       -0.3240
      9 C          -4.3198  -20.6415   20.0808 C.ar    1  UNL1        0.0760
     10 C          -5.7537  -20.2962   20.3538 C.ar    1  UNL1        0.0201
     11 C          -5.7804  -19.2155   21.3937 C.ar    1  UNL1        0.0170
     12 C          -6.9123  -18.4836   22.0517 C.ar    1  UNL1       -0.0027
     13 C          -6.6267  -17.4290   23.0795 C.ar    1  UNL1       -0.0210
     14 C          -5.2092  -17.1064   23.4492 C.ar    1  UNL1       -0.0028
     15 C          -4.0774  -17.8384   22.7911 C.ar    1  UNL1        0.0169
     16 C          -4.3629  -18.8929   21.7634 C.ar    1  UNL1        0.0600
     17 C          -8.5384  -17.9383   23.4196 C.3     1  UNL1        0.0318
     18 C          -9.9487  -17.8307   22.9202 C.ar    1  UNL1       -0.0218
     19 C         -11.0833  -18.3323   23.7636 C.ar    1  UNL1       -0.0043
     20 C         -12.4936  -18.2247   23.2642 C.ar    1  UNL1       -0.0003
     21 C         -12.7695  -17.6155   21.9215 C.ar    1  UNL1       -0.0000
     22 C         -11.6349  -17.1139   21.0782 C.ar    1  UNL1       -0.0003
     23 C         -10.2245  -17.2215   21.5775 C.ar    1  UNL1       -0.0043
@<TRIPOS>BOND
     1     7     8    1
     2     8     9   ar
     3     9    10   ar
     4    10    11   ar
     5    11    12   ar
     6    12    13   ar
     7    13     1    1
     8     1    17    1
     9    17    18    1
    10    18    19   ar
    11    19    20   ar
    12    20    21   ar
    13    21    22   ar
    14    22    23   ar
    15     1     2    1
    16     2     3    1
    17     3     4    1
    18     4     5    1
    19    13    14   ar
    20    14    15   ar
    21    15    16   ar
    22    16     8   ar
    23    16    11   ar
    24     5     1    1
    25    23    18   ar
    26     4     6    1
@<TRIPOS>MOLECULE
*****
 23 26 0 0 0
SMALL
GASTEIGER

@<TRIPOS>ATOM
      1 C          -8.6947  -19.3404   20.7426 C.3     1  UNL1        0.0388
      2 C         -10.1858  -19.4509   20.6231 C.3     1  UNL1        0.0228
      3 C         -10.5070  -19.9001   19.2285 C.3     1  UNL1        0.0689
      4 N          -9.2144  -20.0674   18.4860 N.3     1  UNL1       -0.2972
      5 C          -8.0943  -19.7214   19.4219 C.3     1  UNL1        0.0729
      6 H          -9.1959  -19.4443   17.6787 H       1  UNL1        0.1233
      7 C          -2.1560  -17.9540   23.1829 C.3     1  UNL1        0.1305
      8 N          -2.9222  -18.7513   22.1693 N.ar    1  UNL1       -0.3240
      9 C          -2.3344  -19.6960   21.1633 C.ar    1  UNL1        0.0760
     10 C          -3.4596  -20.2724   20.3562 C.ar    1  UNL1        0.0201
     11 C          -4.7428  -19.6841   20.8633 C.ar    1  UNL1        0.0170
     12 C          -6.1708  -19.8829   20.4495 C.ar    1  UNL1       -0.0027
     13 C          -7.2666  -19.1416   21.1564 C.ar    1  UNL1       -0.0210
     14 C          -6.9344  -18.2015   22.2770 C.ar    1  UNL1       -0.0028
     15 C          -5.5065  -18.0027   22.6908 C.ar    1  UNL1        0.0169
     16 C          -4.4107  -18.7439   21.9840 C.ar    1  UNL1        0.0600
     17 C          -8.9965  -18.9179   22.1498 C.3     1  UNL1        0.0318
     18 C         -10.2776  -18.2017   22.4594 C.ar    1  UNL1       -0.0218
     19 C         -11.3488  -18.8899   23.2528 C.ar    1  UNL1       -0.0043
     20 C         -12.6299  -18.1737   23.5623 C.ar    1  UNL1       -0.0003
     21 C         -12.8400  -16.7695   23.0786 C.ar    1  UNL1       -0.0000
     22 C         -11.7689  -16.0813   22.2854 C.ar    1  UNL1       -0.0003
     23 C         -10.4877  -16.7975   21.9757 C.ar    1  UNL1       -0.0043
@<TRIPOS>BOND
     1     7     8    1
     2     8     9   ar
     3     9    10   ar
     4    10    11   ar
     5    11    12   ar
     6    12    13   ar
     7    13     1    1
     8     1    17    1
     9    17    18    1
    10    18    19   ar
    11    19    20   ar
    12    20    21   ar
    13    21    22   ar
    14    22    23   ar
    15     1     2    1
    16     2     3    1
    17     3     4    1
    18     4     5    1
    19    13    14   ar
    20    14    15   ar
    21    15    16   ar
    22    16     8   ar
    23    16    11   ar
    24     5     1    1
    25    23    18   ar
    26     4     6    1
@<TRIPOS>MOLECULE
*****
 23 26 0 0 0
SMALL
GASTEIGER

@<TRIPOS>ATOM
      1 C          -9.0915  -17.3190   22.6664 C.3     1  UNL1        0.0388
      2 C         -10.1230  -16.4162   23.2754 C.3     1  UNL1        0.0228
      3 C         -11.4497  -17.1121   23.2016 C.3     1  UNL1        0.0689
      4 N         -11.2383  -18.4450   22.5470 N.3     1  UNL1       -0.2972
      5 C          -9.7808  -18.5729   22.2162 C.3     1  UNL1        0.0729
      6 H         -11.7934  -18.5034   21.6933 H       1  UNL1        0.1233
      7 C          -3.6485  -20.7052   19.5777 C.3     1  UNL1        0.1305
      8 N          -4.0385  -19.8838   20.7707 N.ar    1  UNL1       -0.3240
      9 C          -3.1318  -19.4731   21.8928 C.ar    1  UNL1        0.0760
     10 C          -3.9366  -18.6644   22.8667 C.ar    1  UNL1        0.0201
     11 C          -5.3406  -18.5754   22.3464 C.ar    1  UNL1        0.0170
     12 C          -6.5699  -17.9054   22.8849 C.ar    1  UNL1       -0.0027
     13 C          -7.8622  -17.9890   22.1279 C.ar    1  UNL1       -0.0210
     14 C          -7.9251  -18.7427   20.8325 C.ar    1  UNL1       -0.0028
     15 C          -6.6959  -19.4126   20.2941 C.ar    1  UNL1        0.0169
     16 C          -5.4036  -19.3290   21.0510 C.ar    1  UNL1        0.0600
     17 C          -8.1452  -16.2052   23.0039 C.3     1  UNL1        0.0318
     18 C          -7.7332  -15.9769   24.4280 C.ar    1  UNL1       -0.0218
     19 C          -6.4430  -15.2747   24.7321 C.ar    1  UNL1       -0.0043
     20 C          -6.0309  -15.0465   26.1562 C.ar    1  UNL1       -0.0003
     21 C          -6.9089  -15.5204   27.2763 C.ar    1  UNL1       -0.0000
     22 C          -8.1991  -16.2225   26.9722 C.ar    1  UNL1       -0.0003
     23 C          -8.6112  -16.4508   25.5481 C.ar    1  UNL1       -0.0043
@<TRIPOS>BOND
     1     7     8    1
     2     8     9   ar
     3     9    10   ar
     4    10    11   ar
     5    11    12   ar
     6    12    13   ar
     7    13     1    1
     8     1    17    1
     9    17    18    1
    10    18    19   ar
    11    19    20   ar
    12    20    21   ar
    13    21    22   ar
    14    22    23   ar
    15     1     2    1
    16     2     3    1
    17     3     4    1
    18     4     5    1
    19    13    14   ar
    20    14    15   ar
    21    15    16   ar
    22    16     8   ar
    23    16    11   ar
    24     5     1    1
    25    23    18   ar
    26     4     6    1
@<TRIPOS>MOLECULE
*****
 23 26 0 0 0
SMALL
GASTEIGER

@<TRIPOS>ATOM
      1 C         -11.1844   -6.0894   18.6700 C.3     1  UNL1        0.0388
      2 C          -9.7352   -6.2361   19.0281 C.3     1  UNL1        0.0228
      3 C          -9.2885   -7.6031   18.6020 C.3     1  UNL1        0.0689
      4 N         -10.4616   -8.3014   17.9806 N.3     1  UNL1       -0.2972
      5 C         -11.6334   -7.3659   18.0226 C.3     1  UNL1        0.0729
      6 H         -10.6769   -9.1496   18.5047 H       1  UNL1        0.1233
      7 C         -17.8002   -4.1647   16.8925 C.3     1  UNL1        0.1305
      8 N         -16.8568   -4.3166   18.0488 N.ar    1  UNL1       -0.3240
      9 C         -17.1683   -4.0195   19.4857 C.ar    1  UNL1        0.0760
     10 C         -15.9404   -4.3116   20.2961 C.ar    1  UNL1        0.0201
     11 C         -14.8699   -4.7891   19.3600 C.ar    1  UNL1        0.0170
     12 C         -13.4527   -5.2215   19.5930 C.ar    1  UNL1       -0.0027
     13 C         -12.6018   -5.6570   18.4370 C.ar    1  UNL1       -0.0210
     14 C         -13.1682   -5.6601   17.0481 C.ar    1  UNL1       -0.0028
     15 C         -14.5855   -5.2277   16.8151 C.ar    1  UNL1        0.0169
     16 C         -15.4363   -4.7922   17.9711 C.ar    1  UNL1        0.0600
     17 C         -11.0318   -4.7226   19.2686 C.3     1  UNL1        0.0318
     18 C         -10.8221   -3.5333   18.3789 C.ar    1  UNL1       -0.0218
     19 C         -10.0435   -3.6777   17.1049 C.ar    1  UNL1       -0.0043
     20 C          -9.8338   -2.4884   16.2152 C.ar    1  UNL1       -0.0003
     21 C         -10.4027   -1.1547   16.5994 C.ar    1  UNL1       -0.0000
     22 C         -11.1813   -1.0103   17.8733 C.ar    1  UNL1       -0.0003
     23 C         -11.3910   -2.1996   18.7631 C.ar    1  UNL1       -0.0043
@<TRIPOS>BOND
     1     7     8    1
     2     8     9   ar
     3     9    10   ar
     4    10    11   ar
     5    11    12   ar
     6    12    13   ar
     7    13     1    1
     8     1    17    1
     9    17    18    1
    10    18    19   ar
    11    19    20   ar
    12    20    21   ar
    13    21    22   ar
    14    22    23   ar
    15     1     2    1
    16     2     3    1
    17     3     4    1
    18     4     5    1
    19    13    14   ar
    20    14    15   ar
    21    15    16   ar
    22    16     8   ar
    23    16    11   ar
    24     5     1    1
    25    23    18   ar
    26     4     6    1
@<TRIPOS>MOLECULE
*****
 23 26 0 0 0
SMALL
GASTEIGER

@<TRIPOS>ATOM
      1 C          -5.9047  -17.1318   23.0676 C.3     1  UNL1        0.0388
      2 C          -4.5375  -16.8078   23.5925 C.3     1  UNL1        0.0228
      3 C          -3.6437  -17.9794   23.3121 C.3     1  UNL1        0.0689
      4 N          -4.4585  -19.0274   22.6139 N.3     1  UNL1       -0.2972
      5 C          -5.8560  -18.5036   22.4627 C.3     1  UNL1        0.0729
      6 H          -4.4680  -19.8842   23.1673 H       1  UNL1        0.1233
      7 C         -12.6616  -16.6583   20.8876 C.3     1  UNL1        0.1305
      8 N         -11.6547  -17.5825   21.5056 N.ar    1  UNL1       -0.3240
      9 C         -11.8996  -19.0031   21.9201 C.ar    1  UNL1        0.0760
     10 C         -10.6223  -19.5469   22.4882 C.ar    1  UNL1        0.0201
     11 C          -9.5879  -18.4624   22.4247 C.ar    1  UNL1        0.0170
     12 C          -8.1476  -18.4236   22.8414 C.ar    1  UNL1       -0.0027
     13 C          -7.3452  -17.1707   22.6508 C.ar    1  UNL1       -0.0210
     14 C          -7.9833  -15.9566   22.0435 C.ar    1  UNL1       -0.0028
     15 C          -9.4236  -15.9954   21.6268 C.ar    1  UNL1        0.0169
     16 C         -10.2260  -17.2483   21.8174 C.ar    1  UNL1        0.0600
     17 C          -6.2546  -15.7682   23.5853 C.3     1  UNL1        0.0318
     18 C          -6.8021  -15.6105   24.9728 C.ar    1  UNL1       -0.0218
     19 C          -8.2841  -15.5275   25.1895 C.ar    1  UNL1       -0.0043
     20 C          -8.8316  -15.3698   26.5771 C.ar    1  UNL1       -0.0003
     21 C          -7.8971  -15.2951   27.7480 C.ar    1  UNL1       -0.0000
     22 C          -6.4152  -15.3781   27.5315 C.ar    1  UNL1       -0.0003
     23 C          -5.8676  -15.5358   26.1438 C.ar    1  UNL1       -0.0043
@<TRIPOS>BOND
     1     7     8    1
     2     8     9   ar
     3     9    10   ar
     4    10    11   ar
     5    11    12   ar
     6    12    13   ar
     7    13     1    1
     8     1    17    1
     9    17    18    1
    10    18    19   ar
    11    19    20   ar
    12    20    21   ar
    13    21    22   ar
    14    22    23   ar
    15     1     2    1
    16     2     3    1
    17     3     4    1
    18     4     5    1
    19    13    14   ar
    20    14    15   ar
    21    15    16   ar
    22    16     8   ar
    23    16    11   ar
    24     5     1    1
    25    23    18   ar
    26     4     6    1
