@<TRIPOS>MOLECULE
*****
 22 23 0 0 0
SMALL
GASTEIGER

@<TRIPOS>ATOM
      1 C          -6.8408  -19.2984   20.3958 C.3     1  UNL1        0.2357
      2 C          -5.5076  -18.8877   20.9471 C.3     1  UNL1        0.1683
      3 O          -5.4258  -18.2006   22.2780 O.3     1  UNL1       -0.3794
      4 H          -4.4984  -18.0053   22.4845 H       1  UNL1        0.2106
      5 C          -4.2562  -19.1641   20.1675 C.3     1  UNL1        0.0850
      6 C          -3.8124  -20.5785   19.9384 C.3     1  UNL1        0.0198
      7 N          -3.4487  -18.0262   19.6172 N.3     1  UNL1       -0.2976
      8 H          -3.2213  -18.2662   18.6522 H       1  UNL1        0.1232
      9 C          -0.8591  -18.1704   19.7704 C.3     1  UNL1        0.0171
     10 C          -2.1625  -17.6300   20.2795 C.3     1  UNL1        0.0541
     11 C          -2.1797  -16.6933   21.4510 C.3     1  UNL1        0.0171
     12 O          -8.0720  -18.5194   20.7523 O.3     1  UNL1       -0.4728
     13 C          -8.9331  -18.9608   21.8986 C.ar    1  UNL1        0.1386
     14 C          -8.4445  -20.0232   22.8380 C.ar    1  UNL1        0.0369
     15 C          -9.3055  -20.4646   23.9842 C.ar    1  UNL1        0.0031
     16 C         -10.6551  -19.8436   24.1910 C.ar    1  UNL1        0.0002
     17 C         -11.1438  -18.7812   23.2516 C.ar    1  UNL1        0.0029
     18 C         -12.4934  -18.1601   23.4584 C.ar    1  UNL1        0.0001
     19 C         -12.9820  -17.0978   22.5190 C.ar    1  UNL1        0.0000
     20 C         -12.1210  -16.6564   21.3727 C.ar    1  UNL1        0.0001
     21 C         -10.7714  -17.2774   21.1659 C.ar    1  UNL1        0.0030
     22 C         -10.2828  -18.3398   22.1053 C.ar    1  UNL1        0.0340
@<TRIPOS>BOND
     1     9    10    1
     2    10    11    1
     3    10     7    1
     4     7     5    1
     5     5     6    1
     6     5     2    1
     7     2     3    1
     8     2     1    1
     9     1    12    1
    10    12    13    1
    11    13    14   ar
    12    14    15   ar
    13    15    16   ar
    14    16    17   ar
    15    17    18   ar
    16    18    19   ar
    17    19    20   ar
    18    20    21   ar
    19    21    22   ar
    20    22    13   ar
    21    22    17   ar
    22     7     8    1
    23     3     4    1
@<TRIPOS>MOLECULE
*****
 22 23 0 0 0
SMALL
GASTEIGER

@<TRIPOS>ATOM
      1 C          -8.3121  -16.9350   22.4215 C.3     1  UNL1        0.2357
      2 C          -9.4015  -16.4274   23.3189 C.3     1  UNL1        0.1683
      3 O          -9.1086  -15.3464   24.3167 O.3     1  UNL1       -0.3794
      4 H          -9.9155  -15.1366   24.8123 H       1  UNL1        0.2106
      5 C         -10.7840  -17.0009   23.2186 C.3     1  UNL1        0.0850
      6 C         -11.8603  -16.2424   22.5002 C.3     1  UNL1        0.0198
      7 N         -11.0900  -18.3329   23.8368 N.3     1  UNL1       -0.2976
      8 H         -10.7739  -18.2876   24.8055 H       1  UNL1        0.1232
      9 C         -10.9174  -20.0296   21.8768 C.3     1  UNL1        0.0171
     10 C         -10.5074  -19.5840   23.2492 C.3     1  UNL1        0.0541
     11 C          -9.5149  -20.3896   24.0340 C.3     1  UNL1        0.0171
     12 O          -7.2229  -17.8018   22.9803 O.3     1  UNL1       -0.4728
     13 C          -6.4668  -18.7314   22.0780 C.ar    1  UNL1        0.1386
     14 C          -7.2106  -19.6632   21.1679 C.ar    1  UNL1        0.0369
     15 C          -6.4545  -20.5928   20.2655 C.ar    1  UNL1        0.0031
     16 C          -4.9546  -20.5905   20.2733 C.ar    1  UNL1        0.0002
     17 C          -4.2107  -19.6587   21.1835 C.ar    1  UNL1        0.0029
     18 C          -2.7107  -19.6565   21.1913 C.ar    1  UNL1        0.0001
     19 C          -1.9669  -18.7246   22.1014 C.ar    1  UNL1        0.0000
     20 C          -2.7230  -17.7951   23.0037 C.ar    1  UNL1        0.0001
     21 C          -4.2229  -17.7973   22.9959 C.ar    1  UNL1        0.0030
     22 C          -4.9668  -18.7291   22.0858 C.ar    1  UNL1        0.0340
@<TRIPOS>BOND
     1     9    10    1
     2    10    11    1
     3    10     7    1
     4     7     5    1
     5     5     6    1
     6     5     2    1
     7     2     3    1
     8     2     1    1
     9     1    12    1
    10    12    13    1
    11    13    14   ar
    12    14    15   ar
    13    15    16   ar
    14    16    17   ar
    15    17    18   ar
    16    18    19   ar
    17    19    20   ar
    18    20    21   ar
    19    21    22   ar
    20    22    13   ar
    21    22    17   ar
    22     7     8    1
    23     3     4    1
@<TRIPOS>MOLECULE
*****
 22 23 0 0 0
SMALL
GASTEIGER

@<TRIPOS>ATOM
      1 C          -5.3492  -19.2150   22.2678 C.3     1  UNL1        0.2357
      2 C          -3.8833  -18.9846   22.0481 C.3     1  UNL1        0.1683
      3 O          -3.1189  -18.0837   22.9722 O.3     1  UNL1       -0.3794
      4 H          -2.1913  -18.0445   22.6914 H       1  UNL1        0.2106
      5 C          -3.1819  -19.6553   20.9043 C.3     1  UNL1        0.0850
      6 C          -3.9448  -20.5619   19.9844 C.3     1  UNL1        0.0198
      7 N          -1.7176  -19.4194   20.6804 N.3     1  UNL1       -0.2976
      8 H          -1.2929  -19.3090   21.6012 H       1  UNL1        0.1232
      9 C          -2.1988  -17.6313   18.8581 C.3     1  UNL1        0.0171
     10 C          -1.2637  -18.2544   19.8517 C.3     1  UNL1        0.0541
     11 C           0.1252  -17.7125   20.0167 C.3     1  UNL1        0.0171
     12 O          -6.3503  -18.2292   21.7425 O.3     1  UNL1       -0.4728
     13 C          -7.6198  -18.7151   21.1084 C.ar    1  UNL1        0.1386
     14 C          -7.5842  -19.3523   19.7510 C.ar    1  UNL1        0.0369
     15 C          -8.8537  -19.8382   19.1169 C.ar    1  UNL1        0.0031
     16 C         -10.1590  -19.6870   19.8403 C.ar    1  UNL1        0.0002
     17 C         -10.1947  -19.0498   21.1979 C.ar    1  UNL1        0.0029
     18 C         -11.5000  -18.8986   21.9213 C.ar    1  UNL1        0.0001
     19 C         -11.5357  -18.2614   23.2787 C.ar    1  UNL1        0.0000
     20 C         -10.2661  -17.7755   23.9128 C.ar    1  UNL1        0.0001
     21 C          -8.9608  -17.9267   23.1894 C.ar    1  UNL1        0.0030
     22 C          -8.9252  -18.5639   21.8319 C.ar    1  UNL1        0.0340
@<TRIPOS>BOND
     1     9    10    1
     2    10    11    1
     3    10     7    1
     4     7     5    1
     5     5     6    1
     6     5     2    1
     7     2     3    1
     8     2     1    1
     9     1    12    1
    10    12    13    1
    11    13    14   ar
    12    14    15   ar
    13    15    16   ar
    14    16    17   ar
    15    17    18   ar
    16    18    19   ar
    17    19    20   ar
    18    20    21   ar
    19    21    22   ar
    20    22    13   ar
    21    22    17   ar
    22     7     8    1
    23     3     4    1
@<TRIPOS>MOLECULE
*****
 22 23 0 0 0
SMALL
GASTEIGER

@<TRIPOS>ATOM
      1 C          -8.2614  -17.7000   21.7938 C.3     1  UNL1        0.2357
      2 C          -8.7352  -16.4113   22.3976 C.3     1  UNL1        0.1683
      3 O          -8.8096  -15.1716   21.5565 O.3     1  UNL1       -0.3794
      4 H          -9.1331  -14.4335   22.0963 H       1  UNL1        0.2106
      5 C          -9.1347  -16.3623   23.8427 C.3     1  UNL1        0.0850
      6 C          -9.9558  -17.4707   24.4318 C.3     1  UNL1        0.0198
      7 N          -8.7131  -15.2048   24.6985 N.3     1  UNL1       -0.2976
      8 H          -8.3200  -14.5028   24.0716 H       1  UNL1        0.1232
      9 C          -6.2482  -15.4420   25.4848 C.3     1  UNL1        0.0171
     10 C          -7.7147  -15.4103   25.7989 C.3     1  UNL1        0.0541
     11 C          -8.1826  -15.5841   27.2134 C.3     1  UNL1        0.0171
     12 O          -7.2255  -18.5231   22.5005 O.3     1  UNL1       -0.4728
     13 C          -6.2003  -19.2795   21.7087 C.ar    1  UNL1        0.1386
     14 C          -6.6341  -20.3282   20.7279 C.ar    1  UNL1        0.0369
     15 C          -5.6089  -21.0845   19.9361 C.ar    1  UNL1        0.0031
     16 C          -4.1499  -20.7921   20.1251 C.ar    1  UNL1        0.0002
     17 C          -3.7160  -19.7433   21.1059 C.ar    1  UNL1        0.0029
     18 C          -2.2570  -19.4510   21.2949 C.ar    1  UNL1        0.0001
     19 C          -1.8232  -18.4023   22.2756 C.ar    1  UNL1        0.0000
     20 C          -2.8484  -17.6459   23.0674 C.ar    1  UNL1        0.0001
     21 C          -4.3074  -17.9383   22.8785 C.ar    1  UNL1        0.0030
     22 C          -4.7412  -18.9870   21.8977 C.ar    1  UNL1        0.0340
@<TRIPOS>BOND
     1     9    10    1
     2    10    11    1
     3    10     7    1
     4     7     5    1
     5     5     6    1
     6     5     2    1
     7     2     3    1
     8     2     1    1
     9     1    12    1
    10    12    13    1
    11    13    14   ar
    12    14    15   ar
    13    15    16   ar
    14    16    17   ar
    15    17    18   ar
    16    18    19   ar
    17    19    20   ar
    18    20    21   ar
    19    21    22   ar
    20    22    13   ar
    21    22    17   ar
    22     7     8    1
    23     3     4    1
@<TRIPOS>MOLECULE
*****
 22 23 0 0 0
SMALL
GASTEIGER

@<TRIPOS>ATOM
      1 C          -6.6978  -19.2359   21.9485 C.3     1  UNL1        0.2357
      2 C          -5.7005  -19.0244   20.8482 C.3     1  UNL1        0.1683
      3 O          -6.1586  -18.5460   19.5024 O.3     1  UNL1       -0.3794
      4 H          -5.3939  -18.4623   18.9115 H       1  UNL1        0.2106
      5 C          -4.2449  -19.2913   21.0938 C.3     1  UNL1        0.0850
      6 C          -3.7167  -19.3345   22.4971 C.3     1  UNL1        0.0198
      7 N          -3.3177  -19.5149   19.9362 N.3     1  UNL1       -0.2976
      8 H          -2.7455  -20.3264   20.1698 H       1  UNL1        0.1232
      9 C          -0.9530  -18.4398   19.9867 C.3     1  UNL1        0.0171
     10 C          -2.3751  -18.4289   19.5096 C.3     1  UNL1        0.0541
     11 C          -2.8547  -17.3318   18.6060 C.3     1  UNL1        0.0171
     12 O          -8.0441  -19.8201   21.6383 O.3     1  UNL1       -0.4728
     13 C          -9.2084  -19.5426   22.5424 C.ar    1  UNL1        0.1386
     14 C          -9.2425  -20.1287   23.9227 C.ar    1  UNL1        0.0369
     15 C         -10.4068  -19.8513   24.8268 C.ar    1  UNL1        0.0031
     16 C         -11.5371  -18.9878   24.3505 C.ar    1  UNL1        0.0002
     17 C         -11.5031  -18.4017   22.9701 C.ar    1  UNL1        0.0029
     18 C         -12.6333  -17.5382   22.4939 C.ar    1  UNL1        0.0001
     19 C         -12.5993  -16.9522   21.1136 C.ar    1  UNL1        0.0000
     20 C         -11.4349  -17.2296   20.2095 C.ar    1  UNL1        0.0001
     21 C         -10.3047  -18.0931   20.6857 C.ar    1  UNL1        0.0030
     22 C         -10.3387  -18.6791   22.0661 C.ar    1  UNL1        0.0340
@<TRIPOS>BOND
     1     9    10    1
     2    10    11    1
     3    10     7    1
     4     7     5    1
     5     5     6    1
     6     5     2    1
     7     2     3    1
     8     2     1    1
     9     1    12    1
    10    12    13    1
    11    13    14   ar
    12    14    15   ar
    13    15    16   ar
    14    16    17   ar
    15    17    18   ar
    16    18    19   ar
    17    19    20   ar
    18    20    21   ar
    19    21    22   ar
    20    22    13   ar
    21    22    17   ar
    22     7     8    1
    23     3     4    1
@<TRIPOS>MOLECULE
*****
 22 23 0 0 0
SMALL
GASTEIGER

@<TRIPOS>ATOM
      1 C          -5.8548  -19.4126   21.9178 C.3     1  UNL1        0.2357
      2 C          -4.4006  -19.1801   22.2029 C.3     1  UNL1        0.1683
      3 O          -3.9795  -18.5798   23.5114 O.3     1  UNL1       -0.3794
      4 H          -3.0132  -18.4980   23.5335 H       1  UNL1        0.2106
      5 C          -3.3675  -19.5480   21.1794 C.3     1  UNL1        0.0850
      6 C          -3.7727  -20.2802   19.9345 C.3     1  UNL1        0.0198
      7 N          -1.9294  -19.1837   21.4008 N.3     1  UNL1       -0.2976
      8 H          -1.7879  -19.1436   22.4102 H       1  UNL1        0.1232
      9 C          -0.2963  -17.9459   19.8037 C.3     1  UNL1        0.0171
     10 C          -1.3840  -17.9057   20.8359 C.3     1  UNL1        0.0541
     11 C          -1.9262  -16.5875   21.3032 C.3     1  UNL1        0.0171
     12 O          -6.7042  -18.2938   21.3917 O.3     1  UNL1       -0.4728
     13 C          -7.6655  -17.5896   22.3027 C.ar    1  UNL1        0.1386
     14 C          -7.1523  -16.6453   23.3491 C.ar    1  UNL1        0.0369
     15 C          -8.1137  -15.9411   24.2602 C.ar    1  UNL1        0.0031
     16 C          -9.5881  -16.1812   24.1248 C.ar    1  UNL1        0.0002
     17 C         -10.1013  -17.1255   23.0783 C.ar    1  UNL1        0.0029
     18 C         -11.5757  -17.3655   22.9429 C.ar    1  UNL1        0.0001
     19 C         -12.0888  -18.3098   21.8965 C.ar    1  UNL1        0.0000
     20 C         -11.1275  -19.0140   20.9855 C.ar    1  UNL1        0.0001
     21 C          -9.6531  -18.7739   21.1209 C.ar    1  UNL1        0.0030
     22 C          -9.1400  -17.8297   22.1673 C.ar    1  UNL1        0.0340
@<TRIPOS>BOND
     1     9    10    1
     2    10    11    1
     3    10     7    1
     4     7     5    1
     5     5     6    1
     6     5     2    1
     7     2     3    1
     8     2     1    1
     9     1    12    1
    10    12    13    1
    11    13    14   ar
    12    14    15   ar
    13    15    16   ar
    14    16    17   ar
    15    17    18   ar
    16    18    19   ar
    17    19    20   ar
    18    20    21   ar
    19    21    22   ar
    20    22    13   ar
    21    22    17   ar
    22     7     8    1
    23     3     4    1
@<TRIPOS>MOLECULE
*****
 22 23 0 0 0
SMALL
GASTEIGER

@<TRIPOS>ATOM
      1 C          -8.6213  -19.8311   23.1487 C.3     1  UNL1        0.2357
      2 C          -9.7684  -19.2409   23.9141 C.3     1  UNL1        0.1683
      3 O          -9.9535  -19.5755   25.3646 O.3     1  UNL1       -0.3794
      4 H         -10.7358  -19.1143   25.7055 H       1  UNL1        0.2106
      5 C         -10.7304  -18.3161   23.2291 C.3     1  UNL1        0.0850
      6 C         -12.1775  -18.3123   23.6241 C.3     1  UNL1        0.0198
      7 N         -10.2454  -17.3951   22.1491 N.3     1  UNL1       -0.2976
      8 H         -10.4986  -16.4488   22.4333 H       1  UNL1        0.1232
      9 C         -10.2883  -18.7540   19.9351 C.3     1  UNL1        0.0171
     10 C         -10.7317  -17.5689   20.7408 C.3     1  UNL1        0.0541
     11 C         -11.6614  -16.5578   20.1382 C.3     1  UNL1        0.0171
     12 O          -7.5425  -18.9400   22.6085 O.3     1  UNL1       -0.4728
     13 C          -6.4338  -19.5209   21.7819 C.ar    1  UNL1        0.1386
     14 C          -6.7382  -20.5563   20.7402 C.ar    1  UNL1        0.0369
     15 C          -5.6294  -21.1372   19.9136 C.ar    1  UNL1        0.0031
     16 C          -4.2163  -20.6827   20.1287 C.ar    1  UNL1        0.0002
     17 C          -3.9118  -19.6472   21.1705 C.ar    1  UNL1        0.0029
     18 C          -2.4986  -19.1927   21.3856 C.ar    1  UNL1        0.0001
     19 C          -2.1942  -18.1573   22.4273 C.ar    1  UNL1        0.0000
     20 C          -3.3029  -17.5764   23.2539 C.ar    1  UNL1        0.0001
     21 C          -4.7161  -18.0309   23.0387 C.ar    1  UNL1        0.0030
     22 C          -5.0205  -19.0663   21.9970 C.ar    1  UNL1        0.0340
@<TRIPOS>BOND
     1     9    10    1
     2    10    11    1
     3    10     7    1
     4     7     5    1
     5     5     6    1
     6     5     2    1
     7     2     3    1
     8     2     1    1
     9     1    12    1
    10    12    13    1
    11    13    14   ar
    12    14    15   ar
    13    15    16   ar
    14    16    17   ar
    15    17    18   ar
    16    18    19   ar
    17    19    20   ar
    18    20    21   ar
    19    21    22   ar
    20    22    13   ar
    21    22    17   ar
    22     7     8    1
    23     3     4    1
@<TRIPOS>MOLECULE
*****
 22 23 0 0 0
SMALL
GASTEIGER

@<TRIPOS>ATOM
      1 C          -8.2937  -16.2541   25.2783 C.3     1  UNL1        0.2357
      2 C          -7.3939  -15.5420   24.3122 C.3     1  UNL1        0.1683
      3 O          -7.5299  -14.0616   24.1124 O.3     1  UNL1       -0.3794
      4 H          -6.8779  -13.7623   23.4595 H       1  UNL1        0.2106
      5 C          -6.3582  -16.3103   23.5460 C.3     1  UNL1        0.0850
      6 C          -4.9160  -16.2348   23.9515 C.3     1  UNL1        0.0198
      7 N          -6.7646  -17.1540   22.3743 N.3     1  UNL1       -0.2976
      8 H          -7.7841  -17.1862   22.3742 H       1  UNL1        0.1232
      9 C          -7.2781  -19.6968   22.2313 C.3     1  UNL1        0.0171
     10 C          -6.2866  -18.5719   22.2694 C.3     1  UNL1        0.0541
     11 C          -4.8170  -18.8649   22.2026 C.3     1  UNL1        0.0171
     12 O          -9.7264  -16.5132   24.9175 O.3     1  UNL1       -0.4728
     13 C         -10.0969  -17.7555   24.1629 C.ar    1  UNL1        0.1386
     14 C         -10.0564  -19.0893   24.8480 C.ar    1  UNL1        0.0369
     15 C         -10.4270  -20.3316   24.0934 C.ar    1  UNL1        0.0031
     16 C         -10.8379  -20.2401   22.6537 C.ar    1  UNL1        0.0002
     17 C         -10.8784  -18.9063   21.9686 C.ar    1  UNL1        0.0029
     18 C         -11.2893  -18.8148   20.5289 C.ar    1  UNL1        0.0001
     19 C         -11.3298  -17.4811   19.8438 C.ar    1  UNL1        0.0000
     20 C         -10.9593  -16.2388   20.5984 C.ar    1  UNL1        0.0001
     21 C         -10.5483  -16.3302   22.0381 C.ar    1  UNL1        0.0030
     22 C         -10.5079  -17.6640   22.7232 C.ar    1  UNL1        0.0340
@<TRIPOS>BOND
     1     9    10    1
     2    10    11    1
     3    10     7    1
     4     7     5    1
     5     5     6    1
     6     5     2    1
     7     2     3    1
     8     2     1    1
     9     1    12    1
    10    12    13    1
    11    13    14   ar
    12    14    15   ar
    13    15    16   ar
    14    16    17   ar
    15    17    18   ar
    16    18    19   ar
    17    19    20   ar
    18    20    21   ar
    19    21    22   ar
    20    22    13   ar
    21    22    17   ar
    22     7     8    1
    23     3     4    1
@<TRIPOS>MOLECULE
*****
 22 23 0 0 0
SMALL
GASTEIGER

@<TRIPOS>ATOM
      1 C          -8.2616  -18.1087   22.0397 C.3     1  UNL1        0.2357
      2 C          -8.6079  -16.7221   22.4951 C.3     1  UNL1        0.1683
      3 O          -8.1465  -15.5352   21.7025 O.3     1  UNL1       -0.3794
      4 H          -8.4532  -14.7210   22.1312 H       1  UNL1        0.2106
      5 C          -9.4156  -16.5225   23.7432 C.3     1  UNL1        0.0850
      6 C          -8.9102  -15.6167   24.8268 C.3     1  UNL1        0.0198
      7 N         -10.7287  -17.2286   23.9077 N.3     1  UNL1       -0.2976
      8 H         -10.5157  -18.2136   24.0653 H       1  UNL1        0.1232
      9 C         -12.5186  -15.9125   22.5606 C.3     1  UNL1        0.0171
     10 C         -11.7508  -17.1766   22.8111 C.3     1  UNL1        0.0541
     11 C         -12.0050  -18.3887   21.9648 C.3     1  UNL1        0.0171
     12 O          -7.0996  -18.8316   22.6539 O.3     1  UNL1       -0.4728
     13 C          -6.0763  -19.4889   21.7760 C.ar    1  UNL1        0.1386
     14 C          -6.5001  -20.5196   20.7721 C.ar    1  UNL1        0.0369
     15 C          -5.4767  -21.1769   19.8943 C.ar    1  UNL1        0.0031
     16 C          -4.0295  -20.8034   20.0203 C.ar    1  UNL1        0.0002
     17 C          -3.6055  -19.7726   21.0242 C.ar    1  UNL1        0.0029
     18 C          -2.1583  -19.3991   21.1502 C.ar    1  UNL1        0.0001
     19 C          -1.7344  -18.3684   22.1541 C.ar    1  UNL1        0.0000
     20 C          -2.7578  -17.7111   23.0320 C.ar    1  UNL1        0.0001
     21 C          -4.2051  -18.0846   22.9060 C.ar    1  UNL1        0.0030
     22 C          -4.6289  -19.1153   21.9021 C.ar    1  UNL1        0.0340
@<TRIPOS>BOND
     1     9    10    1
     2    10    11    1
     3    10     7    1
     4     7     5    1
     5     5     6    1
     6     5     2    1
     7     2     3    1
     8     2     1    1
     9     1    12    1
    10    12    13    1
    11    13    14   ar
    12    14    15   ar
    13    15    16   ar
    14    16    17   ar
    15    17    18   ar
    16    18    19   ar
    17    19    20   ar
    18    20    21   ar
    19    21    22   ar
    20    22    13   ar
    21    22    17   ar
    22     7     8    1
    23     3     4    1
