@<TRIPOS>MOLECULE
*****
 39 43 0 0 0
SMALL
GASTEIGER

@<TRIPOS>ATOM
      1 C           4.2080   -0.6580   29.5666 C.3     1  UNL1        0.0080
      2 C           5.3123   -1.4217   28.8977 C.3     1  UNL1        0.0177
      3 C           5.2702   -1.6589   27.4172 C.3     1  UNL1        0.0721
      4 N           4.1239   -1.1324   26.6055 N.3     1  UNL1       -0.2736
      5 C           3.0197   -0.3688   27.2744 C.3     1  UNL1        0.0776
      6 C           3.0617   -0.1316   28.7549 C.3     1  UNL1        0.0525
      7 C           4.0819   -1.3696   25.1250 C.3     1  UNL1        0.0582
      8 C           3.2189   -0.8860   23.9974 C.3     1  UNL1        0.0204
      9 C           4.0224   -1.7050   23.0311 C.3     1  UNL1        0.0274
     10 C           4.8854   -2.1886   24.1587 C.3     1  UNL1        0.0204
     11 C           3.9804   -1.9422   21.5506 C.ar    1  UNL1        0.0095
     12 C           3.8542   -0.7819   20.6085 C.ar    1  UNL1        0.0277
     13 C           3.8122   -1.0190   19.1279 C.ar    1  UNL1        0.1422
     14 F           3.6860    0.1414   18.1858 F       1  UNL1       -0.2041
     15 C           3.8963   -2.4165   18.5896 C.ar    1  UNL1        0.0616
     16 C           4.0225   -3.5769   19.5318 C.ar    1  UNL1        0.1693
     17 F           4.1066   -4.9744   18.9934 F       1  UNL1       -0.2017
     18 C           4.0645   -3.3397   21.0123 C.ar    1  UNL1        0.1635
     19 F           4.1907   -4.5001   21.9544 F       1  UNL1       -0.2021
     20 C           1.9574    0.6321   29.4238 C.2     1  UNL1        0.0513
     21 O           0.6961   -0.0723   29.8275 O.co2   1  UNL1       -0.5491
     22 O           2.1144    2.1001   29.6889 O.co2   1  UNL1       -0.5491
     23 C           4.2500   -0.4209   31.0471 C.3     1  UNL1        0.0033
     24 C           3.5781   -1.3840   31.9803 C.3     1  UNL1        0.0338
     25 C           4.4004   -2.2155   32.9198 C.3     1  UNL1        0.1328
     26 O           3.7680   -3.3553   33.6619 O.3     1  UNL1       -0.3801
     27 H           2.8302   -3.4169   33.4218 H       1  UNL1        0.2108
     28 C           7.5248   -4.6262   30.7572 C.ar    1  UNL1        0.1388
     29 C           8.9794   -4.3178   30.9544 C.ar    1  UNL1        0.0384
     30 C           9.3926   -3.2059   31.8725 C.ar    1  UNL1        0.0222
     31 C           8.3512   -2.4023   32.5934 C.ar    1  UNL1        0.0813
     32 N           8.7644   -1.2904   33.5115 N.ar    1  UNL1       -0.2439
     33 C           7.7229   -0.4869   34.2323 C.ar    1  UNL1        0.0986
     34 C           6.2682   -0.7952   34.0351 C.ar    1  UNL1        0.0187
     35 C           5.8550   -1.9071   33.1170 C.ar    1  UNL1        0.0073
     36 C           6.8966   -2.7107   32.3961 C.ar    1  UNL1        0.0190
     37 C           6.4834   -3.8226   31.4780 C.ar    1  UNL1        0.0382
     38 C           6.4765   -5.4225   28.5173 C.3     1  UNL1        0.2525
     39 O           7.1116   -5.7381   29.8391 O.3     1  UNL1       -0.4714
@<TRIPOS>UNITY_ATOM_ATTR
21 1
charge -1
@<TRIPOS>BOND
     1    38    39    1
     2    39    28    1
     3    28    29   ar
     4    29    30   ar
     5    30    31   ar
     6    31    32   ar
     7    32    33   ar
     8    33    34   ar
     9    34    35   ar
    10    35    25    1
    11    25    26    1
    12    25    24    1
    13    24    23    1
    14     1    23    1
    15     1     2    1
    16     2     3    1
    17     3     4    1
    18     4     7    1
    19     7     8    1
    20     8     9    1
    21     9    11    1
    22    11    12   ar
    23    12    13   ar
    24    13    14    1
    25    13    15   ar
    26    15    16   ar
    27    16    17    1
    28    16    18   ar
    29    18    19    1
    30     9    10    1
    31     4     5    1
    32     5     6    1
    33     6    20    1
    34    20    21   ar
    35    20    22   ar
    36    35    36   ar
    37    36    37   ar
    38    37    28   ar
    39    36    31   ar
    40     6     1    1
    41    10     7    1
    42    18    11   ar
    43    26    27    1
@<TRIPOS>MOLECULE
*****
 39 43 0 0 0
SMALL
GASTEIGER

@<TRIPOS>ATOM
      1 C           6.4451   -2.5368   30.1086 C.3     1  UNL1        0.0080
      2 C           5.7927   -1.4489   29.3080 C.3     1  UNL1        0.0177
      3 C           5.6390   -1.5994   27.8236 C.3     1  UNL1        0.0721
      4 N           6.1376   -2.8377   27.1396 N.3     1  UNL1       -0.2736
      5 C           6.7901   -3.9256   27.9401 C.3     1  UNL1        0.0776
      6 C           6.9438   -3.7751   29.4247 C.3     1  UNL1        0.0525
      7 C           5.9839   -2.9882   25.6552 C.3     1  UNL1        0.0582
      8 C           5.2992   -2.2045   24.5749 C.3     1  UNL1        0.0204
      9 C           5.7665   -3.2010   23.5557 C.3     1  UNL1        0.0274
     10 C           6.4512   -3.9847   24.6360 C.3     1  UNL1        0.0204
     11 C           5.6128   -3.3514   22.0712 C.ar    1  UNL1        0.0095
     12 C           4.3768   -3.9859   21.5057 C.ar    1  UNL1        0.0277
     13 C           4.2231   -4.1364   20.0212 C.ar    1  UNL1        0.1422
     14 F           2.9871   -4.7710   19.4557 F       1  UNL1       -0.2041
     15 C           5.3053   -3.6524   19.1022 C.ar    1  UNL1        0.0616
     16 C           6.5413   -3.0178   19.6678 C.ar    1  UNL1        0.1693
     17 F           7.6235   -2.5338   18.7488 F       1  UNL1       -0.2017
     18 C           6.6950   -2.8674   21.1522 C.ar    1  UNL1        0.1635
     19 F           7.9309   -2.2328   21.7177 F       1  UNL1       -0.2021
     20 C           7.5962   -4.8630   30.2252 C.2     1  UNL1        0.0513
     21 O           6.7815   -6.0207   30.7211 O.co2   1  UNL1       -0.5491
     22 O           9.0633   -4.7932   30.5297 O.co2   1  UNL1       -0.5491
     23 C           6.5988   -2.3863   31.5931 C.3     1  UNL1        0.0033
     24 C           5.8049   -3.2569   32.5213 C.3     1  UNL1        0.0338
     25 C           4.6221   -2.6924   33.2511 C.3     1  UNL1        0.1328
     26 O           3.5168   -3.6001   33.7033 O.3     1  UNL1       -0.3801
     27 H           3.7222   -4.5126   33.4463 H       1  UNL1        0.2108
     28 C           2.3649    0.0097   30.4487 C.ar    1  UNL1        0.1388
     29 C           2.2875    1.4817   30.7262 C.ar    1  UNL1        0.0384
     30 C           2.9624    2.0531   31.9378 C.ar    1  UNL1        0.0222
     31 C           3.7148    1.1524   32.8719 C.ar    1  UNL1        0.0813
     32 N           4.3898    1.7238   34.0835 N.ar    1  UNL1       -0.2439
     33 C           5.1421    0.8231   35.0177 C.ar    1  UNL1        0.0986
     34 C           5.2196   -0.6490   34.7402 C.ar    1  UNL1        0.0187
     35 C           4.5447   -1.2204   33.5286 C.ar    1  UNL1        0.0073
     36 C           3.7923   -0.3196   32.5944 C.ar    1  UNL1        0.0190
     37 C           3.1173   -0.8910   31.3828 C.ar    1  UNL1        0.0382
     38 C           0.2856   -0.1568   28.8999 C.3     1  UNL1        0.2525
     39 O           1.6900   -0.5617   29.2371 O.3     1  UNL1       -0.4714
@<TRIPOS>UNITY_ATOM_ATTR
21 1
charge -1
@<TRIPOS>BOND
     1    38    39    1
     2    39    28    1
     3    28    29   ar
     4    29    30   ar
     5    30    31   ar
     6    31    32   ar
     7    32    33   ar
     8    33    34   ar
     9    34    35   ar
    10    35    25    1
    11    25    26    1
    12    25    24    1
    13    24    23    1
    14     1    23    1
    15     1     2    1
    16     2     3    1
    17     3     4    1
    18     4     7    1
    19     7     8    1
    20     8     9    1
    21     9    11    1
    22    11    12   ar
    23    12    13   ar
    24    13    14    1
    25    13    15   ar
    26    15    16   ar
    27    16    17    1
    28    16    18   ar
    29    18    19    1
    30     9    10    1
    31     4     5    1
    32     5     6    1
    33     6    20    1
    34    20    21   ar
    35    20    22   ar
    36    35    36   ar
    37    36    37   ar
    38    37    28   ar
    39    36    31   ar
    40     6     1    1
    41    10     7    1
    42    18    11   ar
    43    26    27    1
@<TRIPOS>MOLECULE
*****
 39 43 0 0 0
SMALL
GASTEIGER

@<TRIPOS>ATOM
      1 C           4.2069   -0.7423   29.4924 C.3     1  UNL1        0.0080
      2 C           5.3120   -1.4924   28.8095 C.3     1  UNL1        0.0177
      3 C           5.2698   -1.7029   27.3249 C.3     1  UNL1        0.0721
      4 N           4.1225   -1.1634   26.5233 N.3     1  UNL1       -0.2736
      5 C           3.0174   -0.4134   27.2061 C.3     1  UNL1        0.0776
      6 C           3.0596   -0.2029   28.6907 C.3     1  UNL1        0.0525
      7 C           4.0802   -1.3739   25.0388 C.3     1  UNL1        0.0582
      8 C           3.2654   -0.8137   23.9108 C.3     1  UNL1        0.0204
      9 C           4.0204   -1.6716   22.9392 C.3     1  UNL1        0.0274
     10 C           4.8352   -2.2318   24.0671 C.3     1  UNL1        0.0204
     11 C           3.9782   -1.8821   21.4547 C.ar    1  UNL1        0.0095
     12 C           3.8219   -0.7077   20.5348 C.ar    1  UNL1        0.0277
     13 C           3.7797   -0.9181   19.0502 C.ar    1  UNL1        0.1422
     14 F           3.6234    0.2563   18.1304 F       1  UNL1       -0.2041
     15 C           3.8937   -2.3031   18.4855 C.ar    1  UNL1        0.0616
     16 C           4.0499   -3.4776   19.4055 C.ar    1  UNL1        0.1693
     17 F           4.1639   -4.8626   18.8408 F       1  UNL1       -0.2017
     18 C           4.0922   -3.2671   20.8900 C.ar    1  UNL1        0.1635
     19 F           4.2484   -4.4416   21.8098 F       1  UNL1       -0.2021
     20 C           1.9546    0.5471   29.3736 C.2     1  UNL1        0.0513
     21 O           0.7457   -0.1879   29.8720 O.co2   1  UNL1       -0.5491
     22 O           2.0584    2.0321   29.5581 O.co2   1  UNL1       -0.5491
     23 C           4.2492   -0.5318   30.9769 C.3     1  UNL1        0.0033
     24 C           3.5809   -1.5138   31.8929 C.3     1  UNL1        0.0338
     25 C           4.3812   -2.2226   32.9452 C.3     1  UNL1        0.1328
     26 O           3.8128   -3.4271   33.6353 O.3     1  UNL1       -0.3801
     27 H           2.9268   -3.6116   33.2862 H       1  UNL1        0.2108
     28 C           4.9356    0.4331   36.5354 C.ar    1  UNL1        0.1388
     29 C           6.3043    0.9287   36.8974 C.ar    1  UNL1        0.0384
     30 C           7.4881    0.5391   36.0628 C.ar    1  UNL1        0.0222
     31 C           7.3034   -0.3462   34.8661 C.ar    1  UNL1        0.0813
     32 N           8.4872   -0.7358   34.0314 N.ar    1  UNL1       -0.2439
     33 C           8.3024   -1.6210   32.8347 C.ar    1  UNL1        0.0986
     34 C           6.9337   -2.1167   32.4726 C.ar    1  UNL1        0.0187
     35 C           5.7499   -1.7270   33.3072 C.ar    1  UNL1        0.0073
     36 C           5.9347   -0.8418   34.5040 C.ar    1  UNL1        0.0190
     37 C           4.7508   -0.4521   35.3386 C.ar    1  UNL1        0.0382
     38 C           2.8821    1.9700   36.9488 C.3     1  UNL1        0.2525
     39 O           3.7518    0.8227   37.3700 O.3     1  UNL1       -0.4714
@<TRIPOS>UNITY_ATOM_ATTR
21 1
charge -1
@<TRIPOS>BOND
     1    38    39    1
     2    39    28    1
     3    28    29   ar
     4    29    30   ar
     5    30    31   ar
     6    31    32   ar
     7    32    33   ar
     8    33    34   ar
     9    34    35   ar
    10    35    25    1
    11    25    26    1
    12    25    24    1
    13    24    23    1
    14     1    23    1
    15     1     2    1
    16     2     3    1
    17     3     4    1
    18     4     7    1
    19     7     8    1
    20     8     9    1
    21     9    11    1
    22    11    12   ar
    23    12    13   ar
    24    13    14    1
    25    13    15   ar
    26    15    16   ar
    27    16    17    1
    28    16    18   ar
    29    18    19    1
    30     9    10    1
    31     4     5    1
    32     5     6    1
    33     6    20    1
    34    20    21   ar
    35    20    22   ar
    36    35    36   ar
    37    36    37   ar
    38    37    28   ar
    39    36    31   ar
    40     6     1    1
    41    10     7    1
    42    18    11   ar
    43    26    27    1
@<TRIPOS>MOLECULE
*****
 39 43 0 0 0
SMALL
GASTEIGER

@<TRIPOS>ATOM
      1 C           2.7953    0.3779   18.9825 C.3     1  UNL1        0.0080
      2 C           1.8591   -0.5830   19.6536 C.3     1  UNL1        0.0177
      3 C           1.5043   -0.3984   21.0993 C.3     1  UNL1        0.0721
      4 N           2.0856    0.7470   21.8739 N.3     1  UNL1       -0.2736
      5 C           3.0218    1.7078   21.2029 C.3     1  UNL1        0.0776
      6 C           3.3767    1.5233   19.7572 C.3     1  UNL1        0.0525
      7 C           1.7308    0.9316   23.3196 C.3     1  UNL1        0.0582
      8 C           0.7327    1.7637   24.0689 C.3     1  UNL1        0.0204
      9 C           1.2289    1.1926   25.3642 C.3     1  UNL1        0.0274
     10 C           2.2270    0.3605   24.6149 C.3     1  UNL1        0.0204
     11 C           0.8741    1.3772   26.8098 C.ar    1  UNL1        0.0095
     12 C          -0.3429    0.7067   27.3749 C.ar    1  UNL1        0.0277
     13 C          -0.6978    0.8913   28.8206 C.ar    1  UNL1        0.1422
     14 F          -1.9149    0.2208   29.3856 F       1  UNL1       -0.2041
     15 C           0.1643    1.7463   29.7012 C.ar    1  UNL1        0.0616
     16 C           1.3814    2.4168   29.1362 C.ar    1  UNL1        0.1693
     17 F           2.2436    3.2718   30.0168 F       1  UNL1       -0.2017
     18 C           1.7363    2.2322   27.6905 C.ar    1  UNL1        0.1635
     19 F           2.9533    2.9027   27.1255 F       1  UNL1       -0.2021
     20 C           4.3129    2.4841   19.0862 C.2     1  UNL1        0.0513
     21 O           5.7744    2.1618   18.9873 O.co2   1  UNL1       -0.5491
     22 O           3.7874    3.7673   18.5140 O.co2   1  UNL1       -0.5491
     23 C           3.1502    0.1933   17.5369 C.3     1  UNL1        0.0033
     24 C           4.1556   -0.8460   17.1382 C.3     1  UNL1        0.0338
     25 C           5.1697   -1.3288   18.1325 C.3     1  UNL1        0.1328
     26 O           6.4910   -0.6296   18.2559 O.3     1  UNL1       -0.3801
     27 H           6.5270    0.1072   17.6260 H       1  UNL1        0.2108
     28 C           5.3239   -0.9243   22.6116 C.ar    1  UNL1        0.1388
     29 C           5.0166   -2.1063   23.4824 C.ar    1  UNL1        0.0384
     30 C           4.6580   -3.4232   22.8602 C.ar    1  UNL1        0.0222
     31 C           4.6067   -3.5581   21.3672 C.ar    1  UNL1        0.0813
     32 N           4.2480   -4.8750   20.7450 N.ar    1  UNL1       -0.2439
     33 C           4.1967   -5.0099   19.2520 C.ar    1  UNL1        0.0986
     34 C           4.5039   -3.8278   18.3811 C.ar    1  UNL1        0.0187
     35 C           4.8625   -2.5109   19.0033 C.ar    1  UNL1        0.0073
     36 C           4.9139   -2.3760   20.4964 C.ar    1  UNL1        0.0190
     37 C           5.2725   -1.0591   21.1186 C.ar    1  UNL1        0.0382
     38 C           6.0124    0.4666   24.6952 C.3     1  UNL1        0.2525
     39 O           5.6825    0.3927   23.2338 O.3     1  UNL1       -0.4714
@<TRIPOS>UNITY_ATOM_ATTR
21 1
charge -1
@<TRIPOS>BOND
     1    38    39    1
     2    39    28    1
     3    28    29   ar
     4    29    30   ar
     5    30    31   ar
     6    31    32   ar
     7    32    33   ar
     8    33    34   ar
     9    34    35   ar
    10    35    25    1
    11    25    26    1
    12    25    24    1
    13    24    23    1
    14     1    23    1
    15     1     2    1
    16     2     3    1
    17     3     4    1
    18     4     7    1
    19     7     8    1
    20     8     9    1
    21     9    11    1
    22    11    12   ar
    23    12    13   ar
    24    13    14    1
    25    13    15   ar
    26    15    16   ar
    27    16    17    1
    28    16    18   ar
    29    18    19    1
    30     9    10    1
    31     4     5    1
    32     5     6    1
    33     6    20    1
    34    20    21   ar
    35    20    22   ar
    36    35    36   ar
    37    36    37   ar
    38    37    28   ar
    39    36    31   ar
    40     6     1    1
    41    10     7    1
    42    18    11   ar
    43    26    27    1
@<TRIPOS>MOLECULE
*****
 39 43 0 0 0
SMALL
GASTEIGER

@<TRIPOS>ATOM
      1 C          -1.0932    4.3116   25.2177 C.3     1  UNL1        0.0080
      2 C          -0.9392    4.6903   23.7745 C.3     1  UNL1        0.0177
      3 C          -0.2100    3.7778   22.8334 C.3     1  UNL1        0.0721
      4 N           0.3651    2.4866   23.3355 N.3     1  UNL1       -0.2736
      5 C           0.2110    2.1079   24.7787 C.3     1  UNL1        0.0776
      6 C          -0.5182    3.0204   25.7198 C.3     1  UNL1        0.0525
      7 C           1.0942    1.5741   22.3944 C.3     1  UNL1        0.0582
      8 C           2.5347    1.2365   22.1472 C.3     1  UNL1        0.0204
      9 C           2.1254    0.2836   21.0635 C.3     1  UNL1        0.0274
     10 C           0.6850    0.6212   21.3106 C.3     1  UNL1        0.0204
     11 C           2.8546   -0.6289   20.1224 C.ar    1  UNL1        0.0095
     12 C           3.4158   -1.9275   20.6210 C.ar    1  UNL1        0.0277
     13 C           4.1450   -2.8401   19.6799 C.ar    1  UNL1        0.1422
     14 F           4.7063   -4.1386   20.1786 F       1  UNL1       -0.2041
     15 C           4.3129   -2.4540   18.2402 C.ar    1  UNL1        0.0616
     16 C           3.7516   -1.1554   17.7416 C.ar    1  UNL1        0.1693
     17 F           3.9194   -0.7693   16.3019 F       1  UNL1       -0.2017
     18 C           3.0224   -0.2429   18.6827 C.ar    1  UNL1        0.1635
     19 F           2.4612    1.0557   18.1840 F       1  UNL1       -0.2021
     20 C          -0.6722    2.6417   27.1630 C.2     1  UNL1        0.0513
     21 O          -1.8288    1.7902   27.5956 O.co2   1  UNL1       -0.5491
     22 O           0.3304    3.1145   28.1736 O.co2   1  UNL1       -0.5491
     23 C          -1.8224    5.2241   26.1588 C.3     1  UNL1        0.0033
     24 C          -3.2062    5.6962   25.8242 C.3     1  UNL1        0.0338
     25 C          -4.3591    4.7379   25.8779 C.3     1  UNL1        0.1328
     26 O          -4.3070    3.5527   26.7957 O.3     1  UNL1       -0.3801
     27 H          -3.4659    3.5545   27.2788 H       1  UNL1        0.2108
     28 C          -4.3038    3.4672   21.5614 C.ar    1  UNL1        0.1388
     29 C          -5.5086    3.6943   20.6972 C.ar    1  UNL1        0.0384
     30 C          -6.7319    4.3449   21.2719 C.ar    1  UNL1        0.0222
     31 C          -6.7503    4.7685   22.7107 C.ar    1  UNL1        0.0813
     32 N          -7.9736    5.4191   23.2854 N.ar    1  UNL1       -0.2439
     33 C          -7.9921    5.8427   24.7242 C.ar    1  UNL1        0.0986
     34 C          -6.7872    5.6157   25.5884 C.ar    1  UNL1        0.0187
     35 C          -5.5639    4.9650   25.0137 C.ar    1  UNL1        0.0073
     36 C          -5.5455    4.5414   23.5748 C.ar    1  UNL1        0.0190
     37 C          -4.3222    3.8908   23.0002 C.ar    1  UNL1        0.0382
     38 C          -2.3247    3.4875   19.8784 C.3     1  UNL1        0.2525
     39 O          -3.0805    2.8166   20.9867 O.3     1  UNL1       -0.4714
@<TRIPOS>UNITY_ATOM_ATTR
21 1
charge -1
@<TRIPOS>BOND
     1    38    39    1
     2    39    28    1
     3    28    29   ar
     4    29    30   ar
     5    30    31   ar
     6    31    32   ar
     7    32    33   ar
     8    33    34   ar
     9    34    35   ar
    10    35    25    1
    11    25    26    1
    12    25    24    1
    13    24    23    1
    14     1    23    1
    15     1     2    1
    16     2     3    1
    17     3     4    1
    18     4     7    1
    19     7     8    1
    20     8     9    1
    21     9    11    1
    22    11    12   ar
    23    12    13   ar
    24    13    14    1
    25    13    15   ar
    26    15    16   ar
    27    16    17    1
    28    16    18   ar
    29    18    19    1
    30     9    10    1
    31     4     5    1
    32     5     6    1
    33     6    20    1
    34    20    21   ar
    35    20    22   ar
    36    35    36   ar
    37    36    37   ar
    38    37    28   ar
    39    36    31   ar
    40     6     1    1
    41    10     7    1
    42    18    11   ar
    43    26    27    1
@<TRIPOS>MOLECULE
*****
 39 43 0 0 0
SMALL
GASTEIGER

@<TRIPOS>ATOM
      1 C           1.8226    0.1027   20.7295 C.3     1  UNL1        0.0080
      2 C           2.6624   -0.7444   21.6390 C.3     1  UNL1        0.0177
      3 C           2.6600   -0.4882   23.1169 C.3     1  UNL1        0.0721
      4 N           1.8177    0.6152   23.6854 N.3     1  UNL1       -0.2736
      5 C           0.9779    1.4623   22.7760 C.3     1  UNL1        0.0776
      6 C           0.9803    1.2060   21.2980 C.3     1  UNL1        0.0525
      7 C           1.8152    0.8714   25.1633 C.3     1  UNL1        0.0582
      8 C           2.8656    0.9208   26.2330 C.3     1  UNL1        0.0204
      9 C           1.8118    1.2338   27.2535 C.3     1  UNL1        0.0274
     10 C           0.7614    1.1844   26.1839 C.3     1  UNL1        0.0204
     11 C           1.8093    1.4900   28.7315 C.ar    1  UNL1        0.0095
     12 C           1.2547    2.7760   29.2687 C.ar    1  UNL1        0.0277
     13 C           1.2522    3.0323   30.7467 C.ar    1  UNL1        0.1422
     14 F           0.6976    4.3182   31.2840 F       1  UNL1       -0.2041
     15 C           1.8044    2.0026   31.6874 C.ar    1  UNL1        0.0616
     16 C           2.3591    0.7166   31.1500 C.ar    1  UNL1        0.1693
     17 F           2.9113   -0.3131   32.0907 F       1  UNL1       -0.2017
     18 C           2.3616    0.4604   29.6721 C.ar    1  UNL1        0.1635
     19 F           2.9162   -0.8256   29.1348 F       1  UNL1       -0.2021
     20 C           0.1405    2.0531   20.3886 C.2     1  UNL1        0.0513
     21 O           0.7867    2.8369   19.2849 O.co2   1  UNL1       -0.5491
     22 O          -1.3456    2.1165   20.5828 O.co2   1  UNL1       -0.5491
     23 C           1.8250   -0.1536   19.2516 C.3     1  UNL1        0.0033
     24 C           3.0864    0.0295   18.4608 C.3     1  UNL1        0.0338
     25 C           3.7312   -1.1492   17.7937 C.3     1  UNL1        0.1328
     26 O           3.7536   -1.2443   16.2969 O.3     1  UNL1       -0.3801
     27 H           3.3124   -0.4685   15.9170 H       1  UNL1        0.2108
     28 C           8.0611   -0.8644   18.9854 C.ar    1  UNL1        0.1388
     29 C           8.6835   -1.9480   19.8152 C.ar    1  UNL1        0.0384
     30 C           7.8625   -3.1265   20.2477 C.ar    1  UNL1        0.0222
     31 C           6.4192   -3.2215   19.8505 C.ar    1  UNL1        0.0813
     32 N           5.5982   -4.4000   20.2830 N.ar    1  UNL1       -0.2439
     33 C           4.1549   -4.4949   19.8858 C.ar    1  UNL1        0.0986
     34 C           3.5325   -3.4113   19.0560 C.ar    1  UNL1        0.0187
     35 C           4.3535   -2.2328   18.6235 C.ar    1  UNL1        0.0073
     36 C           5.7969   -2.1379   19.0207 C.ar    1  UNL1        0.0190
     37 C           6.6179   -0.9594   18.5882 C.ar    1  UNL1        0.0382
     38 C           8.2688    1.3813   17.6957 C.3     1  UNL1        0.2525
     39 O           8.8821    0.3141   18.5529 O.3     1  UNL1       -0.4714
@<TRIPOS>UNITY_ATOM_ATTR
21 1
charge -1
@<TRIPOS>BOND
     1    38    39    1
     2    39    28    1
     3    28    29   ar
     4    29    30   ar
     5    30    31   ar
     6    31    32   ar
     7    32    33   ar
     8    33    34   ar
     9    34    35   ar
    10    35    25    1
    11    25    26    1
    12    25    24    1
    13    24    23    1
    14     1    23    1
    15     1     2    1
    16     2     3    1
    17     3     4    1
    18     4     7    1
    19     7     8    1
    20     8     9    1
    21     9    11    1
    22    11    12   ar
    23    12    13   ar
    24    13    14    1
    25    13    15   ar
    26    15    16   ar
    27    16    17    1
    28    16    18   ar
    29    18    19    1
    30     9    10    1
    31     4     5    1
    32     5     6    1
    33     6    20    1
    34    20    21   ar
    35    20    22   ar
    36    35    36   ar
    37    36    37   ar
    38    37    28   ar
    39    36    31   ar
    40     6     1    1
    41    10     7    1
    42    18    11   ar
    43    26    27    1
@<TRIPOS>MOLECULE
*****
 39 43 0 0 0
SMALL
GASTEIGER

@<TRIPOS>ATOM
      1 C          -1.0040    2.8541   25.1871 C.3     1  UNL1        0.0080
      2 C          -1.0522    3.1682   23.7211 C.3     1  UNL1        0.0177
      3 C          -0.1980    2.3958   22.7600 C.3     1  UNL1        0.0721
      4 N           0.7045    1.3092   23.2649 N.3     1  UNL1       -0.2736
      5 C           0.7527    0.9951   24.7309 C.3     1  UNL1        0.0776
      6 C          -0.1015    1.7676   25.6920 C.3     1  UNL1        0.0525
      7 C           1.5587    0.5368   22.3039 C.3     1  UNL1        0.0582
      8 C           2.8744   -0.1781   22.3925 C.3     1  UNL1        0.0204
      9 C           2.7668   -0.5557   20.9448 C.3     1  UNL1        0.0274
     10 C           1.4510    0.1591   20.8562 C.3     1  UNL1        0.0204
     11 C           3.6210   -1.3282   19.9837 C.ar    1  UNL1        0.0095
     12 C           3.4661   -2.8159   19.8714 C.ar    1  UNL1        0.0277
     13 C           4.3203   -3.5885   18.9103 C.ar    1  UNL1        0.1422
     14 F           4.1655   -5.0762   18.7979 F       1  UNL1       -0.2041
     15 C           5.3294   -2.8732   18.0617 C.ar    1  UNL1        0.0616
     16 C           5.4842   -1.3854   18.1741 C.ar    1  UNL1        0.1693
     17 F           6.4933   -0.6701   17.3254 F       1  UNL1       -0.2017
     18 C           4.6300   -0.6129   19.1351 C.ar    1  UNL1        0.1635
     19 F           4.7849    0.8748   19.2475 F       1  UNL1       -0.2021
     20 C          -0.0532    1.4535   27.1579 C.2     1  UNL1        0.0513
     21 O           0.8684    2.2203   28.0592 O.co2   1  UNL1       -0.5491
     22 O          -0.9265    0.3725   27.7225 O.co2   1  UNL1       -0.5491
     23 C          -1.8581    3.6266   26.1481 C.3     1  UNL1        0.0033
     24 C          -1.6779    5.1092   26.2872 C.3     1  UNL1        0.0338
     25 C          -2.5879    6.0477   25.5516 C.3     1  UNL1        0.1328
     26 O          -2.0175    7.0381   24.5801 O.3     1  UNL1       -0.3801
     27 H          -1.0531    6.9394   24.5466 H       1  UNL1        0.2108
     28 C          -5.2915    4.1748   22.4803 C.ar    1  UNL1        0.1388
     29 C          -6.7719    4.1229   22.7162 C.ar    1  UNL1        0.0384
     30 C          -7.3511    4.6953   23.9759 C.ar    1  UNL1        0.0222
     31 C          -6.4500    5.3196   24.9997 C.ar    1  UNL1        0.0813
     32 N          -7.0292    5.8920   26.2593 N.ar    1  UNL1       -0.2439
     33 C          -6.1280    6.5163   27.2831 C.ar    1  UNL1        0.0986
     34 C          -4.6476    6.5682   27.0472 C.ar    1  UNL1        0.0187
     35 C          -4.0683    5.9958   25.7875 C.ar    1  UNL1        0.0073
     36 C          -4.9696    5.3715   24.7637 C.ar    1  UNL1        0.0190
     37 C          -4.3903    4.7991   23.5040 C.ar    1  UNL1        0.0382
     38 C          -5.5493    3.5237   19.9784 C.3     1  UNL1        0.2525
     39 O          -4.7122    3.6024   21.2206 O.3     1  UNL1       -0.4714
@<TRIPOS>UNITY_ATOM_ATTR
21 1
charge -1
@<TRIPOS>BOND
     1    38    39    1
     2    39    28    1
     3    28    29   ar
     4    29    30   ar
     5    30    31   ar
     6    31    32   ar
     7    32    33   ar
     8    33    34   ar
     9    34    35   ar
    10    35    25    1
    11    25    26    1
    12    25    24    1
    13    24    23    1
    14     1    23    1
    15     1     2    1
    16     2     3    1
    17     3     4    1
    18     4     7    1
    19     7     8    1
    20     8     9    1
    21     9    11    1
    22    11    12   ar
    23    12    13   ar
    24    13    14    1
    25    13    15   ar
    26    15    16   ar
    27    16    17    1
    28    16    18   ar
    29    18    19    1
    30     9    10    1
    31     4     5    1
    32     5     6    1
    33     6    20    1
    34    20    21   ar
    35    20    22   ar
    36    35    36   ar
    37    36    37   ar
    38    37    28   ar
    39    36    31   ar
    40     6     1    1
    41    10     7    1
    42    18    11   ar
    43    26    27    1
@<TRIPOS>MOLECULE
*****
 39 43 0 0 0
SMALL
GASTEIGER

@<TRIPOS>ATOM
      1 C           3.1615   -0.0703   32.0834 C.3     1  UNL1        0.0080
      2 C           2.8156   -0.8863   30.8732 C.3     1  UNL1        0.0177
      3 C           1.8901   -0.3292   29.8324 C.3     1  UNL1        0.0721
      4 N           1.3106    1.0439   30.0018 N.3     1  UNL1       -0.2736
      5 C           1.6564    1.8599   31.2119 C.3     1  UNL1        0.0776
      6 C           2.5819    1.3028   32.2528 C.3     1  UNL1        0.0525
      7 C           0.3851    1.6010   28.9611 C.3     1  UNL1        0.0582
      8 C          -0.7477    1.0516   28.1456 C.3     1  UNL1        0.0204
      9 C          -0.9237    2.3888   27.4891 C.3     1  UNL1        0.0274
     10 C           0.2091    2.9382   28.3046 C.3     1  UNL1        0.0204
     11 C          -1.8491    2.9459   26.4484 C.ar    1  UNL1        0.0095
     12 C          -3.1585    3.5530   26.8568 C.ar    1  UNL1        0.0277
     13 C          -4.0841    4.1101   25.8161 C.ar    1  UNL1        0.1422
     14 F          -5.3935    4.7172   26.2245 F       1  UNL1       -0.2041
     15 C          -3.7001    4.0601   24.3669 C.ar    1  UNL1        0.0616
     16 C          -2.3906    3.4530   23.9585 C.ar    1  UNL1        0.1693
     17 F          -2.0066    3.4030   22.5094 F       1  UNL1       -0.2017
     18 C          -1.4652    2.8959   24.9992 C.ar    1  UNL1        0.1635
     19 F          -0.1558    2.2888   24.5908 F       1  UNL1       -0.2021
     20 C           2.9278    2.1188   33.4629 C.2     1  UNL1        0.0513
     21 O           2.0365    2.0866   34.6689 O.co2   1  UNL1       -0.5491
     22 O           4.1649    2.9670   33.4670 O.co2   1  UNL1       -0.5491
     23 C           4.0869   -0.6274   33.1241 C.3     1  UNL1        0.0033
     24 C           4.6757   -1.9958   32.9489 C.3     1  UNL1        0.0338
     25 C           6.0720   -2.1498   32.4227 C.3     1  UNL1        0.1328
     26 O           7.1291   -1.1540   32.7983 O.3     1  UNL1       -0.3801
     27 H           6.7461   -0.4805   33.3820 H       1  UNL1        0.2108
     28 C           6.0883   -1.5792   27.9591 C.ar    1  UNL1        0.1388
     29 C           6.4274   -2.7289   27.0573 C.ar    1  UNL1        0.0384
     30 C           6.7611   -4.0687   27.6434 C.ar    1  UNL1        0.0222
     31 C           6.7557   -4.2589   29.1312 C.ar    1  UNL1        0.0813
     32 N           7.0893   -5.5988   29.7173 N.ar    1  UNL1       -0.2439
     33 C           7.0839   -5.7889   31.2051 C.ar    1  UNL1        0.0986
     34 C           6.7448   -4.6393   32.1070 C.ar    1  UNL1        0.0187
     35 C           6.4111   -3.2994   31.5209 C.ar    1  UNL1        0.0073
     36 C           6.4166   -3.1093   30.0330 C.ar    1  UNL1        0.0190
     37 C           6.0829   -1.7694   29.4469 C.ar    1  UNL1        0.0382
     38 C           4.3256    0.1242   27.0984 C.3     1  UNL1        0.2525
     39 O           5.7547   -0.2394   27.3730 O.3     1  UNL1       -0.4714
@<TRIPOS>UNITY_ATOM_ATTR
21 1
charge -1
@<TRIPOS>BOND
     1    38    39    1
     2    39    28    1
     3    28    29   ar
     4    29    30   ar
     5    30    31   ar
     6    31    32   ar
     7    32    33   ar
     8    33    34   ar
     9    34    35   ar
    10    35    25    1
    11    25    26    1
    12    25    24    1
    13    24    23    1
    14     1    23    1
    15     1     2    1
    16     2     3    1
    17     3     4    1
    18     4     7    1
    19     7     8    1
    20     8     9    1
    21     9    11    1
    22    11    12   ar
    23    12    13   ar
    24    13    14    1
    25    13    15   ar
    26    15    16   ar
    27    16    17    1
    28    16    18   ar
    29    18    19    1
    30     9    10    1
    31     4     5    1
    32     5     6    1
    33     6    20    1
    34    20    21   ar
    35    20    22   ar
    36    35    36   ar
    37    36    37   ar
    38    37    28   ar
    39    36    31   ar
    40     6     1    1
    41    10     7    1
    42    18    11   ar
    43    26    27    1
@<TRIPOS>MOLECULE
*****
 39 43 0 0 0
SMALL
GASTEIGER

@<TRIPOS>ATOM
      1 C           3.8919   -2.2109   21.3316 C.3     1  UNL1        0.0080
      2 C           4.5925   -3.4639   21.7667 C.3     1  UNL1        0.0177
      3 C           5.1484   -3.5686   23.1559 C.3     1  UNL1        0.0721
      4 N           5.0038   -2.4203   24.1101 N.3     1  UNL1       -0.2736
      5 C           4.3033   -1.1673   23.6751 C.3     1  UNL1        0.0776
      6 C           3.7473   -1.0626   22.2858 C.3     1  UNL1        0.0525
      7 C           5.5597   -2.5249   25.4993 C.3     1  UNL1        0.0582
      8 C           5.2059   -1.9317   26.8308 C.3     1  UNL1        0.0204
      9 C           6.3459   -2.6730   27.4641 C.3     1  UNL1        0.0274
     10 C           6.6997   -3.2662   26.1326 C.3     1  UNL1        0.0204
     11 C           6.9019   -2.7776   28.8533 C.ar    1  UNL1        0.0095
     12 C           7.5934   -1.6007   29.4750 C.ar    1  UNL1        0.0277
     13 C           8.1493   -1.7053   30.8643 C.ar    1  UNL1        0.1422
     14 F           8.8409   -0.5284   31.4860 F       1  UNL1       -0.2041
     15 C           8.0137   -2.9869   31.6318 C.ar    1  UNL1        0.0616
     16 C           7.3222   -4.1639   31.0100 C.ar    1  UNL1        0.1693
     17 F           7.1866   -5.4455   31.7775 F       1  UNL1       -0.2017
     18 C           6.7663   -4.0593   29.6208 C.ar    1  UNL1        0.1635
     19 F           6.0747   -5.2362   28.9991 F       1  UNL1       -0.2021
     20 C           3.0468    0.1904   21.8508 C.2     1  UNL1        0.0513
     21 O           1.5479    0.2475   21.8430 O.co2   1  UNL1       -0.5491
     22 O           3.8451    1.3863   21.4236 O.co2   1  UNL1       -0.5491
     23 C           3.3360   -2.1062   19.9424 C.3     1  UNL1        0.0033
     24 C           4.2190   -1.6662   18.8125 C.3     1  UNL1        0.0338
     25 C           3.6578   -0.8215   17.7072 C.3     1  UNL1        0.1328
     26 O           3.7642   -1.2818   16.2835 O.3     1  UNL1       -0.3801
     27 H           4.2197   -2.1377   16.2536 H       1  UNL1        0.2108
     28 C           6.0765    2.9710   17.8350 C.ar    1  UNL1        0.1388
     29 C           5.4089    4.2759   18.1534 C.ar    1  UNL1        0.0384
     30 C           3.9350    4.3167   18.4292 C.ar    1  UNL1        0.0222
     31 C           3.1288    3.0526   18.3866 C.ar    1  UNL1        0.0813
     32 N           1.6549    3.0934   18.6624 N.ar    1  UNL1       -0.2439
     33 C           0.8487    1.8292   18.6198 C.ar    1  UNL1        0.0986
     34 C           1.5163    0.5242   18.3014 C.ar    1  UNL1        0.0187
     35 C           2.9901    0.4834   18.0256 C.ar    1  UNL1        0.0073
     36 C           3.7964    1.7477   18.0682 C.ar    1  UNL1        0.0190
     37 C           5.2703    1.7069   17.7924 C.ar    1  UNL1        0.0382
     38 C           8.1990    1.6455   17.1365 C.3     1  UNL1        0.2525
     39 O           7.5504    2.9302   17.5592 O.3     1  UNL1       -0.4714
@<TRIPOS>UNITY_ATOM_ATTR
21 1
charge -1
@<TRIPOS>BOND
     1    38    39    1
     2    39    28    1
     3    28    29   ar
     4    29    30   ar
     5    30    31   ar
     6    31    32   ar
     7    32    33   ar
     8    33    34   ar
     9    34    35   ar
    10    35    25    1
    11    25    26    1
    12    25    24    1
    13    24    23    1
    14     1    23    1
    15     1     2    1
    16     2     3    1
    17     3     4    1
    18     4     7    1
    19     7     8    1
    20     8     9    1
    21     9    11    1
    22    11    12   ar
    23    12    13   ar
    24    13    14    1
    25    13    15   ar
    26    15    16   ar
    27    16    17    1
    28    16    18   ar
    29    18    19    1
    30     9    10    1
    31     4     5    1
    32     5     6    1
    33     6    20    1
    34    20    21   ar
    35    20    22   ar
    36    35    36   ar
    37    36    37   ar
    38    37    28   ar
    39    36    31   ar
    40     6     1    1
    41    10     7    1
    42    18    11   ar
    43    26    27    1
