@<TRIPOS>MOLECULE
*****
 30 32 0 0 0
SMALL
GASTEIGER

@<TRIPOS>ATOM
      1 N          -6.6042  -16.5927   22.8240 N.am    1  UNL1       -0.2809
      2 C          -5.8356  -15.6608   23.7133 C.2     1  UNL1        0.2707
      3 O          -6.5666  -14.6948   24.5978 O.2     1  UNL1       -0.2707
      4 H          -6.1245  -17.2267   22.2434 H       1  UNL1        0.1550
      5 C         -11.1031  -16.4904   22.8099 C.ar    1  UNL1       -0.0221
      6 C         -10.3370  -15.9571   21.6356 C.ar    1  UNL1       -0.0030
      7 C          -8.8374  -15.9912   21.6403 C.ar    1  UNL1        0.0143
      8 C          -8.1038  -16.5586   22.8193 C.ar    1  UNL1        0.0504
      9 C          -8.8698  -17.0918   23.9935 C.ar    1  UNL1        0.0143
     10 C         -10.3694  -17.0577   23.9888 C.ar    1  UNL1       -0.0030
     11 C         -12.6027  -16.4562   22.8052 C.3     1  UNL1        0.0264
     12 C         -13.3817  -17.7356   22.7241 C.3     1  UNL1        0.0047
     13 C         -14.2976  -18.1283   23.8452 C.3     1  UNL1        0.0003
     14 C         -14.6129  -18.4701   26.4013 C.3     1  UNL1        0.0000
     15 C         -13.7305  -18.4811   25.1883 C.3     1  UNL1        0.0000
     16 C          -4.3360  -15.6949   23.7180 C.3     1  UNL1        0.2897
     17 O          -3.6158  -17.0102   23.7515 O.3     1  UNL1       -0.4655
     18 C          -3.1107  -17.6214   22.4783 C.ar    1  UNL1        0.1419
     19 C          -1.8082  -17.1637   21.8918 C.ar    1  UNL1        0.0516
     20 C          -1.3030  -17.7749   20.6185 C.ar    1  UNL1        0.0624
     21 C          -0.0004  -17.3172   20.0320 C.3     1  UNL1        0.0522
     22 N          -2.1003  -18.8438   19.9317 N.ar    1  UNL1       -0.2495
     23 C          -3.4029  -19.3015   20.5182 C.ar    1  UNL1        0.0840
     24 C          -4.2002  -20.3704   19.8314 C.ar    1  UNL1        0.0223
     25 C          -5.5027  -20.8281   20.4179 C.ar    1  UNL1        0.0384
     26 C          -6.0078  -20.2169   21.6911 C.ar    1  UNL1        0.1389
     27 C          -5.2105  -19.1480   22.3779 C.ar    1  UNL1        0.0414
     28 C          -3.9081  -18.6904   21.7915 C.ar    1  UNL1        0.0547
     29 O          -7.3104  -20.6747   22.2776 O.3     1  UNL1       -0.4714
     30 C          -8.5715  -19.9166   21.9866 C.3     1  UNL1        0.2525
@<TRIPOS>BOND
     1    14    15    1
     2    15    13    1
     3    13    12    1
     4    12    11    1
     5    11     5    1
     6     5     6   ar
     7     6     7   ar
     8     7     8   ar
     9     8     1    1
    10     1     2   am
    11     2     3    2
    12     2    16    1
    13    16    17    1
    14    17    18    1
    15    18    19   ar
    16    19    20   ar
    17    20    21    1
    18    20    22   ar
    19    22    23   ar
    20    23    24   ar
    21    24    25   ar
    22    25    26   ar
    23    26    29    1
    24    29    30    1
    25    26    27   ar
    26    27    28   ar
    27     8     9   ar
    28     9    10   ar
    29    10     5   ar
    30    28    18   ar
    31    28    23   ar
    32     1     4    1
@<TRIPOS>MOLECULE
*****
 30 32 0 0 0
SMALL
GASTEIGER

@<TRIPOS>ATOM
      1 N          -8.9224  -19.3840   21.8436 N.am    1  UNL1       -0.2809
      2 C          -9.5383  -20.0561   23.0349 C.2     1  UNL1        0.2707
      3 O          -8.6969  -20.9203   23.9267 O.2     1  UNL1       -0.2707
      4 H          -9.4747  -18.8168   21.2583 H       1  UNL1        0.1550
      5 C          -4.5508  -19.9600   20.9454 C.ar    1  UNL1       -0.0221
      6 C          -4.9799  -18.9463   21.9645 C.ar    1  UNL1       -0.0030
      7 C          -6.4371  -18.7543   22.2639 C.ar    1  UNL1        0.0143
      8 C          -7.4652  -19.5760   21.5442 C.ar    1  UNL1        0.0504
      9 C          -7.0361  -20.5896   20.5252 C.ar    1  UNL1        0.0143
     10 C          -5.5789  -20.7816   20.2258 C.ar    1  UNL1       -0.0030
     11 C          -3.0936  -20.1520   20.6460 C.3     1  UNL1        0.0264
     12 C          -2.0665  -19.3168   21.3516 C.3     1  UNL1        0.0047
     13 C          -1.3049  -18.2682   20.5963 C.3     1  UNL1        0.0003
     14 C          -2.2862  -16.2849   21.9577 C.3     1  UNL1        0.0000
     15 C          -1.7258  -16.8308   20.6779 C.3     1  UNL1        0.0000
     16 C         -10.9955  -19.8642   23.3343 C.3     1  UNL1        0.2897
     17 O         -11.5756  -18.4817   23.3816 O.3     1  UNL1       -0.4655
     18 C         -11.0109  -17.4010   22.5080 C.ar    1  UNL1        0.1419
     19 C         -11.6314  -17.1154   21.1726 C.ar    1  UNL1        0.0516
     20 C         -11.0667  -16.0347   20.2990 C.ar    1  UNL1        0.0624
     21 C         -11.6872  -15.7490   18.9635 C.3     1  UNL1        0.0522
     22 N          -9.8816  -15.2396   20.7608 N.ar    1  UNL1       -0.2495
     23 C          -9.2611  -15.5252   22.0963 C.ar    1  UNL1        0.0840
     24 C          -8.0759  -14.7302   22.5581 C.ar    1  UNL1        0.0223
     25 C          -7.4555  -15.0158   23.8936 C.ar    1  UNL1        0.0384
     26 C          -8.0202  -16.0966   24.7672 C.ar    1  UNL1        0.1389
     27 C          -9.2053  -16.8916   24.3054 C.ar    1  UNL1        0.0414
     28 C          -9.8258  -16.6059   22.9699 C.ar    1  UNL1        0.0547
     29 O          -7.3997  -16.3822   26.1027 O.3     1  UNL1       -0.4714
     30 C          -8.2148  -16.2414   27.3539 C.3     1  UNL1        0.2525
@<TRIPOS>BOND
     1    14    15    1
     2    15    13    1
     3    13    12    1
     4    12    11    1
     5    11     5    1
     6     5     6   ar
     7     6     7   ar
     8     7     8   ar
     9     8     1    1
    10     1     2   am
    11     2     3    2
    12     2    16    1
    13    16    17    1
    14    17    18    1
    15    18    19   ar
    16    19    20   ar
    17    20    21    1
    18    20    22   ar
    19    22    23   ar
    20    23    24   ar
    21    24    25   ar
    22    25    26   ar
    23    26    29    1
    24    29    30    1
    25    26    27   ar
    26    27    28   ar
    27     8     9   ar
    28     9    10   ar
    29    10     5   ar
    30    28    18   ar
    31    28    23   ar
    32     1     4    1
@<TRIPOS>MOLECULE
*****
 30 32 0 0 0
SMALL
GASTEIGER

@<TRIPOS>ATOM
      1 N          -7.0440  -19.1618   20.0754 N.am    1  UNL1       -0.2809
      2 C          -6.2869  -20.1073   20.9602 C.2     1  UNL1        0.2707
      3 O          -6.9252  -20.6400   22.2086 O.2     1  UNL1       -0.2707
      4 H          -6.6250  -18.8121   19.2560 H       1  UNL1        0.1550
      5 C         -11.2304  -17.9235   21.1666 C.ar    1  UNL1       -0.0221
      6 C         -10.0562  -17.2220   21.7825 C.ar    1  UNL1       -0.0030
      7 C          -8.6608  -17.6348   21.4187 C.ar    1  UNL1        0.0143
      8 C          -8.4395  -18.7490   20.4391 C.ar    1  UNL1        0.0504
      9 C          -9.6136  -19.4504   19.8233 C.ar    1  UNL1        0.0143
     10 C         -11.0091  -19.0377   20.1870 C.ar    1  UNL1       -0.0030
     11 C         -12.6259  -17.5108   21.5303 C.3     1  UNL1        0.0264
     12 C         -12.9907  -17.2853   22.9677 C.3     1  UNL1        0.0047
     13 C         -12.9032  -18.4156   23.9499 C.3     1  UNL1        0.0003
     14 C         -10.7669  -19.8627   24.2528 C.3     1  UNL1        0.0000
     15 C         -11.6121  -18.6928   24.6613 C.3     1  UNL1        0.0000
     16 C          -4.8914  -20.5200   20.5965 C.3     1  UNL1        0.2897
     17 O          -3.7575  -20.2417   21.5381 O.3     1  UNL1       -0.4655
     18 C          -3.0364  -18.9279   21.4761 C.ar    1  UNL1        0.1419
     19 C          -1.7364  -18.8201   20.7356 C.ar    1  UNL1        0.0516
     20 C          -1.0153  -17.5062   20.6736 C.ar    1  UNL1        0.0624
     21 C           0.2848  -17.3985   19.9331 C.3     1  UNL1        0.0522
     22 N          -1.5942  -16.3002   21.3521 N.ar    1  UNL1       -0.2495
     23 C          -2.8942  -16.4080   22.0926 C.ar    1  UNL1        0.0840
     24 C          -3.4731  -15.2019   22.7710 C.ar    1  UNL1        0.0223
     25 C          -4.7731  -15.3098   23.5115 C.ar    1  UNL1        0.0384
     26 C          -5.4942  -16.6236   23.5735 C.ar    1  UNL1        0.1389
     27 C          -4.9153  -17.8296   22.8950 C.ar    1  UNL1        0.0414
     28 C          -3.6153  -17.7218   22.1546 C.ar    1  UNL1        0.0547
     29 O          -6.7943  -16.7314   24.3140 O.3     1  UNL1       -0.4714
     30 C          -7.5385  -15.4899   24.7075 C.3     1  UNL1        0.2525
@<TRIPOS>BOND
     1    14    15    1
     2    15    13    1
     3    13    12    1
     4    12    11    1
     5    11     5    1
     6     5     6   ar
     7     6     7   ar
     8     7     8   ar
     9     8     1    1
    10     1     2   am
    11     2     3    2
    12     2    16    1
    13    16    17    1
    14    17    18    1
    15    18    19   ar
    16    19    20   ar
    17    20    21    1
    18    20    22   ar
    19    22    23   ar
    20    23    24   ar
    21    24    25   ar
    22    25    26   ar
    23    26    29    1
    24    29    30    1
    25    26    27   ar
    26    27    28   ar
    27     8     9   ar
    28     9    10   ar
    29    10     5   ar
    30    28    18   ar
    31    28    23   ar
    32     1     4    1
@<TRIPOS>MOLECULE
*****
 30 32 0 0 0
SMALL
GASTEIGER

@<TRIPOS>ATOM
      1 N          -7.3956  -20.2991   22.3457 N.am    1  UNL1       -0.2809
      2 C          -6.7578  -19.8711   21.0572 C.2     1  UNL1        0.2707
      3 O          -7.4699  -18.9120   20.1501 O.2     1  UNL1       -0.2707
      4 H          -6.9281  -20.9286   22.9410 H       1  UNL1        0.1550
      5 C         -11.4454  -18.7053   23.4898 C.ar    1  UNL1       -0.0221
      6 C         -11.3177  -19.6936   22.3686 C.ar    1  UNL1       -0.0030
      7 C          -9.9677  -20.2249   21.9872 C.ar    1  UNL1        0.0143
      8 C          -8.7455  -19.7678   22.7270 C.ar    1  UNL1        0.0504
      9 C          -8.8732  -18.7795   23.8482 C.ar    1  UNL1        0.0143
     10 C         -10.2232  -18.2483   24.2295 C.ar    1  UNL1       -0.0030
     11 C         -12.7953  -18.1741   23.8711 C.3     1  UNL1        0.0264
     12 C         -13.4171  -17.0651   23.0751 C.3     1  UNL1        0.0047
     13 C         -12.5486  -16.1267   22.2908 C.3     1  UNL1        0.0003
     14 C         -11.1657  -16.7803   20.1908 C.3     1  UNL1        0.0000
     15 C         -12.4384  -16.2740   20.8021 C.3     1  UNL1        0.0000
     16 C          -5.4078  -20.4024   20.6758 C.3     1  UNL1        0.2897
     17 O          -4.2425  -20.2249   21.6034 O.3     1  UNL1       -0.4655
     18 C          -3.3837  -18.9992   21.5027 C.ar    1  UNL1        0.1419
     19 C          -2.1076  -19.0402   20.7154 C.ar    1  UNL1        0.0516
     20 C          -1.2487  -17.8146   20.6147 C.ar    1  UNL1        0.0624
     21 C           0.0274  -17.8557   19.8274 C.3     1  UNL1        0.0522
     22 N          -1.6659  -16.5479   21.3013 N.ar    1  UNL1       -0.2495
     23 C          -2.9420  -16.5069   22.0887 C.ar    1  UNL1        0.0840
     24 C          -3.3592  -15.2402   22.7753 C.ar    1  UNL1        0.0223
     25 C          -4.6353  -15.1992   23.5626 C.ar    1  UNL1        0.0384
     26 C          -5.4942  -16.4248   23.6633 C.ar    1  UNL1        0.1389
     27 C          -5.0770  -17.6915   22.9767 C.ar    1  UNL1        0.0414
     28 C          -3.8009  -17.7325   22.1894 C.ar    1  UNL1        0.0547
     29 O          -6.7703  -16.3837   24.4506 O.3     1  UNL1       -0.4714
     30 C          -6.8712  -15.5173   25.6709 C.3     1  UNL1        0.2525
@<TRIPOS>BOND
     1    14    15    1
     2    15    13    1
     3    13    12    1
     4    12    11    1
     5    11     5    1
     6     5     6   ar
     7     6     7   ar
     8     7     8   ar
     9     8     1    1
    10     1     2   am
    11     2     3    2
    12     2    16    1
    13    16    17    1
    14    17    18    1
    15    18    19   ar
    16    19    20   ar
    17    20    21    1
    18    20    22   ar
    19    22    23   ar
    20    23    24   ar
    21    24    25   ar
    22    25    26   ar
    23    26    29    1
    24    29    30    1
    25    26    27   ar
    26    27    28   ar
    27     8     9   ar
    28     9    10   ar
    29    10     5   ar
    30    28    18   ar
    31    28    23   ar
    32     1     4    1
@<TRIPOS>MOLECULE
*****
 30 32 0 0 0
SMALL
GASTEIGER

@<TRIPOS>ATOM
      1 N          -7.3590  -16.4123   24.7532 N.am    1  UNL1       -0.2809
      2 C          -6.3605  -16.2292   23.6488 C.2     1  UNL1        0.2707
      3 O          -6.7825  -16.4021   22.2199 O.2     1  UNL1       -0.2707
      4 H          -7.0820  -16.2989   25.6911 H       1  UNL1        0.1550
      5 C         -11.6206  -17.4802   23.7791 C.ar    1  UNL1       -0.0221
      6 C         -10.8122  -18.3669   24.6793 C.ar    1  UNL1       -0.0030
      7 C          -9.3917  -18.0110   25.0040 C.ar    1  UNL1        0.0143
      8 C          -8.7795  -16.7683   24.4285 C.ar    1  UNL1        0.0504
      9 C          -9.5879  -15.8816   23.5283 C.ar    1  UNL1        0.0143
     10 C         -11.0084  -16.2376   23.2036 C.ar    1  UNL1       -0.0030
     11 C         -13.0411  -17.8361   23.4544 C.3     1  UNL1        0.0264
     12 C         -13.4492  -18.0685   22.0298 C.3     1  UNL1        0.0047
     13 C         -12.6513  -17.4635   20.9129 C.3     1  UNL1        0.0003
     14 C         -11.1916  -19.6094   20.7934 C.3     1  UNL1        0.0000
     15 C         -11.5191  -18.2319   20.2983 C.3     1  UNL1        0.0000
     16 C          -4.9400  -15.8733   23.9735 C.3     1  UNL1        0.2897
     17 O          -3.8782  -16.9326   23.9544 O.3     1  UNL1       -0.4655
     18 C          -3.2995  -17.3910   22.6487 C.ar    1  UNL1        0.1419
     19 C          -2.0709  -16.7288   22.0992 C.ar    1  UNL1        0.0516
     20 C          -1.4922  -17.1871   20.7934 C.ar    1  UNL1        0.0624
     21 C          -0.2635  -16.5248   20.2439 C.3     1  UNL1        0.0522
     22 N          -2.1420  -18.3077   20.0372 N.ar    1  UNL1       -0.2495
     23 C          -3.3706  -18.9701   20.5867 C.ar    1  UNL1        0.0840
     24 C          -4.0204  -20.0907   19.8305 C.ar    1  UNL1        0.0223
     25 C          -5.2490  -20.7529   20.3800 C.ar    1  UNL1        0.0384
     26 C          -5.8277  -20.2945   21.6857 C.ar    1  UNL1        0.1389
     27 C          -5.1779  -19.1739   22.4420 C.ar    1  UNL1        0.0414
     28 C          -3.9494  -18.5117   21.8924 C.ar    1  UNL1        0.0547
     29 O          -7.0564  -20.9568   22.2352 O.3     1  UNL1       -0.4714
     30 C          -8.1916  -20.1225   22.7500 C.3     1  UNL1        0.2525
@<TRIPOS>BOND
     1    14    15    1
     2    15    13    1
     3    13    12    1
     4    12    11    1
     5    11     5    1
     6     5     6   ar
     7     6     7   ar
     8     7     8   ar
     9     8     1    1
    10     1     2   am
    11     2     3    2
    12     2    16    1
    13    16    17    1
    14    17    18    1
    15    18    19   ar
    16    19    20   ar
    17    20    21    1
    18    20    22   ar
    19    22    23   ar
    20    23    24   ar
    21    24    25   ar
    22    25    26   ar
    23    26    29    1
    24    29    30    1
    25    26    27   ar
    26    27    28   ar
    27     8     9   ar
    28     9    10   ar
    29    10     5   ar
    30    28    18   ar
    31    28    23   ar
    32     1     4    1
@<TRIPOS>MOLECULE
*****
 30 32 0 0 0
SMALL
GASTEIGER

@<TRIPOS>ATOM
      1 N          -0.5096    1.3396   20.1616 N.am    1  UNL1       -0.2809
      2 C          -0.5491    2.6632   20.8663 C.2     1  UNL1        0.2707
      3 O           0.7272    3.3931   21.1632 O.2     1  UNL1       -0.2707
      4 H          -1.3473    0.8605   19.9667 H       1  UNL1        0.1550
      5 C           3.4379   -0.4413   18.9385 C.ar    1  UNL1       -0.0221
      6 C           2.8917    0.7474   18.2044 C.ar    1  UNL1       -0.0030
      7 C           1.5759    1.3410   18.6121 C.ar    1  UNL1        0.0143
      8 C           0.8062    0.7459   19.7539 C.ar    1  UNL1        0.0504
      9 C           1.3524   -0.4427   20.4879 C.ar    1  UNL1        0.0143
     10 C           2.6682   -1.0363   20.0802 C.ar    1  UNL1       -0.0030
     11 C           4.7537   -1.0349   18.5308 C.3     1  UNL1        0.0264
     12 C           4.7976   -2.3857   17.8799 C.3     1  UNL1        0.0047
     13 C           5.3955   -3.5512   18.6106 C.3     1  UNL1        0.0003
     14 C           3.1338   -4.6800   19.2107 C.3     1  UNL1        0.0000
     15 C           4.5824   -4.7910   18.8379 C.3     1  UNL1        0.0000
     16 C          -1.8649    3.2568   21.2740 C.3     1  UNL1        0.2897
     17 O          -3.1444    2.5578   20.9216 O.3     1  UNL1       -0.4655
     18 C          -4.4101    3.3464   20.7602 C.ar    1  UNL1        0.1419
     19 C          -4.9094    3.6909   19.3884 C.ar    1  UNL1        0.0516
     20 C          -6.1751    4.4796   19.2270 C.ar    1  UNL1        0.0624
     21 C          -6.6744    4.8240   17.8550 C.3     1  UNL1        0.0522
     22 N          -6.9415    4.9238   20.4374 N.ar    1  UNL1       -0.2495
     23 C          -6.4422    4.5793   21.8094 C.ar    1  UNL1        0.0840
     24 C          -7.2086    5.0236   23.0199 C.ar    1  UNL1        0.0223
     25 C          -6.7093    4.6791   24.3917 C.ar    1  UNL1        0.0384
     26 C          -5.4436    3.8904   24.5531 C.ar    1  UNL1        0.1389
     27 C          -4.6772    3.4462   23.3426 C.ar    1  UNL1        0.0414
     28 C          -5.1765    3.7907   21.9708 C.ar    1  UNL1        0.0547
     29 O          -4.9444    3.5460   25.9250 O.3     1  UNL1       -0.4714
     30 C          -4.6325    4.6374   26.9056 C.3     1  UNL1        0.2525
@<TRIPOS>BOND
     1    14    15    1
     2    15    13    1
     3    13    12    1
     4    12    11    1
     5    11     5    1
     6     5     6   ar
     7     6     7   ar
     8     7     8   ar
     9     8     1    1
    10     1     2   am
    11     2     3    2
    12     2    16    1
    13    16    17    1
    14    17    18    1
    15    18    19   ar
    16    19    20   ar
    17    20    21    1
    18    20    22   ar
    19    22    23   ar
    20    23    24   ar
    21    24    25   ar
    22    25    26   ar
    23    26    29    1
    24    29    30    1
    25    26    27   ar
    26    27    28   ar
    27     8     9   ar
    28     9    10   ar
    29    10     5   ar
    30    28    18   ar
    31    28    23   ar
    32     1     4    1
@<TRIPOS>MOLECULE
*****
 30 32 0 0 0
SMALL
GASTEIGER

@<TRIPOS>ATOM
      1 N          -8.0295  -19.6438   21.0417 N.am    1  UNL1       -0.2809
      2 C          -8.7153  -19.3328   19.7444 C.2     1  UNL1        0.2707
      3 O          -7.9048  -19.1102   18.5021 O.2     1  UNL1       -0.2707
      4 H          -8.5615  -19.7898   21.8571 H       1  UNL1        0.1550
      5 C          -3.5403  -19.9091   21.2064 C.ar    1  UNL1       -0.0221
      6 C          -4.2823  -19.1053   22.2329 C.ar    1  UNL1       -0.0030
      7 C          -5.7786  -19.0169   22.1780 C.ar    1  UNL1        0.0143
      8 C          -6.5331  -19.7322   21.0966 C.ar    1  UNL1        0.0504
      9 C          -5.7911  -20.5359   20.0702 C.ar    1  UNL1        0.0143
     10 C          -4.2947  -20.6244   20.1251 C.ar    1  UNL1       -0.0030
     11 C          -2.0439  -19.9976   21.2613 C.3     1  UNL1        0.0264
     12 C          -1.2070  -19.0771   20.4232 C.3     1  UNL1        0.0047
     13 C          -1.7858  -17.7889   19.9176 C.3     1  UNL1        0.0003
     14 C          -2.2110  -16.2385   21.9586 C.3     1  UNL1        0.0000
     15 C          -1.5227  -16.5086   20.6534 C.3     1  UNL1        0.0000
     16 C         -10.2117  -19.2443   19.6895 C.3     1  UNL1        0.2897
     17 O         -10.9047  -17.9846   20.1169 O.3     1  UNL1       -0.4655
     18 C         -11.2888  -17.7903   21.5539 C.ar    1  UNL1        0.1419
     19 C         -12.6521  -18.1987   22.0276 C.ar    1  UNL1        0.0516
     20 C         -13.0361  -18.0045   23.4646 C.ar    1  UNL1        0.0624
     21 C         -14.3996  -18.4129   23.9383 C.3     1  UNL1        0.0522
     22 N         -12.0568  -17.4019   24.4278 N.ar    1  UNL1       -0.2495
     23 C         -10.6934  -16.9935   23.9540 C.ar    1  UNL1        0.0840
     24 C          -9.7141  -16.3909   24.9172 C.ar    1  UNL1        0.0223
     25 C          -8.3507  -15.9825   24.4435 C.ar    1  UNL1        0.0384
     26 C          -7.9667  -16.1768   23.0065 C.ar    1  UNL1        0.1389
     27 C          -8.9460  -16.7794   22.0434 C.ar    1  UNL1        0.0414
     28 C         -10.3094  -17.1877   22.5171 C.ar    1  UNL1        0.0547
     29 O          -6.6033  -15.7684   22.5328 O.3     1  UNL1       -0.4714
     30 C          -5.5546  -15.3629   23.5257 C.3     1  UNL1        0.2525
@<TRIPOS>BOND
     1    14    15    1
     2    15    13    1
     3    13    12    1
     4    12    11    1
     5    11     5    1
     6     5     6   ar
     7     6     7   ar
     8     7     8   ar
     9     8     1    1
    10     1     2   am
    11     2     3    2
    12     2    16    1
    13    16    17    1
    14    17    18    1
    15    18    19   ar
    16    19    20   ar
    17    20    21    1
    18    20    22   ar
    19    22    23   ar
    20    23    24   ar
    21    24    25   ar
    22    25    26   ar
    23    26    29    1
    24    29    30    1
    25    26    27   ar
    26    27    28   ar
    27     8     9   ar
    28     9    10   ar
    29    10     5   ar
    30    28    18   ar
    31    28    23   ar
    32     1     4    1
@<TRIPOS>MOLECULE
*****
 30 32 0 0 0
SMALL
GASTEIGER

@<TRIPOS>ATOM
      1 N           4.4741   -2.2093   24.8746 N.am    1  UNL1       -0.2809
      2 C           5.4627   -1.2184   25.4141 C.2     1  UNL1        0.2707
      3 O           6.2614   -0.3670   24.4721 O.2     1  UNL1       -0.2707
      4 H           3.9499   -2.7681   25.4928 H       1  UNL1        0.1550
      5 C           3.9046   -2.6277   20.4305 C.ar    1  UNL1       -0.0221
      6 C           3.2783   -1.4774   21.1619 C.ar    1  UNL1       -0.0030
      7 C           3.4682   -1.3380   22.6432 C.ar    1  UNL1        0.0143
      8 C           4.2843   -2.3488   23.3932 C.ar    1  UNL1        0.0504
      9 C           4.9105   -3.4989   22.6618 C.ar    1  UNL1        0.0143
     10 C           4.7206   -3.6384   21.1804 C.ar    1  UNL1       -0.0030
     11 C           3.7147   -2.7671   18.9491 C.3     1  UNL1        0.0264
     12 C           4.4854   -1.8891   18.0082 C.3     1  UNL1        0.0047
     13 C           3.7791   -0.8129   17.2382 C.3     1  UNL1        0.0003
     14 C           1.8602    0.5133   18.3823 C.3     1  UNL1        0.0000
     15 C           3.2916    0.4175   17.9441 C.3     1  UNL1        0.0000
     16 C           5.6526   -1.0789   26.8954 C.3     1  UNL1        0.2897
     17 O           6.8859   -1.6287   27.5486 O.3     1  UNL1       -0.4655
     18 C           7.0338   -3.1082   27.7466 C.ar    1  UNL1        0.1419
     19 C           7.2809   -4.0017   26.5674 C.ar    1  UNL1        0.0516
     20 C           7.4287   -5.4812   26.7655 C.ar    1  UNL1        0.0624
     21 C           7.6758   -6.3747   25.5862 C.3     1  UNL1        0.0522
     22 N           7.3295   -6.0672   28.1427 N.ar    1  UNL1       -0.2495
     23 C           7.0824   -5.1736   29.3219 C.ar    1  UNL1        0.0840
     24 C           6.9832   -5.7596   30.6991 C.ar    1  UNL1        0.0223
     25 C           6.7361   -4.8660   31.8783 C.ar    1  UNL1        0.0384
     26 C           6.5882   -3.3865   31.6803 C.ar    1  UNL1        0.1389
     27 C           6.6874   -2.8006   30.3031 C.ar    1  UNL1        0.0414
     28 C           6.9345   -3.6941   29.1239 C.ar    1  UNL1        0.0547
     29 O           6.3411   -2.4930   32.8595 O.3     1  UNL1       -0.4714
     30 C           4.9389   -2.1089   33.2287 C.3     1  UNL1        0.2525
@<TRIPOS>BOND
     1    14    15    1
     2    15    13    1
     3    13    12    1
     4    12    11    1
     5    11     5    1
     6     5     6   ar
     7     6     7   ar
     8     7     8   ar
     9     8     1    1
    10     1     2   am
    11     2     3    2
    12     2    16    1
    13    16    17    1
    14    17    18    1
    15    18    19   ar
    16    19    20   ar
    17    20    21    1
    18    20    22   ar
    19    22    23   ar
    20    23    24   ar
    21    24    25   ar
    22    25    26   ar
    23    26    29    1
    24    29    30    1
    25    26    27   ar
    26    27    28   ar
    27     8     9   ar
    28     9    10   ar
    29    10     5   ar
    30    28    18   ar
    31    28    23   ar
    32     1     4    1
@<TRIPOS>MOLECULE
*****
 30 32 0 0 0
SMALL
GASTEIGER

@<TRIPOS>ATOM
      1 N           1.2132    0.3597   24.7294 N.am    1  UNL1       -0.2809
      2 C           2.6451    0.7859   24.5954 C.2     1  UNL1        0.2707
      3 O           3.0504    2.1811   24.9683 O.2     1  UNL1       -0.2707
      4 H           0.9472   -0.5561   24.4847 H       1  UNL1        0.1550
      5 C          -1.8667    3.2669   26.2501 C.ar    1  UNL1       -0.0221
      6 C          -1.2596    2.2611   27.1830 C.ar    1  UNL1       -0.0030
      7 C          -0.2330    1.2921   26.6760 C.ar    1  UNL1        0.0143
      8 C           0.1865    1.3287   25.2363 C.ar    1  UNL1        0.0504
      9 C          -0.4205    2.3344   24.3036 C.ar    1  UNL1        0.0143
     10 C          -1.4471    3.3035   24.8105 C.ar    1  UNL1       -0.0030
     11 C          -2.8933    4.2359   26.7570 C.3     1  UNL1        0.0264
     12 C          -3.7975    4.9439   25.7919 C.3     1  UNL1        0.0047
     13 C          -5.1633    4.3951   25.5032 C.3     1  UNL1        0.0003
     14 C          -4.9131    2.9845   23.3358 C.3     1  UNL1        0.0000
     15 C          -5.5706    4.1023   24.0896 C.3     1  UNL1        0.0000
     16 C           3.6718   -0.1832   24.0885 C.3     1  UNL1        0.2897
     17 O           3.2706   -1.2717   23.1377 O.3     1  UNL1       -0.4655
     18 C           3.6704   -1.1917   21.6942 C.ar    1  UNL1        0.1419
     19 C           4.9616   -1.8042   21.2385 C.ar    1  UNL1        0.0516
     20 C           5.3614   -1.7242   19.7950 C.ar    1  UNL1        0.0624
     21 C           6.6527   -2.3368   19.3393 C.3     1  UNL1        0.0522
     22 N           4.4701   -1.0316   18.8071 N.ar    1  UNL1       -0.2495
     23 C           3.1789   -0.4190   19.2628 C.ar    1  UNL1        0.0840
     24 C           2.2876    0.2735   18.2750 C.ar    1  UNL1        0.0223
     25 C           0.9964    0.8860   18.7306 C.ar    1  UNL1        0.0384
     26 C           0.5966    0.8060   20.1741 C.ar    1  UNL1        0.1389
     27 C           1.4879    0.1135   21.1620 C.ar    1  UNL1        0.0414
     28 C           2.7790   -0.4991   20.7063 C.ar    1  UNL1        0.0547
     29 O          -0.6946    1.4186   20.6298 O.3     1  UNL1       -0.4714
     30 C          -0.9030    2.8998   20.5173 C.3     1  UNL1        0.2525
@<TRIPOS>BOND
     1    14    15    1
     2    15    13    1
     3    13    12    1
     4    12    11    1
     5    11     5    1
     6     5     6   ar
     7     6     7   ar
     8     7     8   ar
     9     8     1    1
    10     1     2   am
    11     2     3    2
    12     2    16    1
    13    16    17    1
    14    17    18    1
    15    18    19   ar
    16    19    20   ar
    17    20    21    1
    18    20    22   ar
    19    22    23   ar
    20    23    24   ar
    21    24    25   ar
    22    25    26   ar
    23    26    29    1
    24    29    30    1
    25    26    27   ar
    26    27    28   ar
    27     8     9   ar
    28     9    10   ar
    29    10     5   ar
    30    28    18   ar
    31    28    23   ar
    32     1     4    1
