@<TRIPOS>MOLECULE
*****
 24 28 0 0 0
SMALL
GASTEIGER

@<TRIPOS>ATOM
      1 N          -7.7900  -19.9075   19.8536 N.pl3   1  UNL1       -0.2536
      2 H          -7.8231  -20.5009   19.0687 H       1  UNL1        0.1579
      3 C          -6.4776  -19.6168   20.5192 C.2     1  UNL1        0.2847
      4 N          -6.2163  -19.6293   21.9962 N.2     1  UNL1       -0.2204
      5 C          -4.7733  -19.2827   22.2146 C.3     1  UNL1        0.1712
      6 C          -4.1428  -19.0561   20.8725 C.3     1  UNL1        0.1729
      7 C          -3.6529  -18.8610   19.4683 C.3     1  UNL1        0.1147
      8 N          -2.2206  -18.4926   19.2180 N.3     1  UNL1       -0.2697
      9 C          -1.2781  -18.3192   20.3719 C.3     1  UNL1        0.0723
     10 C          -1.7680  -18.5143   21.7761 C.3     1  UNL1        0.0209
     11 C          -3.2003  -18.8827   22.0264 C.3     1  UNL1        0.0429
     12 C          -3.4744  -18.8841   20.7557 C.3     1  UNL1        0.0209
     13 C          -3.2131  -18.7801   20.0068 C.3     1  UNL1        0.0723
     14 O          -5.1961  -19.2625   19.8248 O.2     1  UNL1       -0.4536
     15 C         -13.2627  -17.7156   23.3885 C.ar    1  UNL1        0.0000
     16 C         -12.4254  -18.5913   24.2729 C.ar    1  UNL1        0.0000
     17 C         -11.1635  -19.2048   23.7428 C.ar    1  UNL1        0.0001
     18 C         -10.7388  -18.9426   22.3283 C.ar    1  UNL1        0.0043
     19 C          -9.4767  -19.5562   21.7982 C.ar    1  UNL1        0.0345
     20 C          -9.0520  -19.2940   20.3837 C.ar    1  UNL1        0.1354
     21 N          -9.8892  -18.4182   19.4993 N.ar    1  UNL1       -0.2290
     22 C         -11.1512  -17.8047   20.0294 C.ar    1  UNL1        0.1003
     23 C         -11.5759  -18.0669   21.4439 C.ar    1  UNL1        0.0193
     24 C         -12.8379  -17.4534   21.9741 C.ar    1  UNL1        0.0015
@<TRIPOS>BOND
     1    15    16   ar
     2    16    17   ar
     3    17    18   ar
     4    18    19   ar
     5    19    20   ar
     6    20     1    1
     7     1     3    1
     8     3     4    2
     9     4     5    1
    10     6     5    1
    11     6     7    1
    12     7     8    1
    13     8     9    1
    14     9    10    1
    15    10    11    1
    16    11    12    1
    17    12    13    1
    18     6    14    1
    19    20    21   ar
    20    21    22   ar
    21    22    23   ar
    22    23    24   ar
    23    24    15   ar
    24    23    18   ar
    25    14     3    1
    26    11     6    1
    27    13     8    1
    28     1     2    1
@<TRIPOS>MOLECULE
*****
 24 28 0 0 0
SMALL
GASTEIGER

@<TRIPOS>ATOM
      1 N          -6.5160  -19.5584   22.1418 N.pl3   1  UNL1       -0.2536
      2 H          -6.5996  -20.5372   22.2057 H       1  UNL1        0.1579
      3 C          -5.1637  -18.9303   21.9781 C.2     1  UNL1        0.2847
      4 N          -4.4010  -18.1906   23.0369 N.2     1  UNL1       -0.2204
      5 C          -3.1027  -17.7348   22.4398 C.3     1  UNL1        0.1712
      6 C          -3.0629  -18.1927   21.0120 C.3     1  UNL1        0.1729
      7 C          -3.1647  -18.7138   19.6092 C.3     1  UNL1        0.1147
      8 N          -2.0473  -18.4749   18.6374 N.3     1  UNL1       -0.2697
      9 C          -0.8281  -17.7148   19.0684 C.3     1  UNL1        0.0723
     10 C          -0.7263  -17.1937   20.4713 C.3     1  UNL1        0.0209
     11 C          -1.8437  -17.4327   21.4431 C.3     1  UNL1        0.0429
     12 C          -2.5415  -18.0812   20.5585 C.3     1  UNL1        0.0209
     13 C          -2.5957  -18.3591   19.8103 C.3     1  UNL1        0.0723
     14 O          -4.3367  -18.9316   20.7266 O.2     1  UNL1       -0.4536
     15 C         -12.7072  -16.6738   22.9152 C.ar    1  UNL1        0.0000
     16 C         -12.7742  -18.1059   23.3564 C.ar    1  UNL1        0.0000
     17 C         -11.5494  -18.9692   23.2899 C.ar    1  UNL1        0.0001
     18 C         -10.2576  -18.4004   22.7823 C.ar    1  UNL1        0.0043
     19 C          -9.0326  -19.2638   22.7159 C.ar    1  UNL1        0.0345
     20 C          -7.7408  -18.6951   22.2083 C.ar    1  UNL1        0.1354
     21 N          -7.6739  -17.2630   21.7671 N.ar    1  UNL1       -0.2290
     22 C          -8.8987  -16.3996   21.8335 C.ar    1  UNL1        0.1003
     23 C         -10.1905  -16.9684   22.3411 C.ar    1  UNL1        0.0193
     24 C         -11.4154  -16.1051   22.4076 C.ar    1  UNL1        0.0015
@<TRIPOS>BOND
     1    15    16   ar
     2    16    17   ar
     3    17    18   ar
     4    18    19   ar
     5    19    20   ar
     6    20     1    1
     7     1     3    1
     8     3     4    2
     9     4     5    1
    10     6     5    1
    11     6     7    1
    12     7     8    1
    13     8     9    1
    14     9    10    1
    15    10    11    1
    16    11    12    1
    17    12    13    1
    18     6    14    1
    19    20    21   ar
    20    21    22   ar
    21    22    23   ar
    22    23    24   ar
    23    24    15   ar
    24    23    18   ar
    25    14     3    1
    26    11     6    1
    27    13     8    1
    28     1     2    1
@<TRIPOS>MOLECULE
*****
 24 28 0 0 0
SMALL
GASTEIGER

@<TRIPOS>ATOM
      1 N          -6.8943  -20.2411   22.3146 N.pl3   1  UNL1       -0.2536
      2 H          -6.8768  -20.9864   22.9577 H       1  UNL1        0.1579
      3 C          -8.1886  -19.5507   22.0017 C.2     1  UNL1        0.2847
      4 N          -8.5477  -18.8986   20.6995 N.2     1  UNL1       -0.2204
      5 C          -9.9322  -18.3361   20.8290 C.3     1  UNL1        0.1712
      6 C         -10.4288  -18.6406   22.2113 C.3     1  UNL1        0.1729
      7 C         -10.7874  -19.0155   23.6187 C.3     1  UNL1        0.1147
      8 N         -12.1264  -18.6360   24.1780 N.3     1  UNL1       -0.2697
      9 C         -13.1069  -17.8814   23.3300 C.3     1  UNL1        0.0723
     10 C         -12.7484  -17.5065   21.9226 C.3     1  UNL1        0.0209
     11 C         -11.4093  -17.8860   21.3633 C.3     1  UNL1        0.0429
     12 C         -11.0537  -18.4634   22.4723 C.3     1  UNL1        0.0209
     13 C         -11.2449  -18.6634   23.2229 C.3     1  UNL1        0.0723
     14 O          -9.3512  -19.3913   22.9360 O.2     1  UNL1       -0.4536
     15 C          -1.0236  -17.3344   20.2323 C.ar    1  UNL1        0.0000
     16 C          -1.4917  -16.6533   21.4841 C.ar    1  UNL1        0.0000
     17 C          -2.7594  -17.0984   22.1509 C.ar    1  UNL1        0.0001
     18 C          -3.5590  -18.2246   21.5659 C.ar    1  UNL1        0.0043
     19 C          -4.8269  -18.6698   22.2328 C.ar    1  UNL1        0.0345
     20 C          -5.6265  -19.7960   21.6478 C.ar    1  UNL1        0.1354
     21 N          -5.1584  -20.4770   20.3960 N.ar    1  UNL1       -0.2290
     22 C          -3.8907  -20.0319   19.7292 C.ar    1  UNL1        0.1003
     23 C          -3.0910  -18.9057   20.3142 C.ar    1  UNL1        0.0193
     24 C          -1.8232  -18.4605   19.6474 C.ar    1  UNL1        0.0015
@<TRIPOS>BOND
     1    15    16   ar
     2    16    17   ar
     3    17    18   ar
     4    18    19   ar
     5    19    20   ar
     6    20     1    1
     7     1     3    1
     8     3     4    2
     9     4     5    1
    10     6     5    1
    11     6     7    1
    12     7     8    1
    13     8     9    1
    14     9    10    1
    15    10    11    1
    16    11    12    1
    17    12    13    1
    18     6    14    1
    19    20    21   ar
    20    21    22   ar
    21    22    23   ar
    22    23    24   ar
    23    24    15   ar
    24    23    18   ar
    25    14     3    1
    26    11     6    1
    27    13     8    1
    28     1     2    1
@<TRIPOS>MOLECULE
*****
 24 28 0 0 0
SMALL
GASTEIGER

@<TRIPOS>ATOM
      1 N          -7.1108  -20.0199   20.7040 N.pl3   1  UNL1       -0.2536
      2 H          -7.3040  -20.8349   20.1866 H       1  UNL1        0.1579
      3 C          -8.2357  -19.2202   21.2915 C.2     1  UNL1        0.2847
      4 N          -8.4538  -18.9442   22.7496 N.2     1  UNL1       -0.2204
      5 C          -9.6930  -18.1096   22.8832 C.3     1  UNL1        0.1712
      6 C         -10.2408  -17.8697   21.5075 C.3     1  UNL1        0.1729
      7 C         -10.6680  -17.7147   20.0781 C.3     1  UNL1        0.1147
      8 N         -11.9000  -16.9268   19.7447 N.3     1  UNL1       -0.2697
      9 C         -12.7049  -16.2938   20.8408 C.3     1  UNL1        0.0723
     10 C         -12.2777  -16.4488   22.2703 C.3     1  UNL1        0.0209
     11 C         -11.0456  -17.2367   22.6036 C.3     1  UNL1        0.0429
     12 C         -10.8157  -17.5020   21.3520 C.3     1  UNL1        0.0209
     13 C         -11.0436  -17.4193   20.5896 C.3     1  UNL1        0.0723
     14 O          -9.3402  -18.5561   20.5238 O.2     1  UNL1       -0.4536
     15 C          -0.6098  -17.8179   20.3323 C.ar    1  UNL1        0.0000
     16 C          -1.2050  -17.8260   18.9555 C.ar    1  UNL1        0.0000
     17 C          -2.6242  -18.2680   18.7544 C.ar    1  UNL1        0.0001
     18 C          -3.4482  -18.7019   19.9303 C.ar    1  UNL1        0.0043
     19 C          -4.8676  -19.1440   19.7292 C.ar    1  UNL1        0.0345
     20 C          -5.6916  -19.5779   20.9051 C.ar    1  UNL1        0.1354
     21 N          -5.0965  -19.5697   22.2819 N.ar    1  UNL1       -0.2290
     22 C          -3.6773  -19.1277   22.4830 C.ar    1  UNL1        0.1003
     23 C          -2.8532  -18.6938   21.3071 C.ar    1  UNL1        0.0193
     24 C          -1.4339  -18.2517   21.5081 C.ar    1  UNL1        0.0015
@<TRIPOS>BOND
     1    15    16   ar
     2    16    17   ar
     3    17    18   ar
     4    18    19   ar
     5    19    20   ar
     6    20     1    1
     7     1     3    1
     8     3     4    2
     9     4     5    1
    10     6     5    1
    11     6     7    1
    12     7     8    1
    13     8     9    1
    14     9    10    1
    15    10    11    1
    16    11    12    1
    17    12    13    1
    18     6    14    1
    19    20    21   ar
    20    21    22   ar
    21    22    23   ar
    22    23    24   ar
    23    24    15   ar
    24    23    18   ar
    25    14     3    1
    26    11     6    1
    27    13     8    1
    28     1     2    1
@<TRIPOS>MOLECULE
*****
 24 28 0 0 0
SMALL
GASTEIGER

@<TRIPOS>ATOM
      1 N          -6.8316  -16.1309   23.8092 N.pl3   1  UNL1       -0.2536
      2 H          -6.7192  -15.5302   24.5810 H       1  UNL1        0.1579
      3 C          -5.6523  -16.8810   23.2646 C.2     1  UNL1        0.2847
      4 N          -4.2132  -16.6279   23.6038 N.2     1  UNL1       -0.2204
      5 C          -3.3765  -17.6064   22.8341 C.3     1  UNL1        0.1712
      6 C          -4.2985  -18.4643   22.0192 C.3     1  UNL1        0.1729
      7 C          -5.3386  -19.2391   21.2657 C.3     1  UNL1        0.1147
      8 N          -4.9265  -20.3502   20.3462 N.3     1  UNL1       -0.2697
      9 C          -3.4742  -20.6866   20.1801 C.3     1  UNL1        0.0723
     10 C          -2.4340  -19.9118   20.9336 C.3     1  UNL1        0.0209
     11 C          -2.8462  -18.8007   21.8531 C.3     1  UNL1        0.0429
     12 C          -4.1061  -18.9829   21.5901 C.3     1  UNL1        0.0209
     13 C          -4.6609  -19.3961   21.1882 C.3     1  UNL1        0.0723
     14 O          -5.7049  -18.0160   22.2853 O.2     1  UNL1       -0.4536
     15 C         -13.2982  -17.5817   21.9849 C.ar    1  UNL1        0.0000
     16 C         -13.0122  -18.2067   23.3182 C.ar    1  UNL1        0.0000
     17 C         -11.6617  -18.0415   23.9497 C.ar    1  UNL1        0.0001
     18 C         -10.5972  -17.2514   23.2479 C.ar    1  UNL1        0.0043
     19 C          -9.2466  -17.0862   23.8795 C.ar    1  UNL1        0.0345
     20 C          -8.1821  -16.2961   23.1777 C.ar    1  UNL1        0.1354
     21 N          -8.4681  -15.6711   21.8444 N.ar    1  UNL1       -0.2290
     22 C          -9.8186  -15.8362   21.2130 C.ar    1  UNL1        0.1003
     23 C         -10.8831  -16.6264   21.9147 C.ar    1  UNL1        0.0193
     24 C         -12.2337  -16.7916   21.2833 C.ar    1  UNL1        0.0015
@<TRIPOS>BOND
     1    15    16   ar
     2    16    17   ar
     3    17    18   ar
     4    18    19   ar
     5    19    20   ar
     6    20     1    1
     7     1     3    1
     8     3     4    2
     9     4     5    1
    10     6     5    1
    11     6     7    1
    12     7     8    1
    13     8     9    1
    14     9    10    1
    15    10    11    1
    16    11    12    1
    17    12    13    1
    18     6    14    1
    19    20    21   ar
    20    21    22   ar
    21    22    23   ar
    22    23    24   ar
    23    24    15   ar
    24    23    18   ar
    25    14     3    1
    26    11     6    1
    27    13     8    1
    28     1     2    1
@<TRIPOS>MOLECULE
*****
 24 28 0 0 0
SMALL
GASTEIGER

@<TRIPOS>ATOM
      1 N          -6.9363  -15.5423   24.3529 N.pl3   1  UNL1       -0.2536
      2 H          -6.9265  -14.8345   25.0372 H       1  UNL1        0.1579
      3 C          -5.6558  -15.9735   23.7015 C.2     1  UNL1        0.2847
      4 N          -4.5041  -15.0812   23.3444 N.2     1  UNL1       -0.2204
      5 C          -3.4387  -15.9289   22.7149 C.3     1  UNL1        0.1712
      6 C          -3.9318  -17.3452   22.6830 C.3     1  UNL1        0.1729
      7 C          -4.5561  -18.7086   22.7194 C.3     1  UNL1        0.1147
      8 N          -3.8101  -19.8899   22.1736 N.3     1  UNL1       -0.2697
      9 C          -2.4397  -19.7078   21.5914 C.3     1  UNL1        0.0723
     10 C          -1.8154  -18.3444   21.5551 C.3     1  UNL1        0.0209
     11 C          -2.5615  -17.1631   22.1009 C.3     1  UNL1        0.0429
     12 C          -3.5837  -17.8965   22.4283 C.3     1  UNL1        0.0209
     13 C          -3.9166  -18.6236   22.4477 C.3     1  UNL1        0.0723
     14 O          -5.3020  -17.3727   23.2927 O.2     1  UNL1       -0.4536
     15 C         -12.7555  -17.7980   21.4723 C.ar    1  UNL1        0.0000
     16 C         -12.0975  -16.8177   20.5471 C.ar    1  UNL1        0.0000
     17 C         -10.8021  -16.1704   20.9382 C.ar    1  UNL1        0.0001
     18 C         -10.1647  -16.5036   22.2545 C.ar    1  UNL1        0.0043
     19 C          -8.8691  -15.8563   22.6455 C.ar    1  UNL1        0.0345
     20 C          -8.2317  -16.1895   23.9618 C.ar    1  UNL1        0.1354
     21 N          -8.8896  -17.1699   24.8870 N.ar    1  UNL1       -0.2290
     22 C         -10.1850  -17.8171   24.4959 C.ar    1  UNL1        0.1003
     23 C         -10.8225  -17.4839   23.1796 C.ar    1  UNL1        0.0193
     24 C         -12.1180  -18.1312   22.7885 C.ar    1  UNL1        0.0015
@<TRIPOS>BOND
     1    15    16   ar
     2    16    17   ar
     3    17    18   ar
     4    18    19   ar
     5    19    20   ar
     6    20     1    1
     7     1     3    1
     8     3     4    2
     9     4     5    1
    10     6     5    1
    11     6     7    1
    12     7     8    1
    13     8     9    1
    14     9    10    1
    15    10    11    1
    16    11    12    1
    17    12    13    1
    18     6    14    1
    19    20    21   ar
    20    21    22   ar
    21    22    23   ar
    22    23    24   ar
    23    24    15   ar
    24    23    18   ar
    25    14     3    1
    26    11     6    1
    27    13     8    1
    28     1     2    1
@<TRIPOS>MOLECULE
*****
 24 28 0 0 0
SMALL
GASTEIGER

@<TRIPOS>ATOM
      1 N          -5.7044  -16.6142   23.8381 N.pl3   1  UNL1       -0.2536
      2 H          -5.4339  -16.0130   24.5693 H       1  UNL1        0.1579
      3 C          -4.6624  -17.3405   23.0401 C.2     1  UNL1        0.2847
      4 N          -4.5993  -18.8220   22.8136 N.2     1  UNL1       -0.2204
      5 C          -3.3985  -19.1099   21.9620 C.3     1  UNL1        0.1712
      6 C          -2.7195  -17.8064   21.6622 C.3     1  UNL1        0.1729
      7 C          -2.1531  -16.4342   21.4475 C.3     1  UNL1        0.1147
      8 N          -0.9110  -16.2556   20.6256 N.3     1  UNL1       -0.2697
      9 C          -0.2353  -17.4493   20.0186 C.3     1  UNL1        0.0723
     10 C          -0.8017  -18.8215   20.2333 C.3     1  UNL1        0.0209
     11 C          -2.0438  -19.0001   21.0551 C.3     1  UNL1        0.0429
     12 C          -2.1399  -17.7231   21.2787 C.3     1  UNL1        0.0209
     13 C          -1.8378  -16.9913   21.1641 C.3     1  UNL1        0.0723
     14 O          -3.5006  -16.7129   22.3285 O.2     1  UNL1       -0.4536
     15 C         -11.9318  -18.2776   21.4502 C.ar    1  UNL1        0.0000
     16 C         -10.8893  -18.9925   20.6427 C.ar    1  UNL1        0.0000
     17 C          -9.4353  -18.8028   20.9588 C.ar    1  UNL1        0.0001
     18 C          -9.0239  -17.8982   22.0824 C.ar    1  UNL1        0.0043
     19 C          -7.5698  -17.7085   22.3984 C.ar    1  UNL1        0.0345
     20 C          -7.1583  -16.8039   23.5220 C.ar    1  UNL1        0.1354
     21 N          -8.2009  -16.0890   24.3295 N.ar    1  UNL1       -0.2290
     22 C          -9.6549  -16.2787   24.0134 C.ar    1  UNL1        0.1003
     23 C         -10.0663  -17.1833   22.8899 C.ar    1  UNL1        0.0193
     24 C         -11.5204  -17.3731   22.5737 C.ar    1  UNL1        0.0015
@<TRIPOS>BOND
     1    15    16   ar
     2    16    17   ar
     3    17    18   ar
     4    18    19   ar
     5    19    20   ar
     6    20     1    1
     7     1     3    1
     8     3     4    2
     9     4     5    1
    10     6     5    1
    11     6     7    1
    12     7     8    1
    13     8     9    1
    14     9    10    1
    15    10    11    1
    16    11    12    1
    17    12    13    1
    18     6    14    1
    19    20    21   ar
    20    21    22   ar
    21    22    23   ar
    22    23    24   ar
    23    24    15   ar
    24    23    18   ar
    25    14     3    1
    26    11     6    1
    27    13     8    1
    28     1     2    1
@<TRIPOS>MOLECULE
*****
 24 28 0 0 0
SMALL
GASTEIGER

@<TRIPOS>ATOM
      1 N          -6.9017  -16.2721   24.0464 N.pl3   1  UNL1       -0.2536
      2 H          -6.6982  -15.5585   24.6934 H       1  UNL1        0.1579
      3 C          -8.3269  -16.6491   23.7692 C.2     1  UNL1        0.2847
      4 N          -9.2154  -17.4583   24.6668 N.2     1  UNL1       -0.2204
      5 C         -10.5514  -17.5923   23.9980 C.3     1  UNL1        0.1712
      6 C         -10.4886  -16.8659   22.6872 C.3     1  UNL1        0.1729
      7 C         -10.2772  -16.1040   21.4125 C.3     1  UNL1        0.1147
      8 N         -11.3932  -15.9819   20.4178 N.3     1  UNL1       -0.2697
      9 C         -12.7207  -16.6217   20.6977 C.3     1  UNL1        0.0723
     10 C         -12.9321  -17.3836   21.9723 C.3     1  UNL1        0.0209
     11 C         -11.8161  -17.5057   22.9671 C.3     1  UNL1        0.0429
     12 C         -11.0094  -16.8089   22.2230 C.3     1  UNL1        0.0209
     13 C         -10.8966  -16.4026   21.5432 C.3     1  UNL1        0.0723
     14 O          -9.1138  -16.2829   22.5458 O.2     1  UNL1       -0.4536
     15 C          -2.7445  -20.2730   20.3101 C.ar    1  UNL1        0.0000
     16 C          -4.1625  -20.7223   20.1168 C.ar    1  UNL1        0.0000
     17 C          -5.2776  -20.0120   20.8254 C.ar    1  UNL1        0.0001
     18 C          -4.9746  -18.8524   21.7273 C.ar    1  UNL1        0.0043
     19 C          -6.0897  -18.1421   22.4359 C.ar    1  UNL1        0.0345
     20 C          -5.7867  -16.9824   23.3378 C.ar    1  UNL1        0.1354
     21 N          -4.3687  -16.5331   23.5311 N.ar    1  UNL1       -0.2290
     22 C          -3.2537  -17.2434   22.8225 C.ar    1  UNL1        0.1003
     23 C          -3.5567  -18.4030   21.9206 C.ar    1  UNL1        0.0193
     24 C          -2.4416  -19.1134   21.2119 C.ar    1  UNL1        0.0015
@<TRIPOS>BOND
     1    15    16   ar
     2    16    17   ar
     3    17    18   ar
     4    18    19   ar
     5    19    20   ar
     6    20     1    1
     7     1     3    1
     8     3     4    2
     9     4     5    1
    10     6     5    1
    11     6     7    1
    12     7     8    1
    13     8     9    1
    14     9    10    1
    15    10    11    1
    16    11    12    1
    17    12    13    1
    18     6    14    1
    19    20    21   ar
    20    21    22   ar
    21    22    23   ar
    22    23    24   ar
    23    24    15   ar
    24    23    18   ar
    25    14     3    1
    26    11     6    1
    27    13     8    1
    28     1     2    1
@<TRIPOS>MOLECULE
*****
 24 28 0 0 0
SMALL
GASTEIGER

@<TRIPOS>ATOM
      1 N          -5.2177  -16.2246   24.4248 N.pl3   1  UNL1       -0.2536
      2 H          -4.8132  -15.7391   25.1798 H       1  UNL1        0.1579
      3 C          -6.7052  -16.2071   24.2326 C.2     1  UNL1        0.2847
      4 N          -7.7149  -15.6879   25.2129 N.2     1  UNL1       -0.2204
      5 C          -9.0779  -15.8656   24.6124 C.3     1  UNL1        0.1712
      6 C          -8.9107  -16.4947   23.2609 C.3     1  UNL1        0.1729
      7 C          -8.5888  -17.1221   21.9371 C.3     1  UNL1        0.1147
      8 N          -9.6939  -17.4776   20.9872 N.3     1  UNL1       -0.2697
      9 C         -11.1209  -17.2058   21.3611 C.3     1  UNL1        0.0723
     10 C         -11.4427  -16.5784   22.6850 C.3     1  UNL1        0.0209
     11 C         -10.3376  -16.2228   23.6349 C.3     1  UNL1        0.0429
     12 C          -9.4264  -16.6606   22.8177 C.3     1  UNL1        0.0209
     13 C          -9.2547  -16.9952   22.1116 C.3     1  UNL1        0.0723
     14 O          -7.4443  -16.7057   23.0262 O.2     1  UNL1       -0.4536
     15 C          -0.6435  -18.5417   19.8468 C.ar    1  UNL1        0.0000
     16 C          -0.4252  -17.0728   20.0588 C.ar    1  UNL1        0.0000
     17 C          -1.2963  -16.3157   21.0168 C.ar    1  UNL1        0.0001
     18 C          -2.3858  -17.0273   21.7628 C.ar    1  UNL1        0.0043
     19 C          -3.2570  -16.2701   22.7209 C.ar    1  UNL1        0.0345
     20 C          -4.3466  -16.9817   23.4668 C.ar    1  UNL1        0.1354
     21 N          -4.5649  -18.4506   23.2548 N.ar    1  UNL1       -0.2290
     22 C          -3.6938  -19.2077   22.2968 C.ar    1  UNL1        0.1003
     23 C          -2.6043  -18.4961   21.5509 C.ar    1  UNL1        0.0193
     24 C          -1.7330  -19.2532   20.5928 C.ar    1  UNL1        0.0015
@<TRIPOS>BOND
     1    15    16   ar
     2    16    17   ar
     3    17    18   ar
     4    18    19   ar
     5    19    20   ar
     6    20     1    1
     7     1     3    1
     8     3     4    2
     9     4     5    1
    10     6     5    1
    11     6     7    1
    12     7     8    1
    13     8     9    1
    14     9    10    1
    15    10    11    1
    16    11    12    1
    17    12    13    1
    18     6    14    1
    19    20    21   ar
    20    21    22   ar
    21    22    23   ar
    22    23    24   ar
    23    24    15   ar
    24    23    18   ar
    25    14     3    1
    26    11     6    1
    27    13     8    1
    28     1     2    1
