@<TRIPOS>MOLECULE
*****
 35 38 0 0 0
SMALL
GASTEIGER

@<TRIPOS>ATOM
      1 C          -8.5621  -19.9333   21.4321 C.ar    1  UNL1        0.0541
      2 C          -8.2475  -19.6525   19.9926 C.ar    1  UNL1        0.0076
      3 C          -6.8563  -19.8652   19.4737 C.ar    1  UNL1        0.0371
      4 C          -5.7797  -20.3587   20.3943 C.ar    1  UNL1        0.1391
      5 C          -6.0943  -20.6395   21.8337 C.ar    1  UNL1        0.0371
      6 C          -7.4855  -20.4268   22.3526 C.ar    1  UNL1        0.0076
      7 N         -10.2531  -18.5454   22.8337 N.am    1  UNL1       -0.2368
      8 C          -9.9533  -19.7206   21.9510 C.2     1  UNL1        0.2541
      9 O         -11.0448  -20.6831   21.5873 O.2     1  UNL1       -0.2695
     10 C         -11.6443  -18.3327   23.3527 C.3     1  UNL1        0.0819
     11 C         -12.6517  -17.5980   22.5188 C.3     1  UNL1        0.0203
     12 C         -14.0428  -17.3853   23.0378 C.3     1  UNL1        0.0017
     13 C         -14.4266  -17.9074   24.3906 C.3     1  UNL1        0.0001
     14 C         -13.4193  -18.6421   25.2245 C.3     1  UNL1        0.0017
     15 C         -12.0281  -18.8548   24.7055 C.3     1  UNL1        0.0203
     16 C          -7.6686  -16.1636   24.4809 C.ar    1  UNL1        0.0652
     17 C          -7.2953  -16.0399   23.0334 C.ar    1  UNL1        0.1085
     18 N          -8.2180  -16.9171   22.2402 N.ar    1  UNL1       -0.2221
     19 C          -9.1616  -17.5829   23.1974 C.ar    1  UNL1        0.1691
     20 S          -8.8220  -17.1172   24.5823 S.2     1  UNL1       -0.0500
     21 O          -6.0015  -14.3753   25.3596 O.co2   1  UNL1       -0.5440
     22 C          -7.0051  -15.4577   25.6260 C.2     1  UNL1        0.0805
     23 O          -7.3452  -15.8341   27.0376 O.co2   1  UNL1       -0.5440
     24 O          -4.3885  -20.5714   19.8753 O.3     1  UNL1       -0.4706
     25 C          -3.6081  -19.4145   19.3254 C.3     1  UNL1        0.2320
     26 C          -3.0758  -18.3611   20.2513 C.ar    1  UNL1        0.0211
     27 C          -1.9450  -17.4787   19.8123 C.ar    1  UNL1       -0.0007
     28 C          -1.4128  -16.4254   20.7382 C.ar    1  UNL1       -0.0003
     29 C          -2.0113  -16.2544   22.1029 C.ar    1  UNL1        0.0038
     30 C          -3.1421  -17.1368   22.5418 C.ar    1  UNL1        0.0712
     31 C          -3.6743  -18.1901   21.6160 C.ar    1  UNL1        0.0032
     32 C          -3.7407  -16.9659   23.9066 C.3     1  UNL1        0.4186
     33 F          -4.3392  -16.7949   25.2713 F       1  UNL1       -0.1659
     34 F          -3.3044  -18.3538   24.2718 F       1  UNL1       -0.1659
     35 F          -4.1770  -15.5780   23.5413 F       1  UNL1       -0.1659
@<TRIPOS>UNITY_ATOM_ATTR
21 1
charge -1
@<TRIPOS>BOND
     1    21    22   ar
     2    22    23   ar
     3    22    16    1
     4    16    17   ar
     5    17    18   ar
     6    18    19   ar
     7    19     7    1
     8     7     8   am
     9     8     9    2
    10     8     1    1
    11     1     2   ar
    12     2     3   ar
    13     3     4   ar
    14     4    24    1
    15    24    25    1
    16    25    26    1
    17    26    27   ar
    18    27    28   ar
    19    28    29   ar
    20    29    30   ar
    21    30    32    1
    22    32    33    1
    23    32    34    1
    24    32    35    1
    25    30    31   ar
    26     4     5   ar
    27     5     6   ar
    28     7    10    1
    29    10    11    1
    30    11    12    1
    31    12    13    1
    32    13    14    1
    33    14    15    1
    34    19    20   ar
    35    20    16   ar
    36     6     1   ar
    37    15    10    1
    38    31    26   ar
@<TRIPOS>MOLECULE
*****
 35 38 0 0 0
SMALL
GASTEIGER

@<TRIPOS>ATOM
      1 C         -13.6435   -7.9441   17.9949 C.ar    1  UNL1        0.0541
      2 C         -12.9811   -7.9653   16.6493 C.ar    1  UNL1        0.0076
      3 C         -11.6544   -7.2926   16.4558 C.ar    1  UNL1        0.0371
      4 C         -10.9902   -6.5988   17.6080 C.ar    1  UNL1        0.1391
      5 C         -11.6527   -6.5776   18.9535 C.ar    1  UNL1        0.0371
      6 C         -12.9793   -7.2503   19.1470 C.ar    1  UNL1        0.0076
      7 N         -16.2392   -7.8347   18.0212 N.am    1  UNL1       -0.2368
      8 C         -14.9702   -8.6169   18.1884 C.2     1  UNL1        0.2541
      9 O         -15.0279  -10.0717   18.5490 O.2     1  UNL1       -0.2695
     10 C         -17.5659   -8.5074   18.2147 C.3     1  UNL1        0.0819
     11 C         -18.2476   -9.1692   17.0540 C.3     1  UNL1        0.0203
     12 C         -19.5742   -9.8419   17.2476 C.3     1  UNL1        0.0017
     13 C         -20.2192   -9.8527   18.6018 C.3     1  UNL1        0.0001
     14 C         -19.5375   -9.1910   19.7625 C.3     1  UNL1        0.0017
     15 C         -18.2108   -8.5183   19.5690 C.3     1  UNL1        0.0203
     16 C         -16.2677   -3.9590   17.8118 C.ar    1  UNL1        0.0652
     17 C         -15.9178   -4.3230   16.3993 C.ar    1  UNL1        0.1085
     18 N         -15.8645   -5.8192   16.3059 N.ar    1  UNL1       -0.2221
     19 C         -16.1815   -6.3799   17.6606 C.ar    1  UNL1        0.1691
     20 S         -16.4307   -5.2302   18.5912 S.2     1  UNL1       -0.0500
     21 O         -16.9720   -2.3563   19.7314 O.co2   1  UNL1       -0.5440
     22 C         -16.4268   -2.5681   18.3503 C.2     1  UNL1        0.0805
     23 O         -16.0405   -1.3889   17.5075 O.co2   1  UNL1       -0.5440
     24 O          -9.6635   -5.9261   17.4144 O.3     1  UNL1       -0.4706
     25 C          -9.5743   -4.6594   16.6160 C.3     1  UNL1        0.2320
     26 C         -10.2944   -3.4280   17.0799 C.ar    1  UNL1        0.0211
     27 C          -9.9927   -2.1006   16.4500 C.ar    1  UNL1       -0.0007
     28 C         -10.7128   -0.8693   16.9139 C.ar    1  UNL1       -0.0003
     29 C         -11.7346   -0.9654   18.0078 C.ar    1  UNL1        0.0038
     30 C         -12.0363   -2.2928   18.6378 C.ar    1  UNL1        0.0712
     31 C         -11.3162   -3.5241   18.1738 C.ar    1  UNL1        0.0032
     32 C         -13.0581   -2.3889   19.7317 C.3     1  UNL1        0.4186
     33 F         -14.0799   -2.4850   20.8256 F       1  UNL1       -0.1659
     34 F         -12.5288   -3.7412   20.1074 F       1  UNL1       -0.1659
     35 F         -13.5875   -1.0366   19.3560 F       1  UNL1       -0.1659
@<TRIPOS>UNITY_ATOM_ATTR
21 1
charge -1
@<TRIPOS>BOND
     1    21    22   ar
     2    22    23   ar
     3    22    16    1
     4    16    17   ar
     5    17    18   ar
     6    18    19   ar
     7    19     7    1
     8     7     8   am
     9     8     9    2
    10     8     1    1
    11     1     2   ar
    12     2     3   ar
    13     3     4   ar
    14     4    24    1
    15    24    25    1
    16    25    26    1
    17    26    27   ar
    18    27    28   ar
    19    28    29   ar
    20    29    30   ar
    21    30    32    1
    22    32    33    1
    23    32    34    1
    24    32    35    1
    25    30    31   ar
    26     4     5   ar
    27     5     6   ar
    28     7    10    1
    29    10    11    1
    30    11    12    1
    31    12    13    1
    32    13    14    1
    33    14    15    1
    34    19    20   ar
    35    20    16   ar
    36     6     1   ar
    37    15    10    1
    38    31    26   ar
@<TRIPOS>MOLECULE
*****
 35 38 0 0 0
SMALL
GASTEIGER

@<TRIPOS>ATOM
      1 C           3.0016    1.5285   21.7884 C.ar    1  UNL1        0.0541
      2 C           2.3197    0.3193   22.3564 C.ar    1  UNL1        0.0076
      3 C           3.0766   -0.6181   23.2499 C.ar    1  UNL1        0.0371
      4 C           4.5154   -0.3463   23.5754 C.ar    1  UNL1        0.1391
      5 C           5.1973    0.8630   23.0074 C.ar    1  UNL1        0.0371
      6 C           4.4404    1.8003   22.1139 C.ar    1  UNL1        0.0076
      7 N           2.3137    2.3021   19.4054 N.am    1  UNL1       -0.2368
      8 C           2.2447    2.4659   20.8948 C.2     1  UNL1        0.2541
      9 O           1.4189    3.5673   21.4907 O.2     1  UNL1       -0.2695
     10 C           1.5568    3.2395   18.5119 C.3     1  UNL1        0.0819
     11 C           0.1332    2.9411   18.1456 C.3     1  UNL1        0.0203
     12 C          -0.6237    3.8785   17.2521 C.3     1  UNL1        0.0017
     13 C           0.0432    5.1144   16.7248 C.3     1  UNL1        0.0001
     14 C           1.4668    5.4128   17.0911 C.3     1  UNL1        0.0017
     15 C           2.2236    4.4754   17.9846 C.3     1  UNL1        0.0203
     16 C           4.9873   -0.0208   17.8175 C.ar    1  UNL1        0.0652
     17 C           3.8333   -0.9673   17.9674 C.ar    1  UNL1        0.1085
     18 N           2.6913   -0.2123   18.5805 N.ar    1  UNL1       -0.2221
     19 C           3.1395    1.2007   18.8095 C.ar    1  UNL1        0.1691
     20 S           4.5585    1.3191   18.3379 S.2     1  UNL1       -0.0500
     21 O           7.1423    0.7053   16.5612 O.co2   1  UNL1       -0.5440
     22 C           6.3337   -0.3555   17.2473 C.2     1  UNL1        0.0805
     23 O           6.8715   -1.7509   17.3632 O.co2   1  UNL1       -0.5440
     24 O           5.2723   -1.2837   24.4690 O.3     1  UNL1       -0.4706
     25 C           5.3482   -2.7434   24.1323 C.3     1  UNL1        0.2320
     26 C           5.6404   -3.1745   22.7255 C.ar    1  UNL1        0.0211
     27 C           7.0566   -3.2180   22.2333 C.ar    1  UNL1       -0.0007
     28 C           7.3487   -3.6490   20.8266 C.ar    1  UNL1       -0.0003
     29 C           6.2246   -4.0365   19.9121 C.ar    1  UNL1        0.0038
     30 C           4.8084   -3.9930   20.4044 C.ar    1  UNL1        0.0712
     31 C           4.5162   -3.5620   21.8110 C.ar    1  UNL1        0.0032
     32 C           3.6842   -4.3805   19.4899 C.3     1  UNL1        0.4186
     33 F           2.5601   -4.7680   18.5754 F       1  UNL1       -0.1659
     34 F           2.9073   -3.1771   19.9351 F       1  UNL1       -0.1659
     35 F           4.4612   -5.5838   19.0447 F       1  UNL1       -0.1659
@<TRIPOS>UNITY_ATOM_ATTR
21 1
charge -1
@<TRIPOS>BOND
     1    21    22   ar
     2    22    23   ar
     3    22    16    1
     4    16    17   ar
     5    17    18   ar
     6    18    19   ar
     7    19     7    1
     8     7     8   am
     9     8     9    2
    10     8     1    1
    11     1     2   ar
    12     2     3   ar
    13     3     4   ar
    14     4    24    1
    15    24    25    1
    16    25    26    1
    17    26    27   ar
    18    27    28   ar
    19    28    29   ar
    20    29    30   ar
    21    30    32    1
    22    32    33    1
    23    32    34    1
    24    32    35    1
    25    30    31   ar
    26     4     5   ar
    27     5     6   ar
    28     7    10    1
    29    10    11    1
    30    11    12    1
    31    12    13    1
    32    13    14    1
    33    14    15    1
    34    19    20   ar
    35    20    16   ar
    36     6     1   ar
    37    15    10    1
    38    31    26   ar
@<TRIPOS>MOLECULE
*****
 35 38 0 0 0
SMALL
GASTEIGER

@<TRIPOS>ATOM
      1 C           5.0724   -0.6822   27.8630 C.ar    1  UNL1        0.0541
      2 C           5.7884    0.4176   27.1367 C.ar    1  UNL1        0.0076
      3 C           5.5847    0.5990   25.6617 C.ar    1  UNL1        0.0371
      4 C           4.6649   -0.3194   24.9131 C.ar    1  UNL1        0.1391
      5 C           3.9489   -1.4193   25.6394 C.ar    1  UNL1        0.0371
      6 C           4.1526   -1.6007   27.1144 C.ar    1  UNL1        0.0076
      7 N           4.2653   -0.3250   30.3066 N.am    1  UNL1       -0.2368
      8 C           5.2761   -0.8637   29.3380 C.2     1  UNL1        0.2541
      9 O           6.4906   -1.5838   29.8444 O.2     1  UNL1       -0.2695
     10 C           4.4691   -0.5065   31.7816 C.3     1  UNL1        0.0819
     11 C           4.1844   -1.8334   32.4205 C.3     1  UNL1        0.0203
     12 C           4.3881   -2.0148   33.8954 C.3     1  UNL1        0.0017
     13 C           4.8765   -0.8692   34.7316 C.3     1  UNL1        0.0001
     14 C           5.1612    0.4577   34.0928 C.3     1  UNL1        0.0017
     15 C           4.9575    0.6391   32.6178 C.3     1  UNL1        0.0203
     16 C           0.7740    0.8807   29.1140 C.ar    1  UNL1        0.0652
     17 C           1.5897    2.1257   28.9280 C.ar    1  UNL1        0.1085
     18 N           2.9969    1.8256   29.3522 N.ar    1  UNL1       -0.2221
     19 C           3.0508    0.3951   29.8002 C.ar    1  UNL1        0.1691
     20 S           1.6770   -0.1889   29.6530 S.2     1  UNL1       -0.0500
     21 O          -1.4983   -0.3082   29.5292 O.co2   1  UNL1       -0.5440
     22 C          -0.6880    0.7315   28.8136 C.2     1  UNL1        0.0805
     23 O          -1.3396    1.6220   27.7975 O.co2   1  UNL1       -0.5440
     24 O           4.4612   -0.1380   23.4381 O.3     1  UNL1       -0.4706
     25 C           3.3357   -0.8458   22.7437 C.3     1  UNL1        0.2320
     26 C           3.4325   -1.1519   21.2784 C.ar    1  UNL1        0.0211
     27 C           3.1076   -0.0921   20.2678 C.ar    1  UNL1       -0.0007
     28 C           3.2045   -0.3982   18.8026 C.ar    1  UNL1       -0.0003
     29 C           3.6263   -1.7640   18.3480 C.ar    1  UNL1        0.0038
     30 C           3.9511   -2.8237   19.3586 C.ar    1  UNL1        0.0712
     31 C           3.8543   -2.5177   20.8238 C.ar    1  UNL1        0.0032
     32 C           4.3729   -4.1895   18.9039 C.3     1  UNL1        0.4186
     33 F           4.7947   -5.5553   18.4493 F       1  UNL1       -0.1659
     34 F           5.8051   -3.7437   18.8933 F       1  UNL1       -0.1659
     35 F           2.9407   -4.6353   18.9146 F       1  UNL1       -0.1659
@<TRIPOS>UNITY_ATOM_ATTR
21 1
charge -1
@<TRIPOS>BOND
     1    21    22   ar
     2    22    23   ar
     3    22    16    1
     4    16    17   ar
     5    17    18   ar
     6    18    19   ar
     7    19     7    1
     8     7     8   am
     9     8     9    2
    10     8     1    1
    11     1     2   ar
    12     2     3   ar
    13     3     4   ar
    14     4    24    1
    15    24    25    1
    16    25    26    1
    17    26    27   ar
    18    27    28   ar
    19    28    29   ar
    20    29    30   ar
    21    30    32    1
    22    32    33    1
    23    32    34    1
    24    32    35    1
    25    30    31   ar
    26     4     5   ar
    27     5     6   ar
    28     7    10    1
    29    10    11    1
    30    11    12    1
    31    12    13    1
    32    13    14    1
    33    14    15    1
    34    19    20   ar
    35    20    16   ar
    36     6     1   ar
    37    15    10    1
    38    31    26   ar
@<TRIPOS>MOLECULE
*****
 35 38 0 0 0
SMALL
GASTEIGER

@<TRIPOS>ATOM
      1 C          -6.8920  -19.8880   21.1878 C.ar    1  UNL1        0.0541
      2 C          -8.0695  -19.4850   20.3505 C.ar    1  UNL1        0.0076
      3 C          -9.4601  -19.6259   20.8947 C.ar    1  UNL1        0.0371
      4 C          -9.6733  -20.1697   22.2763 C.ar    1  UNL1        0.1391
      5 C          -8.4958  -20.5727   23.1136 C.ar    1  UNL1        0.0371
      6 C          -7.1052  -20.4318   22.5694 C.ar    1  UNL1        0.0076
      7 N          -4.5980  -18.6686   21.1639 N.am    1  UNL1       -0.2368
      8 C          -5.5013  -19.7471   20.6436 C.2     1  UNL1        0.2541
      9 O          -5.0140  -20.6848   19.5790 O.2     1  UNL1       -0.2695
     10 C          -3.2072  -18.5278   20.6197 C.3     1  UNL1        0.0819
     11 C          -2.0347  -19.0022   21.4259 C.3     1  UNL1        0.0203
     12 C          -0.6441  -18.8613   20.8816 C.3     1  UNL1        0.0017
     13 C          -0.4260  -18.2460   19.5312 C.3     1  UNL1        0.0001
     14 C          -1.5985  -17.7716   18.7249 C.3     1  UNL1        0.0017
     15 C          -2.9891  -17.9125   19.2692 C.3     1  UNL1        0.0203
     16 C          -5.2222  -16.4320   24.2741 C.ar    1  UNL1        0.0652
     17 C          -6.4482  -16.1440   23.4593 C.ar    1  UNL1        0.1085
     18 N          -6.3635  -16.9468   22.1950 N.ar    1  UNL1       -0.2221
     19 C          -5.0853  -17.7310   22.2285 C.ar    1  UNL1        0.1691
     20 S          -4.3799  -17.4128   23.5134 S.2     1  UNL1       -0.0500
     21 O          -5.0330  -14.3659   25.8378 O.co2   1  UNL1       -0.5440
     22 C          -4.8958  -15.8427   25.6143 C.2     1  UNL1        0.0805
     23 O          -4.4321  -16.7303   26.7311 O.co2   1  UNL1       -0.5440
     24 O         -11.0640  -20.3106   22.8206 O.3     1  UNL1       -0.4706
     25 C         -11.5713  -19.3376   23.8432 C.3     1  UNL1        0.2320
     26 C         -10.8568  -18.0366   24.0599 C.ar    1  UNL1        0.0211
     27 C         -11.0076  -16.9235   23.0658 C.ar    1  UNL1       -0.0007
     28 C         -10.2931  -15.6225   23.2825 C.ar    1  UNL1       -0.0003
     29 C          -9.4278  -15.4347   24.4933 C.ar    1  UNL1        0.0038
     30 C          -9.2771  -16.5478   25.4874 C.ar    1  UNL1        0.0712
     31 C          -9.9916  -17.8487   25.2707 C.ar    1  UNL1        0.0032
     32 C          -8.4118  -16.3599   26.6982 C.3     1  UNL1        0.4186
     33 F          -7.5466  -16.1721   27.9090 F       1  UNL1       -0.1659
     34 F          -8.0012  -15.0078   26.1950 F       1  UNL1       -0.1659
     35 F          -8.8224  -17.7120   27.2014 F       1  UNL1       -0.1659
@<TRIPOS>UNITY_ATOM_ATTR
21 1
charge -1
@<TRIPOS>BOND
     1    21    22   ar
     2    22    23   ar
     3    22    16    1
     4    16    17   ar
     5    17    18   ar
     6    18    19   ar
     7    19     7    1
     8     7     8   am
     9     8     9    2
    10     8     1    1
    11     1     2   ar
    12     2     3   ar
    13     3     4   ar
    14     4    24    1
    15    24    25    1
    16    25    26    1
    17    26    27   ar
    18    27    28   ar
    19    28    29   ar
    20    29    30   ar
    21    30    32    1
    22    32    33    1
    23    32    34    1
    24    32    35    1
    25    30    31   ar
    26     4     5   ar
    27     5     6   ar
    28     7    10    1
    29    10    11    1
    30    11    12    1
    31    12    13    1
    32    13    14    1
    33    14    15    1
    34    19    20   ar
    35    20    16   ar
    36     6     1   ar
    37    15    10    1
    38    31    26   ar
@<TRIPOS>MOLECULE
*****
 35 38 0 0 0
SMALL
GASTEIGER

@<TRIPOS>ATOM
      1 C           4.6072   -1.5910   19.1050 C.ar    1  UNL1        0.0541
      2 C           6.1008   -1.4552   19.1288 C.ar    1  UNL1        0.0076
      3 C           6.9469   -2.5715   19.6656 C.ar    1  UNL1        0.0371
      4 C           6.2993   -3.8235   20.1786 C.ar    1  UNL1        0.1391
      5 C           4.8057   -3.9592   20.1547 C.ar    1  UNL1        0.0371
      6 C           3.9596   -2.8430   19.6179 C.ar    1  UNL1        0.0076
      7 N           3.2866    0.6141   19.4843 N.am    1  UNL1       -0.2368
      8 C           3.7611   -0.4747   18.5682 C.2     1  UNL1        0.2541
      9 O           3.3895   -0.4473   17.1152 O.2     1  UNL1       -0.2695
     10 C           2.4405    1.7303   18.9475 C.3     1  UNL1        0.0819
     11 C           0.9744    1.5150   18.7149 C.3     1  UNL1        0.0203
     12 C           0.1284    2.6313   18.1781 C.3     1  UNL1        0.0017
     13 C           0.7484    3.9628   17.8739 C.3     1  UNL1        0.0001
     14 C           2.2145    4.1781   18.1065 C.3     1  UNL1        0.0017
     15 C           3.0606    3.0619   18.6433 C.3     1  UNL1        0.0203
     16 C           3.5634    0.2428   23.3380 C.ar    1  UNL1        0.0652
     17 C           4.8966    0.8460   23.0085 C.ar    1  UNL1        0.1085
     18 N           4.9552    1.0585   21.5248 N.ar    1  UNL1       -0.2221
     19 C           3.6582    0.5866   20.9373 C.ar    1  UNL1        0.1691
     20 S           2.7980    0.0825   22.0580 S.2     1  UNL1       -0.0500
     21 O           2.0038    0.6725   25.3709 O.co2   1  UNL1       -0.5440
     22 C           3.0803   -0.1339   24.7072 C.2     1  UNL1        0.0805
     23 O           3.6739   -1.3171   25.4127 O.co2   1  UNL1       -0.5440
     24 O           7.1454   -4.9397   20.7154 O.3     1  UNL1       -0.4706
     25 C           8.1313   -4.6721   21.8136 C.3     1  UNL1        0.2320
     26 C           7.7439   -4.9083   23.2434 C.ar    1  UNL1        0.0211
     27 C           6.9767   -3.8614   23.9953 C.ar    1  UNL1       -0.0007
     28 C           6.5893   -4.0976   25.4250 C.ar    1  UNL1       -0.0003
     29 C           6.9690   -5.3808   26.1028 C.ar    1  UNL1        0.0038
     30 C           7.7362   -6.4277   25.3509 C.ar    1  UNL1        0.0712
     31 C           8.1236   -6.1914   23.9212 C.ar    1  UNL1        0.0032
     32 C           8.1159   -7.7108   26.0286 C.3     1  UNL1        0.4186
     33 F           8.4956   -8.9939   26.7064 F       1  UNL1       -0.1659
     34 F           8.8638   -8.1381   24.8006 F       1  UNL1       -0.1659
     35 F           7.3680   -7.2835   27.2567 F       1  UNL1       -0.1659
@<TRIPOS>UNITY_ATOM_ATTR
21 1
charge -1
@<TRIPOS>BOND
     1    21    22   ar
     2    22    23   ar
     3    22    16    1
     4    16    17   ar
     5    17    18   ar
     6    18    19   ar
     7    19     7    1
     8     7     8   am
     9     8     9    2
    10     8     1    1
    11     1     2   ar
    12     2     3   ar
    13     3     4   ar
    14     4    24    1
    15    24    25    1
    16    25    26    1
    17    26    27   ar
    18    27    28   ar
    19    28    29   ar
    20    29    30   ar
    21    30    32    1
    22    32    33    1
    23    32    34    1
    24    32    35    1
    25    30    31   ar
    26     4     5   ar
    27     5     6   ar
    28     7    10    1
    29    10    11    1
    30    11    12    1
    31    12    13    1
    32    13    14    1
    33    14    15    1
    34    19    20   ar
    35    20    16   ar
    36     6     1   ar
    37    15    10    1
    38    31    26   ar
@<TRIPOS>MOLECULE
*****
 35 38 0 0 0
SMALL
GASTEIGER

@<TRIPOS>ATOM
      1 C         -14.8963   -4.1568   18.5813 C.ar    1  UNL1        0.0541
      2 C         -14.5990   -3.5336   17.2497 C.ar    1  UNL1        0.0076
      3 C         -13.6759   -2.3545   17.1629 C.ar    1  UNL1        0.0371
      4 C         -13.0500   -1.7987   18.4076 C.ar    1  UNL1        0.1391
      5 C         -13.3473   -2.4220   19.7392 C.ar    1  UNL1        0.0371
      6 C         -14.2704   -3.6010   19.8260 C.ar    1  UNL1        0.0076
      7 N         -15.3124   -6.7107   18.3473 N.am    1  UNL1       -0.2368
      8 C         -15.8195   -5.3360   18.6681 C.2     1  UNL1        0.2541
      9 O         -17.2497   -5.1403   19.0759 O.2     1  UNL1       -0.2695
     10 C         -16.2356   -7.8898   18.4342 C.3     1  UNL1        0.0819
     11 C         -17.1845   -8.1838   17.3103 C.3     1  UNL1        0.0203
     12 C         -18.1076   -9.3629   17.3972 C.3     1  UNL1        0.0017
     13 C         -18.0818  -10.2480   18.6080 C.3     1  UNL1        0.0001
     14 C         -17.1329   -9.9540   19.7319 C.3     1  UNL1        0.0017
     15 C         -16.2098   -8.7749   19.6449 C.3     1  UNL1        0.0203
     16 C         -11.4678   -7.1375   18.0277 C.ar    1  UNL1        0.0652
     17 C         -11.8949   -7.2776   16.5966 C.ar    1  UNL1        0.1085
     18 N         -13.3871   -7.1347   16.5422 N.ar    1  UNL1       -0.2221
     19 C         -13.8822   -6.9064   17.9396 C.ar    1  UNL1        0.1691
     20 S         -12.6960   -6.9081   18.8576 S.2     1  UNL1       -0.0500
     21 O          -9.4971   -6.0890   19.3569 O.co2   1  UNL1       -0.5440
     22 C         -10.0597   -7.2134   18.5390 C.2     1  UNL1        0.0805
     23 O          -9.2142   -8.4139   18.2324 O.co2   1  UNL1       -0.5440
     24 O         -12.1269   -0.6196   18.3207 O.3     1  UNL1       -0.4706
     25 C         -12.6142    0.6731   17.7364 C.3     1  UNL1        0.2320
     26 C         -14.0640    1.0439   17.8406 C.ar    1  UNL1        0.0211
     27 C         -14.8268    1.4409   16.6117 C.ar    1  UNL1       -0.0007
     28 C         -16.2765    1.8118   16.7160 C.ar    1  UNL1       -0.0003
     29 C         -16.9633    1.7856   18.0492 C.ar    1  UNL1        0.0038
     30 C         -16.2004    1.3886   19.2782 C.ar    1  UNL1        0.0712
     31 C         -14.7508    1.0178   19.1739 C.ar    1  UNL1        0.0032
     32 C         -16.8873    1.3625   20.6115 C.3     1  UNL1        0.4186
     33 F         -17.5741    1.3363   21.9447 F       1  UNL1       -0.1659
     34 F         -16.3580   -0.0194   20.8570 F       1  UNL1       -0.1659
     35 F         -17.4165    2.7443   20.3659 F       1  UNL1       -0.1659
@<TRIPOS>UNITY_ATOM_ATTR
21 1
charge -1
@<TRIPOS>BOND
     1    21    22   ar
     2    22    23   ar
     3    22    16    1
     4    16    17   ar
     5    17    18   ar
     6    18    19   ar
     7    19     7    1
     8     7     8   am
     9     8     9    2
    10     8     1    1
    11     1     2   ar
    12     2     3   ar
    13     3     4   ar
    14     4    24    1
    15    24    25    1
    16    25    26    1
    17    26    27   ar
    18    27    28   ar
    19    28    29   ar
    20    29    30   ar
    21    30    32    1
    22    32    33    1
    23    32    34    1
    24    32    35    1
    25    30    31   ar
    26     4     5   ar
    27     5     6   ar
    28     7    10    1
    29    10    11    1
    30    11    12    1
    31    12    13    1
    32    13    14    1
    33    14    15    1
    34    19    20   ar
    35    20    16   ar
    36     6     1   ar
    37    15    10    1
    38    31    26   ar
@<TRIPOS>MOLECULE
*****
 35 38 0 0 0
SMALL
GASTEIGER

@<TRIPOS>ATOM
      1 C           7.6295   -3.9490   20.6508 C.ar    1  UNL1        0.0541
      2 C           8.6262   -3.0101   20.0385 C.ar    1  UNL1        0.0076
      3 C           8.2253   -2.1380   18.8859 C.ar    1  UNL1        0.0371
      4 C           6.8276   -2.2047   18.3455 C.ar    1  UNL1        0.1391
      5 C           5.8308   -3.1436   18.9578 C.ar    1  UNL1        0.0371
      6 C           6.2318   -4.0157   20.1104 C.ar    1  UNL1        0.0076
      7 N           7.6782   -4.4203   23.2053 N.am    1  UNL1       -0.2368
      8 C           8.0304   -4.8211   21.8035 C.2     1  UNL1        0.2541
      9 O           8.7835   -6.0942   21.5543 O.2     1  UNL1       -0.2695
     10 C           8.0791   -5.2924   24.3580 C.3     1  UNL1        0.0819
     11 C           7.9372   -6.7822   24.2561 C.3     1  UNL1        0.0203
     12 C           8.3381   -7.6543   25.4088 C.3     1  UNL1        0.0017
     13 C           8.8809   -7.0366   26.6633 C.3     1  UNL1        0.0001
     14 C           9.0228   -5.5469   26.7652 C.3     1  UNL1        0.0017
     15 C           8.6219   -4.6748   25.6126 C.3     1  UNL1        0.0203
     16 C           5.1434   -1.5832   23.9746 C.ar    1  UNL1        0.0652
     17 C           6.3888   -0.7930   23.7016 C.ar    1  UNL1        0.1085
     18 N           7.4899   -1.7596   23.3802 N.ar    1  UNL1       -0.2221
     19 C           6.9250   -3.1472   23.4546 C.ar    1  UNL1        0.1691
     20 S           5.4748   -3.0382   23.8219 S.2     1  UNL1       -0.0500
     21 O           2.8333   -0.6352   23.2575 O.co2   1  UNL1       -0.5440
     22 C           3.8021   -1.0178   24.3367 C.2     1  UNL1        0.0805
     23 O           3.4296   -0.8351   25.7782 O.co2   1  UNL1       -0.5440
     24 O           6.4267   -1.3325   17.1928 O.3     1  UNL1       -0.4706
     25 C           6.3829    0.1575   17.3595 C.3     1  UNL1        0.2320
     26 C           5.1395    0.8182   17.8766 C.ar    1  UNL1        0.0211
     27 C           4.9967    2.3096   17.8035 C.ar    1  UNL1       -0.0007
     28 C           3.7533    2.9702   18.3206 C.ar    1  UNL1       -0.0003
     29 C           2.6526    2.1394   18.9109 C.ar    1  UNL1        0.0038
     30 C           2.7954    0.6480   18.9841 C.ar    1  UNL1        0.0712
     31 C           4.0388   -0.0126   18.4669 C.ar    1  UNL1        0.0032
     32 C           1.6948   -0.1827   19.5744 C.3     1  UNL1        0.4186
     33 F           0.5942   -1.0135   20.1647 F       1  UNL1       -0.1659
     34 F           2.7118   -1.1335   20.1326 F       1  UNL1       -0.1659
     35 F           0.6777    0.7681   19.0162 F       1  UNL1       -0.1659
@<TRIPOS>UNITY_ATOM_ATTR
21 1
charge -1
@<TRIPOS>BOND
     1    21    22   ar
     2    22    23   ar
     3    22    16    1
     4    16    17   ar
     5    17    18   ar
     6    18    19   ar
     7    19     7    1
     8     7     8   am
     9     8     9    2
    10     8     1    1
    11     1     2   ar
    12     2     3   ar
    13     3     4   ar
    14     4    24    1
    15    24    25    1
    16    25    26    1
    17    26    27   ar
    18    27    28   ar
    19    28    29   ar
    20    29    30   ar
    21    30    32    1
    22    32    33    1
    23    32    34    1
    24    32    35    1
    25    30    31   ar
    26     4     5   ar
    27     5     6   ar
    28     7    10    1
    29    10    11    1
    30    11    12    1
    31    12    13    1
    32    13    14    1
    33    14    15    1
    34    19    20   ar
    35    20    16   ar
    36     6     1   ar
    37    15    10    1
    38    31    26   ar
@<TRIPOS>MOLECULE
*****
 35 38 0 0 0
SMALL
GASTEIGER

@<TRIPOS>ATOM
      1 C           0.7743    1.8069   20.9312 C.ar    1  UNL1        0.0541
      2 C           1.6684    2.6330   20.0548 C.ar    1  UNL1        0.0076
      3 C           2.3712    1.9993   18.8910 C.ar    1  UNL1        0.0371
      4 C           2.1799    0.5396   18.6036 C.ar    1  UNL1        0.1391
      5 C           1.2858   -0.2865   19.4800 C.ar    1  UNL1        0.0371
      6 C           0.5830    0.3472   20.6439 C.ar    1  UNL1        0.0076
      7 N           0.6949    2.4027   23.4588 N.am    1  UNL1       -0.2368
      8 C           0.0715    2.4406   22.0951 C.2     1  UNL1        0.2541
      9 O          -1.2548    3.1122   21.8951 O.2     1  UNL1       -0.2695
     10 C          -0.0079    3.0363   24.6227 C.3     1  UNL1        0.0819
     11 C          -0.7954    2.1872   25.5761 C.3     1  UNL1        0.0203
     12 C          -1.4982    2.8209   26.7399 C.3     1  UNL1        0.0017
     13 C          -1.4135    4.3037   26.9503 C.3     1  UNL1        0.0001
     14 C          -0.6261    5.1528   25.9970 C.3     1  UNL1        0.0017
     15 C           0.0767    4.5191   24.8332 C.3     1  UNL1        0.0203
     16 C           3.7122    0.0723   24.1878 C.ar    1  UNL1        0.0652
     17 C           4.4122    1.3229   23.7452 C.ar    1  UNL1        0.1085
     18 N           3.3671    2.3481   23.4182 N.ar    1  UNL1       -0.2221
     19 C           2.0212    1.7311   23.6588 C.ar    1  UNL1        0.1691
     20 S           2.2345    0.3246   24.1344 S.2     1  UNL1       -0.0500
     21 O           4.4202   -2.3728   23.6682 O.co2   1  UNL1       -0.5440
     22 C           4.3737   -1.2061   24.6098 C.2     1  UNL1        0.0805
     23 O           4.9886   -1.3178   25.9733 O.co2   1  UNL1       -0.5440
     24 O           2.8828   -0.0941   17.4397 O.3     1  UNL1       -0.4706
     25 C           4.3656   -0.3149   17.4888 C.3     1  UNL1        0.2320
     26 C           4.9346   -1.3948   18.3606 C.ar    1  UNL1        0.0211
     27 C           6.3488   -1.2958   18.8508 C.ar    1  UNL1       -0.0007
     28 C           6.9177   -2.3756   19.7226 C.ar    1  UNL1       -0.0003
     29 C           6.0725   -3.5546   20.1043 C.ar    1  UNL1        0.0038
     30 C           4.6583   -3.6537   19.6142 C.ar    1  UNL1        0.0712
     31 C           4.0894   -2.5738   18.7423 C.ar    1  UNL1        0.0032
     32 C           3.8131   -4.8326   19.9959 C.3     1  UNL1        0.4186
     33 F           2.9679   -6.0116   20.3776 F       1  UNL1       -0.1659
     34 F           3.4862   -5.0661   18.5507 F       1  UNL1       -0.1659
     35 F           4.1401   -4.5991   21.4411 F       1  UNL1       -0.1659
@<TRIPOS>UNITY_ATOM_ATTR
21 1
charge -1
@<TRIPOS>BOND
     1    21    22   ar
     2    22    23   ar
     3    22    16    1
     4    16    17   ar
     5    17    18   ar
     6    18    19   ar
     7    19     7    1
     8     7     8   am
     9     8     9    2
    10     8     1    1
    11     1     2   ar
    12     2     3   ar
    13     3     4   ar
    14     4    24    1
    15    24    25    1
    16    25    26    1
    17    26    27   ar
    18    27    28   ar
    19    28    29   ar
    20    29    30   ar
    21    30    32    1
    22    32    33    1
    23    32    34    1
    24    32    35    1
    25    30    31   ar
    26     4     5   ar
    27     5     6   ar
    28     7    10    1
    29    10    11    1
    30    11    12    1
    31    12    13    1
    32    13    14    1
    33    14    15    1
    34    19    20   ar
    35    20    16   ar
    36     6     1   ar
    37    15    10    1
    38    31    26   ar
