@<TRIPOS>MOLECULE
*****
 29 33 0 0 0
SMALL
GASTEIGER

@<TRIPOS>ATOM
      1 C         -10.8782   -3.5114   18.5538 C.ar    1  UNL1        0.1305
      2 C          -9.6624   -4.1194   17.9196 C.ar    1  UNL1        0.0358
      3 C          -9.7022   -5.5357   17.4273 C.ar    1  UNL1        0.0251
      4 C         -10.9577   -6.3441   17.5693 C.ar    1  UNL1        0.1176
      5 N         -11.2932   -7.7536   17.1809 N.ar    1  UNL1       -0.2220
      6 C         -12.7163   -8.0168   17.5751 C.ar    1  UNL1        0.1851
      7 N         -13.2604   -6.7699   18.2070 N.ar    1  UNL1       -0.2578
      8 C         -12.1735   -5.7362   18.2034 C.ar    1  UNL1        0.1691
      9 N         -12.1337   -4.3198   18.6957 N.ar    1  UNL1       -0.2119
     10 C         -14.6477   -6.5886   18.7477 C.ar    1  UNL1        0.1447
     11 C         -15.6576   -7.6759   18.9671 C.ar    1  UNL1        0.0533
     12 C         -16.9028   -7.0474   19.5189 C.ar    1  UNL1        0.0810
     13 N         -16.6626   -5.5718   19.6405 N.ar    1  UNL1       -0.1758
     14 N         -15.2689   -5.2882   19.1639 N.ar    1  UNL1       -0.2609
     15 H         -14.8376   -4.4039   19.1301 H       1  UNL1        0.1905
     16 C         -18.1664   -7.7681   19.8848 C.3     1  UNL1        0.0421
     17 C         -18.9975   -9.0168   19.8806 C.3     1  UNL1        0.0064
     18 C         -19.5240   -7.7677   20.5228 C.3     1  UNL1        0.0064
     19 N         -10.8385   -2.0950   19.0460 N.pl3   1  UNL1       -0.3135
     20 H         -10.4301   -1.8881   19.9176 H       1  UNL1        0.1485
     21 C         -10.6300   -0.4154   17.0749 C.3     1  UNL1        0.0295
     22 C         -11.4211   -0.9940   18.2105 C.3     1  UNL1        0.1295
     23 C         -12.7948   -0.4714   18.5104 C.ar    1  UNL1        0.1570
     24 N         -13.0842    0.9948   18.3816 N.ar    1  UNL1       -0.2251
     25 C         -14.4578    1.5173   18.6815 C.ar    1  UNL1        0.1314
     26 C         -15.5421    0.5737   19.1103 C.ar    1  UNL1        0.1783
     27 F         -16.9158    1.0963   19.4102 F       1  UNL1       -0.2009
     28 C         -15.2527   -0.8924   19.2391 C.ar    1  UNL1        0.1314
     29 N         -13.8791   -1.4150   18.9392 N.ar    1  UNL1       -0.2251
@<TRIPOS>BOND
     1    22    21    1
     2    22    19    1
     3    19     1    1
     4     1     2   ar
     5     2     3   ar
     6     3     4   ar
     7     4     5   ar
     8     5     6   ar
     9     6     7   ar
    10     7    10    1
    11    10    11   ar
    12    11    12   ar
    13    12    16    1
    14    16    17    1
    15    17    18    1
    16    12    13   ar
    17    13    14   ar
    18     7     8   ar
    19     8     9   ar
    20    22    23    1
    21    23    24   ar
    22    24    25   ar
    23    25    26   ar
    24    26    27    1
    25    26    28   ar
    26    28    29   ar
    27     9     1   ar
    28    29    23   ar
    29     8     4   ar
    30    14    10   ar
    31    18    16    1
    32    19    20    1
    33    14    15    1
@<TRIPOS>MOLECULE
*****
 29 33 0 0 0
SMALL
GASTEIGER

@<TRIPOS>ATOM
      1 C         -14.0284   -2.9731   19.8632 C.ar    1  UNL1        0.1305
      2 C         -12.6832   -2.4521   19.4524 C.ar    1  UNL1        0.0358
      3 C         -11.6696   -3.3819   18.8541 C.ar    1  UNL1        0.0251
      4 C         -12.0012   -4.8327   18.6666 C.ar    1  UNL1        0.1176
      5 N         -11.2109   -5.9789   18.1082 N.ar    1  UNL1       -0.2220
      6 C         -12.0678   -7.2083   18.1739 C.ar    1  UNL1        0.1851
      7 N         -13.3876   -6.8219   18.7729 N.ar    1  UNL1       -0.2578
      8 C         -13.3464   -5.3537   19.0775 C.ar    1  UNL1        0.1691
      9 N         -14.3600   -4.4239   19.6758 N.ar    1  UNL1       -0.2119
     10 C         -14.5453   -7.7422   19.0235 C.ar    1  UNL1        0.1447
     11 C         -15.9463   -7.3251   19.3600 C.ar    1  UNL1        0.0533
     12 C         -16.7722   -8.5663   19.5260 C.ar    1  UNL1        0.0810
     13 N         -15.8816   -9.7504   19.2921 N.ar    1  UNL1       -0.1758
     14 N         -14.5054   -9.2411   18.9815 N.ar    1  UNL1       -0.2609
     15 H         -13.7147   -9.7936   18.7847 H       1  UNL1        0.1905
     16 C         -18.2323   -8.6147   19.8662 C.3     1  UNL1        0.0421
     17 C         -19.5937   -9.2118   19.6660 C.3     1  UNL1        0.0064
     18 C         -19.3999   -8.1015   20.6557 C.3     1  UNL1        0.0064
     19 N         -15.0422   -2.0433   20.4616 N.pl3   1  UNL1       -0.3135
     20 H         -15.1648   -2.0112   21.4379 H       1  UNL1        0.1485
     21 C         -16.3635   -1.6802   18.2543 C.3     1  UNL1        0.0295
     22 C         -15.8689   -1.1626   19.5724 C.3     1  UNL1        0.1295
     23 C         -16.2012    0.2359   20.0014 C.ar    1  UNL1        0.1570
     24 N         -17.2442    0.4697   21.0538 N.ar    1  UNL1       -0.2251
     25 C         -17.5765    1.8681   21.4828 C.ar    1  UNL1        0.1314
     26 C         -16.8659    3.0327   20.8593 C.ar    1  UNL1        0.1783
     27 F         -17.1982    4.4311   21.2882 F       1  UNL1       -0.2009
     28 C         -15.8229    2.7988   19.8068 C.ar    1  UNL1        0.1314
     29 N         -15.4906    1.4005   19.3779 N.ar    1  UNL1       -0.2251
@<TRIPOS>BOND
     1    22    21    1
     2    22    19    1
     3    19     1    1
     4     1     2   ar
     5     2     3   ar
     6     3     4   ar
     7     4     5   ar
     8     5     6   ar
     9     6     7   ar
    10     7    10    1
    11    10    11   ar
    12    11    12   ar
    13    12    16    1
    14    16    17    1
    15    17    18    1
    16    12    13   ar
    17    13    14   ar
    18     7     8   ar
    19     8     9   ar
    20    22    23    1
    21    23    24   ar
    22    24    25   ar
    23    25    26   ar
    24    26    27    1
    25    26    28   ar
    26    28    29   ar
    27     9     1   ar
    28    29    23   ar
    29     8     4   ar
    30    14    10   ar
    31    18    16    1
    32    19    20    1
    33    14    15    1
@<TRIPOS>MOLECULE
*****
 29 33 0 0 0
SMALL
GASTEIGER

@<TRIPOS>ATOM
      1 C           4.7395   -1.8675   33.0578 C.ar    1  UNL1        0.1305
      2 C           5.1117   -1.2296   34.3634 C.ar    1  UNL1        0.0358
      3 C           4.5250    0.0974   34.7438 C.ar    1  UNL1        0.0251
      4 C           3.5662    0.7865   33.8187 C.ar    1  UNL1        0.1176
      5 N           2.8325    2.0907   33.9231 N.ar    1  UNL1       -0.2220
      6 C           2.0070    2.2588   32.6820 C.ar    1  UNL1        0.1851
      7 N           2.2305    1.0585   31.8106 N.ar    1  UNL1       -0.2578
      8 C           3.1941    0.1486   32.5131 C.ar    1  UNL1        0.1691
      9 N           3.7808   -1.1784   32.1327 N.ar    1  UNL1       -0.2119
     10 C           1.6009    0.8115   30.4718 C.ar    1  UNL1        0.1447
     11 C           0.8478    1.8173   29.6525 C.ar    1  UNL1        0.0533
     12 C           0.3953    1.1426   28.3915 C.ar    1  UNL1        0.0810
     13 N           0.8687   -0.2801   28.4313 N.ar    1  UNL1       -0.1758
     14 N           1.6138   -0.4848   29.7170 N.ar    1  UNL1       -0.2609
     15 H           2.0370   -1.3228   30.0134 H       1  UNL1        0.1905
     16 C          -0.3924    1.7791   27.2849 C.3     1  UNL1        0.0421
     17 C          -1.4404    2.7504   26.8286 C.3     1  UNL1        0.0064
     18 C          -0.7086    1.9101   25.8244 C.3     1  UNL1        0.0064
     19 N           5.3262   -3.1946   32.6773 N.pl3   1  UNL1       -0.3135
     20 H           4.8809   -4.0276   32.9550 H       1  UNL1        0.1485
     21 C           7.8831   -2.7812   32.4732 C.3     1  UNL1        0.0295
     22 C           6.5914   -3.2526   31.8736 C.3     1  UNL1        0.1295
     23 C           6.5650   -3.7820   30.4704 C.ar    1  UNL1        0.1570
     24 N           6.2362   -2.8657   29.3292 N.ar    1  UNL1       -0.2251
     25 C           6.2097   -3.3951   27.9260 C.ar    1  UNL1        0.1314
     26 C           6.5122   -4.8406   27.6639 C.ar    1  UNL1        0.1783
     27 F           6.4858   -5.3700   26.2606 F       1  UNL1       -0.2009
     28 C           6.8411   -5.7569   28.8051 C.ar    1  UNL1        0.1314
     29 N           6.8675   -5.2276   30.2083 N.ar    1  UNL1       -0.2251
@<TRIPOS>BOND
     1    22    21    1
     2    22    19    1
     3    19     1    1
     4     1     2   ar
     5     2     3   ar
     6     3     4   ar
     7     4     5   ar
     8     5     6   ar
     9     6     7   ar
    10     7    10    1
    11    10    11   ar
    12    11    12   ar
    13    12    16    1
    14    16    17    1
    15    17    18    1
    16    12    13   ar
    17    13    14   ar
    18     7     8   ar
    19     8     9   ar
    20    22    23    1
    21    23    24   ar
    22    24    25   ar
    23    25    26   ar
    24    26    27    1
    25    26    28   ar
    26    28    29   ar
    27     9     1   ar
    28    29    23   ar
    29     8     4   ar
    30    14    10   ar
    31    18    16    1
    32    19    20    1
    33    14    15    1
@<TRIPOS>MOLECULE
*****
 29 33 0 0 0
SMALL
GASTEIGER

@<TRIPOS>ATOM
      1 C         -13.8527   -1.8213   18.3136 C.ar    1  UNL1        0.1305
      2 C         -12.5402   -1.0984   18.3822 C.ar    1  UNL1        0.0358
      3 C         -11.2723   -1.8660   18.6125 C.ar    1  UNL1        0.0251
      4 C         -11.3169   -3.3566   18.7743 C.ar    1  UNL1        0.1176
      5 N         -10.2395   -4.3732   19.0108 N.ar    1  UNL1       -0.2220
      6 C         -10.8861   -5.7244   19.0884 C.ar    1  UNL1        0.1851
      7 N         -12.3631   -5.5429   18.8998 N.ar    1  UNL1       -0.2578
      8 C         -12.6293   -4.0796   18.7057 C.ar    1  UNL1        0.1691
      9 N         -13.8972   -3.3119   18.4754 N.ar    1  UNL1       -0.2119
     10 C         -13.3931   -6.6333   18.9046 C.ar    1  UNL1        0.1447
     11 C         -14.8323   -6.4851   19.3007 C.ar    1  UNL1        0.0533
     12 C         -15.4934   -7.8237   19.1550 C.ar    1  UNL1        0.0810
     13 N         -14.4629   -8.7992   18.6688 N.ar    1  UNL1       -0.1758
     14 N         -13.1649   -8.0636   18.5140 N.ar    1  UNL1       -0.2609
     15 H         -12.3128   -8.4514   18.2096 H       1  UNL1        0.1905
     16 C         -16.9324   -8.1324   19.4446 C.3     1  UNL1        0.0421
     17 C         -18.1743   -7.8978   20.2525 C.3     1  UNL1        0.0064
     18 C         -18.1831   -8.9020   19.1383 C.3     1  UNL1        0.0064
     19 N         -15.1207   -1.0537   18.0833 N.pl3   1  UNL1       -0.3135
     20 H         -15.2811   -0.6172   17.2155 H       1  UNL1        0.1485
     21 C         -16.1232    0.2174   20.1153 C.3     1  UNL1        0.0295
     22 C         -16.1442   -0.9511   19.1750 C.3     1  UNL1        0.1295
     23 C         -17.1887   -2.0170   19.3264 C.ar    1  UNL1        0.1570
     24 N         -18.2399   -1.8913   20.3890 N.ar    1  UNL1       -0.2251
     25 C         -19.2844   -2.9572   20.5405 C.ar    1  UNL1        0.1314
     26 C         -19.2777   -4.1487   19.6293 C.ar    1  UNL1        0.1783
     27 F         -20.3222   -5.2146   19.7808 F       1  UNL1       -0.2009
     28 C         -18.2265   -4.2743   18.5667 C.ar    1  UNL1        0.1314
     29 N         -17.1820   -3.2085   18.4153 N.ar    1  UNL1       -0.2251
@<TRIPOS>BOND
     1    22    21    1
     2    22    19    1
     3    19     1    1
     4     1     2   ar
     5     2     3   ar
     6     3     4   ar
     7     4     5   ar
     8     5     6   ar
     9     6     7   ar
    10     7    10    1
    11    10    11   ar
    12    11    12   ar
    13    12    16    1
    14    16    17    1
    15    17    18    1
    16    12    13   ar
    17    13    14   ar
    18     7     8   ar
    19     8     9   ar
    20    22    23    1
    21    23    24   ar
    22    24    25   ar
    23    25    26   ar
    24    26    27    1
    25    26    28   ar
    26    28    29   ar
    27     9     1   ar
    28    29    23   ar
    29     8     4   ar
    30    14    10   ar
    31    18    16    1
    32    19    20    1
    33    14    15    1
@<TRIPOS>MOLECULE
*****
 29 33 0 0 0
SMALL
GASTEIGER

@<TRIPOS>ATOM
      1 C           4.9039   -3.2070   21.2931 C.ar    1  UNL1        0.1305
      2 C           5.9686   -3.6752   20.3459 C.ar    1  UNL1        0.0358
      3 C           6.0025   -3.1552   18.9394 C.ar    1  UNL1        0.0251
      4 C           4.9718   -2.1669   18.4801 C.ar    1  UNL1        0.1176
      5 N           4.7536   -1.4834   17.1627 N.ar    1  UNL1       -0.2220
      6 C           3.5540   -0.5928   17.2959 C.ar    1  UNL1        0.1851
      7 N           3.0309   -0.7258   18.6954 N.ar    1  UNL1       -0.2578
      8 C           3.9071   -1.6987   19.4273 C.ar    1  UNL1        0.1691
      9 N           3.8732   -2.2188   20.8338 N.ar    1  UNL1       -0.2119
     10 C           1.8405   -0.0115   19.2634 C.ar    1  UNL1        0.1447
     11 C           1.4441    1.4067   18.9774 C.ar    1  UNL1        0.0533
     12 C           0.1960    1.7048   19.7544 C.ar    1  UNL1        0.0810
     13 N          -0.1789    0.4709   20.5205 N.ar    1  UNL1       -0.1758
     14 N           0.8374   -0.5898   20.2171 N.ar    1  UNL1       -0.2609
     15 H           0.8447   -1.5049   20.5801 H       1  UNL1        0.1905
     16 C          -0.5466    3.0080   19.7636 C.3     1  UNL1        0.0421
     17 C          -1.3364    4.0582   19.0403 C.3     1  UNL1        0.0064
     18 C          -1.0431    4.2151   20.5029 C.3     1  UNL1        0.0064
     19 N           4.8699   -3.7271   22.6997 N.pl3   1  UNL1       -0.3135
     20 H           4.0674   -4.1887   23.0346 H       1  UNL1        0.1485
     21 C           6.4908   -2.1643   23.9959 C.3     1  UNL1        0.0295
     22 C           6.0586   -3.5439   23.5960 C.3     1  UNL1        0.1295
     23 C           6.8151   -4.7403   24.0925 C.ar    1  UNL1        0.1570
     24 N           6.7657   -5.1088   25.5456 N.ar    1  UNL1       -0.2251
     25 C           7.5222   -6.3051   26.0421 C.ar    1  UNL1        0.1314
     26 C           8.3280   -7.1329   25.0854 C.ar    1  UNL1        0.1783
     27 F           9.0845   -8.3293   25.5818 F       1  UNL1       -0.2009
     28 C           8.3774   -6.7644   23.6322 C.ar    1  UNL1        0.1314
     29 N           7.6209   -5.5681   23.1357 N.ar    1  UNL1       -0.2251
@<TRIPOS>BOND
     1    22    21    1
     2    22    19    1
     3    19     1    1
     4     1     2   ar
     5     2     3   ar
     6     3     4   ar
     7     4     5   ar
     8     5     6   ar
     9     6     7   ar
    10     7    10    1
    11    10    11   ar
    12    11    12   ar
    13    12    16    1
    14    16    17    1
    15    17    18    1
    16    12    13   ar
    17    13    14   ar
    18     7     8   ar
    19     8     9   ar
    20    22    23    1
    21    23    24   ar
    22    24    25   ar
    23    25    26   ar
    24    26    27    1
    25    26    28   ar
    26    28    29   ar
    27     9     1   ar
    28    29    23   ar
    29     8     4   ar
    30    14    10   ar
    31    18    16    1
    32    19    20    1
    33    14    15    1
@<TRIPOS>MOLECULE
*****
 29 33 0 0 0
SMALL
GASTEIGER

@<TRIPOS>ATOM
      1 C           7.7069   -7.0422   26.4490 C.ar    1  UNL1        0.1305
      2 C           8.6600   -7.8460   25.6151 C.ar    1  UNL1        0.0358
      3 C           8.9383   -7.4443   24.1970 C.ar    1  UNL1        0.0251
      4 C           8.2636   -6.2387   23.6128 C.ar    1  UNL1        0.1176
      5 N           8.3406   -5.6045   22.2555 N.ar    1  UNL1       -0.2220
      6 C           7.4350   -4.4087   22.2507 C.ar    1  UNL1        0.1851
      7 N           6.7985   -4.3038   23.6049 N.ar    1  UNL1       -0.2578
      8 C           7.3106   -5.4348   24.4467 C.ar    1  UNL1        0.1691
      9 N           7.0322   -5.8366   25.8648 N.ar    1  UNL1       -0.2119
     10 C           5.8213   -3.2526   24.0408 C.ar    1  UNL1        0.1447
     11 C           4.9072   -2.4720   23.1434 C.ar    1  UNL1        0.0533
     12 C           4.1077   -1.5343   23.9987 C.ar    1  UNL1        0.0810
     13 N           4.5276   -1.7352   25.4246 N.ar    1  UNL1       -0.1758
     14 N           5.5866   -2.7971   25.4507 N.ar    1  UNL1       -0.2609
     15 H           6.0469   -3.1358   26.2523 H       1  UNL1        0.1905
     16 C           3.0704   -0.5657   23.5132 C.3     1  UNL1        0.0421
     17 C           2.2487    0.0062   22.3961 C.3     1  UNL1        0.0064
     18 C           2.0952    0.5402   23.7894 C.3     1  UNL1        0.0064
     19 N           7.4285   -7.4439   27.8672 N.pl3   1  UNL1       -0.3135
     20 H           6.7521   -8.1328   28.0599 H       1  UNL1        0.1485
     21 C           9.5327   -7.3131   29.3855 C.3     1  UNL1        0.0295
     22 C           8.1808   -6.7961   28.9916 C.3     1  UNL1        0.1295
     23 C           7.5811   -5.6313   29.7223 C.ar    1  UNL1        0.1570
     24 N           7.3556   -5.7105   31.2031 N.ar    1  UNL1       -0.2251
     25 C           6.7560   -4.5458   31.9337 C.ar    1  UNL1        0.1314
     26 C           6.3819   -3.3019   31.1835 C.ar    1  UNL1        0.1783
     27 F           5.7823   -2.1371   31.9142 F       1  UNL1       -0.2009
     28 C           6.6075   -3.2228   29.7027 C.ar    1  UNL1        0.1314
     29 N           7.2071   -4.3875   28.9721 N.ar    1  UNL1       -0.2251
@<TRIPOS>BOND
     1    22    21    1
     2    22    19    1
     3    19     1    1
     4     1     2   ar
     5     2     3   ar
     6     3     4   ar
     7     4     5   ar
     8     5     6   ar
     9     6     7   ar
    10     7    10    1
    11    10    11   ar
    12    11    12   ar
    13    12    16    1
    14    16    17    1
    15    17    18    1
    16    12    13   ar
    17    13    14   ar
    18     7     8   ar
    19     8     9   ar
    20    22    23    1
    21    23    24   ar
    22    24    25   ar
    23    25    26   ar
    24    26    27    1
    25    26    28   ar
    26    28    29   ar
    27     9     1   ar
    28    29    23   ar
    29     8     4   ar
    30    14    10   ar
    31    18    16    1
    32    19    20    1
    33    14    15    1
@<TRIPOS>MOLECULE
*****
 29 33 0 0 0
SMALL
GASTEIGER

@<TRIPOS>ATOM
      1 C         -13.2866   -7.4810   17.8173 C.ar    1  UNL1        0.1305
      2 C         -14.0482   -8.7604   17.9988 C.ar    1  UNL1        0.0358
      3 C         -15.4336   -8.7335   18.5734 C.ar    1  UNL1        0.0251
      4 C         -16.0573   -7.4271   18.9664 C.ar    1  UNL1        0.1176
      5 N         -17.3958   -7.0905   19.5538 N.ar    1  UNL1       -0.2220
      6 C         -17.4615   -5.6030   19.7354 C.ar    1  UNL1        0.1851
      7 N         -16.1635   -5.0203   19.2602 N.ar    1  UNL1       -0.2578
      8 C         -15.2957   -6.1477   18.7849 C.ar    1  UNL1        0.1691
      9 N         -13.9104   -6.1746   18.2104 N.ar    1  UNL1       -0.2119
     10 C         -15.7976   -3.5657   19.2602 C.ar    1  UNL1        0.1447
     11 C         -14.7516   -2.9196   18.4007 C.ar    1  UNL1        0.0533
     12 C         -14.7210   -1.4562   18.7290 C.ar    1  UNL1        0.0810
     13 N         -15.7479   -1.1979   19.7914 N.ar    1  UNL1       -0.1758
     14 N         -16.4133   -2.5015   20.1197 N.ar    1  UNL1       -0.2609
     15 H         -17.1285   -2.6353   20.7828 H       1  UNL1        0.1905
     16 C         -13.8213   -0.4313   18.1046 C.3     1  UNL1        0.0421
     17 C         -13.3711    0.3407   16.8998 C.3     1  UNL1        0.0064
     18 C         -12.7131    0.5722   18.2278 C.3     1  UNL1        0.0064
     19 N         -11.9013   -7.5078   17.2428 N.pl3   1  UNL1       -0.3135
     20 H         -11.7162   -8.0289   16.4282 H       1  UNL1        0.1485
     21 C          -9.8716   -7.4352   18.8631 C.3     1  UNL1        0.0295
     22 C         -10.7979   -6.7408   17.9092 C.3     1  UNL1        0.1295
     23 C         -10.6208   -5.2792   17.6219 C.ar    1  UNL1        0.1570
     24 N          -9.9359   -4.8402   16.3616 N.ar    1  UNL1       -0.2251
     25 C          -9.7588   -3.3787   16.0742 C.ar    1  UNL1        0.1314
     26 C         -10.2665   -2.3562   17.0471 C.ar    1  UNL1        0.1783
     27 F         -10.0894   -0.8946   16.7598 F       1  UNL1       -0.2009
     28 C         -10.9514   -2.7952   18.3074 C.ar    1  UNL1        0.1314
     29 N         -11.1285   -4.2566   18.5948 N.ar    1  UNL1       -0.2251
@<TRIPOS>BOND
     1    22    21    1
     2    22    19    1
     3    19     1    1
     4     1     2   ar
     5     2     3   ar
     6     3     4   ar
     7     4     5   ar
     8     5     6   ar
     9     6     7   ar
    10     7    10    1
    11    10    11   ar
    12    11    12   ar
    13    12    16    1
    14    16    17    1
    15    17    18    1
    16    12    13   ar
    17    13    14   ar
    18     7     8   ar
    19     8     9   ar
    20    22    23    1
    21    23    24   ar
    22    24    25   ar
    23    25    26   ar
    24    26    27    1
    25    26    28   ar
    26    28    29   ar
    27     9     1   ar
    28    29    23   ar
    29     8     4   ar
    30    14    10   ar
    31    18    16    1
    32    19    20    1
    33    14    15    1
@<TRIPOS>MOLECULE
*****
 29 33 0 0 0
SMALL
GASTEIGER

@<TRIPOS>ATOM
      1 C           7.8184   -2.7490   31.3431 C.ar    1  UNL1        0.1305
      2 C           8.5492   -2.2210   32.5419 C.ar    1  UNL1        0.0358
      3 C           7.9811   -1.0715   33.3203 C.ar    1  UNL1        0.0251
      4 C           6.6823   -0.4500   32.8998 C.ar    1  UNL1        0.1176
      5 N           5.8830    0.6857   33.4669 N.ar    1  UNL1       -0.2220
      6 C           4.6582    0.8595   32.6185 C.ar    1  UNL1        0.1851
      7 N           4.7006   -0.1687   31.5271 N.ar    1  UNL1       -0.2578
      8 C           5.9515   -0.9780   31.7010 C.ar    1  UNL1        0.1691
      9 N           6.5196   -2.1275   30.9227 N.ar    1  UNL1       -0.2119
     10 C           3.6725   -0.3549   30.4509 C.ar    1  UNL1        0.1447
     11 C           2.2285    0.0427   30.5326 C.ar    1  UNL1        0.0533
     12 C           1.5715   -0.3281   29.2360 C.ar    1  UNL1        0.0810
     13 N           2.6095   -0.9550   28.3530 N.ar    1  UNL1       -0.1758
     14 N           3.9079   -0.9715   29.1038 N.ar    1  UNL1       -0.2609
     15 H           4.7644   -1.3250   28.7709 H       1  UNL1        0.1905
     16 C           0.1297   -0.1103   28.8844 C.3     1  UNL1        0.0421
     17 C          -0.9848    0.8096   28.4823 C.3     1  UNL1        0.0064
     18 C          -1.2533   -0.6532   28.6773 C.3     1  UNL1        0.0064
     19 N           8.3865   -3.8986   30.5647 N.pl3   1  UNL1       -0.3135
     20 H           9.2700   -3.8156   30.1383 H       1  UNL1        0.1485
     21 C           6.8714   -5.7263   31.6202 C.3     1  UNL1        0.0295
     22 C           7.6085   -5.1745   30.4360 C.3     1  UNL1        0.1295
     23 C           7.5675   -5.8988   29.1230 C.ar    1  UNL1        0.1570
     24 N           8.4266   -7.1093   28.9071 N.ar    1  UNL1       -0.2251
     25 C           8.3857   -7.8336   27.5942 C.ar    1  UNL1        0.1314
     26 C           7.4856   -7.3473   26.4972 C.ar    1  UNL1        0.1783
     27 F           7.4447   -8.0716   25.1843 F       1  UNL1       -0.2009
     28 C           6.6265   -6.1368   26.7131 C.ar    1  UNL1        0.1314
     29 N           6.6675   -5.4125   28.0260 N.ar    1  UNL1       -0.2251
@<TRIPOS>BOND
     1    22    21    1
     2    22    19    1
     3    19     1    1
     4     1     2   ar
     5     2     3   ar
     6     3     4   ar
     7     4     5   ar
     8     5     6   ar
     9     6     7   ar
    10     7    10    1
    11    10    11   ar
    12    11    12   ar
    13    12    16    1
    14    16    17    1
    15    17    18    1
    16    12    13   ar
    17    13    14   ar
    18     7     8   ar
    19     8     9   ar
    20    22    23    1
    21    23    24   ar
    22    24    25   ar
    23    25    26   ar
    24    26    27    1
    25    26    28   ar
    26    28    29   ar
    27     9     1   ar
    28    29    23   ar
    29     8     4   ar
    30    14    10   ar
    31    18    16    1
    32    19    20    1
    33    14    15    1
@<TRIPOS>MOLECULE
*****
 29 33 0 0 0
SMALL
GASTEIGER

@<TRIPOS>ATOM
      1 C           0.7109    0.7095   19.9379 C.ar    1  UNL1        0.1305
      2 C           1.4974    1.3052   18.8082 C.ar    1  UNL1        0.0358
      3 C           1.1107    2.6419   18.2481 C.ar    1  UNL1        0.0251
      4 C          -0.0626    3.3828   18.8177 C.ar    1  UNL1        0.1176
      5 N          -0.6760    4.7078   18.4738 N.ar    1  UNL1       -0.2220
      6 C          -1.8418    4.9308   19.3910 C.ar    1  UNL1        0.1851
      7 N          -1.9487    3.7438   20.3018 N.ar    1  UNL1       -0.2578
      8 C          -0.8491    2.7871   19.9475 C.ar    1  UNL1        0.1691
      9 N          -0.4624    1.4504   20.5076 N.ar    1  UNL1       -0.2119
     10 C          -2.9751    3.5478   21.3780 C.ar    1  UNL1        0.1447
     11 C          -2.9288    4.1343   22.7578 C.ar    1  UNL1        0.0533
     12 C          -4.1532    3.6799   23.4959 C.ar    1  UNL1        0.0810
     13 N          -4.9561    2.8126   22.5722 N.ar    1  UNL1       -0.1758
     14 N          -4.2280    2.7310   21.2633 N.ar    1  UNL1       -0.2609
     15 H          -4.5210    2.2294   20.4685 H       1  UNL1        0.1905
     16 C          -4.5115    4.0311   24.9094 C.3     1  UNL1        0.0421
     17 C          -4.2423    3.9292   26.3815 C.3     1  UNL1        0.0064
     18 C          -5.4016    4.7415   25.8857 C.3     1  UNL1        0.0064
     19 N           1.0975   -0.6272   20.4981 N.pl3   1  UNL1       -0.3135
     20 H           0.4526   -1.3710   20.4867 H       1  UNL1        0.1485
     21 C           2.7060   -0.5995   22.5382 C.3     1  UNL1        0.0295
     22 C           2.4669   -0.8307   21.0756 C.3     1  UNL1        0.1295
     23 C           3.5971   -1.2656   20.1904 C.ar    1  UNL1        0.1570
     24 N           4.7130   -0.3135   19.8767 N.ar    1  UNL1       -0.2251
     25 C           5.8433   -0.7483   18.9916 C.ar    1  UNL1        0.1314
     26 C           5.8576   -2.1351   18.4202 C.ar    1  UNL1        0.1783
     27 F           6.9879   -2.5699   17.5350 F       1  UNL1       -0.2009
     28 C           4.7418   -3.0871   18.7339 C.ar    1  UNL1        0.1314
     29 N           3.6115   -2.6524   19.6190 N.ar    1  UNL1       -0.2251
@<TRIPOS>BOND
     1    22    21    1
     2    22    19    1
     3    19     1    1
     4     1     2   ar
     5     2     3   ar
     6     3     4   ar
     7     4     5   ar
     8     5     6   ar
     9     6     7   ar
    10     7    10    1
    11    10    11   ar
    12    11    12   ar
    13    12    16    1
    14    16    17    1
    15    17    18    1
    16    12    13   ar
    17    13    14   ar
    18     7     8   ar
    19     8     9   ar
    20    22    23    1
    21    23    24   ar
    22    24    25   ar
    23    25    26   ar
    24    26    27    1
    25    26    28   ar
    26    28    29   ar
    27     9     1   ar
    28    29    23   ar
    29     8     4   ar
    30    14    10   ar
    31    18    16    1
    32    19    20    1
    33    14    15    1
