@<TRIPOS>MOLECULE
*****
 32 34 0 0 0
SMALL
GASTEIGER

@<TRIPOS>ATOM
      1 N          -8.1521  -17.3097   22.6494 N.pl3   1  UNL1       -0.3035
      2 C          -4.1846  -19.9020   20.3215 C.2     1  UNL1        0.2247
      3 O          -3.9879  -21.1615   19.5310 O.2     1  UNL1       -0.2749
      4 N          -5.5524  -19.5306   20.8123 N.am    1  UNL1       -0.2778
      5 C          -6.8116  -20.3154   20.5917 C.3     1  UNL1        0.0952
      6 C          -7.9387  -19.5789   21.2530 C.3     1  UNL1        0.0430
      7 C          -7.3761  -18.3390   21.8824 C.3     1  UNL1        0.0946
      8 C          -5.9013  -18.3091   21.6100 C.3     1  UNL1        0.1131
      9 C          -2.8333  -19.6976   21.9439 C.3     1  UNL1        0.0091
     10 C          -3.0134  -19.0140   20.6210 C.3     1  UNL1        0.0691
     11 C          -3.1936  -18.3303   19.2980 C.3     1  UNL1        0.0091
     12 C          -1.8423  -18.1259   20.9205 C.3     1  UNL1        0.0091
     13 C          -9.5752  -17.5799   23.0391 C.ar    1  UNL1        0.0490
     14 C          -9.8804  -18.5649   24.1283 C.ar    1  UNL1        0.0153
     15 C         -11.3035  -18.8352   24.5179 C.ar    1  UNL1        0.0124
     16 C         -12.4213  -18.1204   23.8183 C.ar    1  UNL1        0.0791
     17 C         -12.1161  -17.1353   22.7290 C.ar    1  UNL1        0.0685
     18 CL        -13.2339  -16.4206   22.0293 Cl      1  UNL1       -0.0815
     19 C         -10.6930  -16.8651   22.3394 C.ar    1  UNL1        0.0266
     20 C         -13.8444  -18.3907   24.2079 C.1     1  UNL1        0.1013
     21 N         -15.2675  -18.6609   24.5975 N.1     1  UNL1       -0.1908
     22 C          -7.5050  -16.0101   23.0269 C.3     1  UNL1        0.1177
     23 C          -7.1562  -15.7342   24.4594 C.ar    1  UNL1        0.0015
     24 C          -8.2448  -15.5076   25.4661 C.ar    1  UNL1       -0.0027
     25 C          -7.8960  -15.2316   26.8987 C.ar    1  UNL1       -0.0003
     26 C          -6.4586  -15.1823   27.3245 C.ar    1  UNL1       -0.0001
     27 C          -5.3699  -15.4089   26.3177 C.ar    1  UNL1        0.0036
     28 C          -5.7187  -15.6848   24.8852 C.ar    1  UNL1        0.0691
     29 C          -4.6301  -15.9114   23.8785 C.3     1  UNL1        0.4183
     30 F          -3.5415  -16.1380   22.8717 F       1  UNL1       -0.1659
     31 F          -4.8970  -14.5597   23.2856 F       1  UNL1       -0.1659
     32 F          -4.3632  -17.2632   24.4713 F       1  UNL1       -0.1659
@<TRIPOS>BOND
     1     9    10    1
     2    10    11    1
     3    10    12    1
     4    10     2    1
     5     2     3    2
     6     2     4   am
     7     4     5    1
     8     5     6    1
     9     6     7    1
    10     7     1    1
    11     1    22    1
    12    22    23    1
    13    23    24   ar
    14    24    25   ar
    15    25    26   ar
    16    26    27   ar
    17    27    28   ar
    18    28    29    1
    19    29    30    1
    20    29    31    1
    21    29    32    1
    22     1    13    1
    23    13    14   ar
    24    14    15   ar
    25    15    16   ar
    26    16    20    1
    27    20    21    3
    28    16    17   ar
    29    17    18    1
    30    17    19   ar
    31     7     8    1
    32     8     4    1
    33    28    23   ar
    34    19    13   ar
@<TRIPOS>MOLECULE
*****
 32 34 0 0 0
SMALL
GASTEIGER

@<TRIPOS>ATOM
      1 N          -7.9704  -18.8279   21.6148 N.pl3   1  UNL1       -0.3035
      2 C          -2.7654  -19.0239   20.7493 C.2     1  UNL1        0.2247
      3 O          -1.7607  -19.9994   20.2118 O.2     1  UNL1       -0.2749
      4 N          -4.2151  -19.4023   20.8192 N.am    1  UNL1       -0.2778
      5 C          -4.8059  -20.7129   20.3909 C.3     1  UNL1        0.0952
      6 C          -6.2846  -20.6572   20.6368 C.3     1  UNL1        0.0430
      7 C          -6.6076  -19.3122   21.2171 C.3     1  UNL1        0.0946
      8 C          -5.3286  -18.5367   21.3298 C.3     1  UNL1        0.1131
      9 C          -2.2663  -17.1963   19.7946 C.3     1  UNL1        0.0091
     10 C          -2.3202  -17.6699   21.2169 C.3     1  UNL1        0.0691
     11 C          -2.3740  -18.1435   22.6392 C.3     1  UNL1        0.0091
     12 C          -1.8750  -16.3160   21.6845 C.3     1  UNL1        0.0091
     13 C          -8.1407  -18.0040   22.8567 C.ar    1  UNL1        0.0490
     14 C          -8.7732  -18.6070   24.0758 C.ar    1  UNL1        0.0153
     15 C          -8.9435  -17.7832   25.3177 C.ar    1  UNL1        0.0124
     16 C          -8.4813  -16.3564   25.3405 C.ar    1  UNL1        0.0791
     17 C          -7.8487  -15.7533   24.1213 C.ar    1  UNL1        0.0685
     18 CL         -7.3865  -14.3265   24.1440 Cl      1  UNL1       -0.0815
     19 C          -7.6785  -16.5772   22.8794 C.ar    1  UNL1        0.0266
     20 C          -8.6515  -15.5325   26.5824 C.1     1  UNL1        0.1013
     21 N          -8.8218  -14.7087   27.8243 N.1     1  UNL1       -0.1908
     22 C          -9.1629  -19.1673   20.7706 C.3     1  UNL1        0.1177
     23 C         -10.3583  -18.2613   20.7622 C.ar    1  UNL1        0.0015
     24 C         -10.4154  -17.1037   19.8099 C.ar    1  UNL1       -0.0027
     25 C         -11.6108  -16.1977   19.8015 C.ar    1  UNL1       -0.0003
     26 C         -12.7491  -16.4491   20.7454 C.ar    1  UNL1       -0.0001
     27 C         -12.6921  -17.6067   21.6977 C.ar    1  UNL1        0.0036
     28 C         -11.4967  -18.5128   21.7061 C.ar    1  UNL1        0.0691
     29 C         -11.4397  -19.6703   22.6583 C.3     1  UNL1        0.4183
     30 F         -11.3826  -20.8278   23.6106 F       1  UNL1       -0.1659
     31 F         -11.1767  -20.6007   21.5116 F       1  UNL1       -0.1659
     32 F         -11.7027  -18.7399   23.8051 F       1  UNL1       -0.1659
@<TRIPOS>BOND
     1     9    10    1
     2    10    11    1
     3    10    12    1
     4    10     2    1
     5     2     3    2
     6     2     4   am
     7     4     5    1
     8     5     6    1
     9     6     7    1
    10     7     1    1
    11     1    22    1
    12    22    23    1
    13    23    24   ar
    14    24    25   ar
    15    25    26   ar
    16    26    27   ar
    17    27    28   ar
    18    28    29    1
    19    29    30    1
    20    29    31    1
    21    29    32    1
    22     1    13    1
    23    13    14   ar
    24    14    15   ar
    25    15    16   ar
    26    16    20    1
    27    20    21    3
    28    16    17   ar
    29    17    18    1
    30    17    19   ar
    31     7     8    1
    32     8     4    1
    33    28    23   ar
    34    19    13   ar
@<TRIPOS>MOLECULE
*****
 32 34 0 0 0
SMALL
GASTEIGER

@<TRIPOS>ATOM
      1 N          -7.9304  -18.6412   21.4773 N.pl3   1  UNL1       -0.3035
      2 C          -2.7157  -18.9974   20.7284 C.2     1  UNL1        0.2247
      3 O          -1.7277  -20.0101   20.2303 O.2     1  UNL1       -0.2749
      4 N          -4.1767  -19.3341   20.7737 N.am    1  UNL1       -0.2778
      5 C          -4.7949  -20.6355   20.3561 C.3     1  UNL1        0.0952
      6 C          -6.2763  -20.5343   20.5689 C.3     1  UNL1        0.0430
      7 C          -6.5736  -19.1704   21.1179 C.3     1  UNL1        0.0946
      8 C          -5.2760  -18.4287   21.2445 C.3     1  UNL1        0.1131
      9 C          -2.3110  -18.1029   22.6089 C.3     1  UNL1        0.0091
     10 C          -2.2427  -17.6479   21.1813 C.3     1  UNL1        0.0691
     11 C          -2.1743  -17.1929   19.7535 C.3     1  UNL1        0.0091
     12 C          -1.7696  -16.2983   21.6340 C.3     1  UNL1        0.0091
     13 C          -8.1108  -17.8227   22.7212 C.ar    1  UNL1        0.0490
     14 C          -7.6341  -16.4010   22.7592 C.ar    1  UNL1        0.0153
     15 C          -7.8145  -15.5824   24.0031 C.ar    1  UNL1        0.0124
     16 C          -8.4716  -16.1855   25.2091 C.ar    1  UNL1        0.0791
     17 C          -8.9484  -17.6073   25.1712 C.ar    1  UNL1        0.0685
     18 CL         -9.6054  -18.2104   26.3772 Cl      1  UNL1       -0.0815
     19 C          -8.7679  -18.4259   23.9272 C.ar    1  UNL1        0.0266
     20 C          -8.6520  -15.3669   26.4530 C.1     1  UNL1        0.1013
     21 N          -8.8325  -14.5484   27.6970 N.1     1  UNL1       -0.1908
     22 C          -9.1067  -18.9306   20.5927 C.3     1  UNL1        0.1177
     23 C         -10.3429  -18.0864   20.6886 C.ar    1  UNL1        0.0015
     24 C         -10.4573  -16.8293   19.8785 C.ar    1  UNL1       -0.0027
     25 C         -11.6935  -15.9851   19.9744 C.ar    1  UNL1       -0.0003
     26 C         -12.8153  -16.3980   20.8805 C.ar    1  UNL1       -0.0001
     27 C         -12.7009  -17.6553   21.6907 C.ar    1  UNL1        0.0036
     28 C         -11.4647  -18.4994   21.5948 C.ar    1  UNL1        0.0691
     29 C         -11.3503  -19.7566   22.4050 C.3     1  UNL1        0.4183
     30 F         -11.2359  -21.0137   23.2151 F       1  UNL1       -0.1659
     31 F         -11.5994  -18.9714   23.6585 F       1  UNL1       -0.1659
     32 F         -11.1012  -20.5418   21.1514 F       1  UNL1       -0.1659
@<TRIPOS>BOND
     1     9    10    1
     2    10    11    1
     3    10    12    1
     4    10     2    1
     5     2     3    2
     6     2     4   am
     7     4     5    1
     8     5     6    1
     9     6     7    1
    10     7     1    1
    11     1    22    1
    12    22    23    1
    13    23    24   ar
    14    24    25   ar
    15    25    26   ar
    16    26    27   ar
    17    27    28   ar
    18    28    29    1
    19    29    30    1
    20    29    31    1
    21    29    32    1
    22     1    13    1
    23    13    14   ar
    24    14    15   ar
    25    15    16   ar
    26    16    20    1
    27    20    21    3
    28    16    17   ar
    29    17    18    1
    30    17    19   ar
    31     7     8    1
    32     8     4    1
    33    28    23   ar
    34    19    13   ar
@<TRIPOS>MOLECULE
*****
 32 34 0 0 0
SMALL
GASTEIGER

@<TRIPOS>ATOM
      1 N          -8.1503  -18.1384   22.0259 N.pl3   1  UNL1       -0.3035
      2 C          -3.0760  -19.0929   20.9210 C.2     1  UNL1        0.2247
      3 O          -2.2378  -20.2363   20.4310 O.2     1  UNL1       -0.2749
      4 N          -4.5545  -19.2700   21.1009 N.am    1  UNL1       -0.2778
      5 C          -5.3313  -20.5250   20.8330 C.3     1  UNL1        0.0952
      6 C          -6.7728  -20.2538   21.1469 C.3     1  UNL1        0.0430
      7 C          -6.8869  -18.8313   21.6088 C.3     1  UNL1        0.0946
      8 C          -5.5160  -18.2233   21.5804 C.3     1  UNL1        0.1131
      9 C          -2.4490  -18.1090   22.6928 C.3     1  UNL1        0.0091
     10 C          -2.4355  -17.7724   21.2311 C.3     1  UNL1        0.0691
     11 C          -2.4220  -17.4358   19.7693 C.3     1  UNL1        0.0091
     12 C          -1.7950  -16.4520   21.5411 C.3     1  UNL1        0.0091
     13 C          -8.1808  -17.3313   23.2899 C.ar    1  UNL1        0.0490
     14 C          -7.6558  -15.9262   23.2953 C.ar    1  UNL1        0.0153
     15 C          -7.6863  -15.1190   24.5593 C.ar    1  UNL1        0.0124
     16 C          -8.2418  -15.7170   25.8178 C.ar    1  UNL1        0.0791
     17 C          -8.7669  -17.1221   25.8124 C.ar    1  UNL1        0.0685
     18 CL         -9.3224  -17.7201   27.0708 Cl      1  UNL1       -0.0815
     19 C          -8.7364  -17.9293   24.5484 C.ar    1  UNL1        0.0266
     20 C          -8.2724  -14.9098   27.0817 C.1     1  UNL1        0.1013
     21 N          -8.3029  -14.1027   28.3457 N.1     1  UNL1       -0.1908
     22 C          -9.3831  -18.2527   21.1791 C.3     1  UNL1        0.1177
     23 C         -10.7336  -18.0064   21.7834 C.ar    1  UNL1        0.0015
     24 C         -11.2490  -18.9120   22.8624 C.ar    1  UNL1       -0.0027
     25 C         -12.5996  -18.6657   23.4668 C.ar    1  UNL1       -0.0003
     26 C         -13.4348  -17.5137   22.9922 C.ar    1  UNL1       -0.0001
     27 C         -12.9195  -16.6080   21.9132 C.ar    1  UNL1        0.0036
     28 C         -11.5689  -16.8543   21.3088 C.ar    1  UNL1        0.0691
     29 C         -11.0535  -15.9487   20.2299 C.3     1  UNL1        0.4183
     30 F         -10.5382  -15.0430   19.1509 F       1  UNL1       -0.1659
     31 F         -11.9025  -16.6658   19.2224 F       1  UNL1       -0.1659
     32 F         -10.2046  -15.2316   21.2373 F       1  UNL1       -0.1659
@<TRIPOS>BOND
     1     9    10    1
     2    10    11    1
     3    10    12    1
     4    10     2    1
     5     2     3    2
     6     2     4   am
     7     4     5    1
     8     5     6    1
     9     6     7    1
    10     7     1    1
    11     1    22    1
    12    22    23    1
    13    23    24   ar
    14    24    25   ar
    15    25    26   ar
    16    26    27   ar
    17    27    28   ar
    18    28    29    1
    19    29    30    1
    20    29    31    1
    21    29    32    1
    22     1    13    1
    23    13    14   ar
    24    14    15   ar
    25    15    16   ar
    26    16    20    1
    27    20    21    3
    28    16    17   ar
    29    17    18    1
    30    17    19   ar
    31     7     8    1
    32     8     4    1
    33    28    23   ar
    34    19    13   ar
