@<TRIPOS>MOLECULE
*****
 31 33 0 0 0
SMALL
GASTEIGER

@<TRIPOS>ATOM
      1 N         -12.9104   -3.1818   17.0970 N.am    1  UNL1       -0.2503
      2 C         -11.4346   -3.4486   17.0716 C.2     1  UNL1        0.2559
      3 O         -10.4927   -2.4050   16.5484 O.2     1  UNL1       -0.2695
      4 C         -10.9007   -4.7591   17.5693 C.ar    1  UNL1        0.0877
      5 C         -11.3117   -6.0383   16.9025 C.ar    1  UNL1        0.0107
      6 C         -10.7778   -7.3487   17.4001 C.ar    1  UNL1        0.0370
      7 C          -9.8328   -7.3799   18.5647 C.ar    1  UNL1        0.1367
      8 O          -9.2989   -8.6904   19.0623 O.3     1  UNL1       -0.5054
      9 C          -9.4218   -6.1007   19.2315 C.ar    1  UNL1        0.0733
     10 C          -9.9557   -4.7903   18.7338 C.ar    1  UNL1        0.1410
     11 O          -9.5447   -3.5110   19.4006 O.3     1  UNL1       -0.5053
     12 H          -9.5557   -9.4894   18.6458 H       1  UNL1        0.2922
     13 H          -8.9544   -3.5305   20.1280 H       1  UNL1        0.2922
     14 C         -15.7363   -6.3125   18.6665 C.ar    1  UNL1        0.0537
     15 C         -15.7295   -5.9729   17.2055 C.ar    1  UNL1        0.0058
     16 C         -14.7876   -4.9294   16.6823 C.ar    1  UNL1        0.0151
     17 C         -13.8524   -4.2253   17.6202 C.ar    1  UNL1        0.0545
     18 C         -13.8591   -4.5649   19.0812 C.ar    1  UNL1        0.0151
     19 C         -14.8010   -5.6084   19.6043 C.ar    1  UNL1        0.0058
     20 C         -17.2569   -9.8520   19.6200 C.3     1  UNL1        0.1152
     21 N         -16.3150   -8.8084   19.0969 N.am    1  UNL1       -0.2726
     22 C         -15.0098   -9.2173   18.4809 C.3     1  UNL1        0.1152
     23 C         -16.6782   -7.3561   19.1896 C.2     1  UNL1        0.2491
     24 O         -17.9834   -6.9473   19.8056 O.2     1  UNL1       -0.2699
     25 C         -13.4443   -1.8713   16.5993 C.3     1  UNL1        0.1315
     26 C         -14.0638   -0.9003   17.5602 C.ar    1  UNL1        0.0281
     27 C         -15.2682   -1.1548   18.4173 C.ar    1  UNL1        0.0111
     28 C         -15.5365    0.0839   19.2195 C.ar    1  UNL1        0.0413
     29 BR        -16.6481    0.2699   20.2092 Br      1  UNL1       -0.0485
     30 C         -14.4979    1.1041   18.8581 C.ar    1  UNL1        0.0418
     31 S         -13.5877    0.4959   17.8326 S.2     1  UNL1       -0.0885
@<TRIPOS>BOND
     1    20    21    1
     2    21    22    1
     3    21    23   am
     4    23    24    2
     5    23    14    1
     6    14    15   ar
     7    15    16   ar
     8    16    17   ar
     9    17     1    1
    10     1    25    1
    11    25    26    1
    12    26    27   ar
    13    27    28   ar
    14    28    29    1
    15    28    30   ar
    16    30    31   ar
    17     1     2   am
    18     2     3    2
    19     2     4    1
    20     4     5   ar
    21     5     6   ar
    22     6     7   ar
    23     7     8    1
    24     7     9   ar
    25     9    10   ar
    26    10    11    1
    27    17    18   ar
    28    18    19   ar
    29    19    14   ar
    30    31    26   ar
    31    10     4   ar
    32     8    12    1
    33    11    13    1
@<TRIPOS>MOLECULE
*****
 31 33 0 0 0
SMALL
GASTEIGER

@<TRIPOS>ATOM
      1 N          -8.2162  -18.8968   20.4038 N.am    1  UNL1       -0.2503
      2 C          -9.6333  -19.3787   20.3070 C.2     1  UNL1        0.2559
      3 O         -10.0609  -20.2217   19.1423 O.2     1  UNL1       -0.2695
      4 C         -10.6230  -19.0176   21.3748 C.ar    1  UNL1        0.0877
      5 C         -10.5044  -19.6217   22.7426 C.ar    1  UNL1        0.0107
      6 C         -11.4940  -19.2606   23.8104 C.ar    1  UNL1        0.0370
      7 C         -12.6023  -18.2953   23.5104 C.ar    1  UNL1        0.1367
      8 O         -13.5919  -17.9343   24.5782 O.3     1  UNL1       -0.5054
      9 C         -12.7209  -17.6912   22.1426 C.ar    1  UNL1        0.0733
     10 C         -11.7313  -18.0523   21.0748 C.ar    1  UNL1        0.1410
     11 O         -11.8499  -17.4481   19.7070 O.3     1  UNL1       -0.5053
     12 H         -13.5178  -18.3117   25.4326 H       1  UNL1        0.2922
     13 H         -12.5422  -16.8452   19.5196 H       1  UNL1        0.2922
     14 C          -6.9336  -16.3676   23.8979 C.ar    1  UNL1        0.0537
     15 C          -8.0322  -15.8945   22.9928 C.ar    1  UNL1        0.0058
     16 C          -8.4597  -16.7376   21.8281 C.ar    1  UNL1        0.0151
     17 C          -7.7887  -18.0537   21.5685 C.ar    1  UNL1        0.0545
     18 C          -6.6901  -18.5268   22.4736 C.ar    1  UNL1        0.0151
     19 C          -6.2625  -17.6838   23.6383 C.ar    1  UNL1        0.0058
     20 C          -6.8347  -14.7507   27.5208 C.3     1  UNL1        0.1152
     21 N          -7.2622  -15.5937   26.3561 N.am    1  UNL1       -0.2726
     22 C          -8.4460  -16.5059   26.4851 C.3     1  UNL1        0.1152
     23 C          -6.5060  -15.5246   25.0626 C.2     1  UNL1        0.2491
     24 O          -5.3223  -14.6124   24.9337 O.2     1  UNL1       -0.2699
     25 C          -7.2266  -19.2579   19.3360 C.3     1  UNL1        0.1315
     26 C          -5.7916  -19.5051   19.6960 C.ar    1  UNL1        0.0281
     27 C          -4.6590  -18.5377   19.5192 C.ar    1  UNL1        0.0111
     28 C          -3.4046  -19.1978   20.0099 C.ar    1  UNL1        0.0413
     29 BR         -2.0336  -18.5894   20.0190 Br      1  UNL1       -0.0485
     30 C          -3.7619  -20.5732   20.4900 C.ar    1  UNL1        0.0418
     31 S          -5.2372  -20.7632   20.2960 S.2     1  UNL1       -0.0885
@<TRIPOS>BOND
     1    20    21    1
     2    21    22    1
     3    21    23   am
     4    23    24    2
     5    23    14    1
     6    14    15   ar
     7    15    16   ar
     8    16    17   ar
     9    17     1    1
    10     1    25    1
    11    25    26    1
    12    26    27   ar
    13    27    28   ar
    14    28    29    1
    15    28    30   ar
    16    30    31   ar
    17     1     2   am
    18     2     3    2
    19     2     4    1
    20     4     5   ar
    21     5     6   ar
    22     6     7   ar
    23     7     8    1
    24     7     9   ar
    25     9    10   ar
    26    10    11    1
    27    17    18   ar
    28    18    19   ar
    29    19    14   ar
    30    31    26   ar
    31    10     4   ar
    32     8    12    1
    33    11    13    1
@<TRIPOS>MOLECULE
*****
 31 33 0 0 0
SMALL
GASTEIGER

@<TRIPOS>ATOM
      1 N         -13.2172   -2.9421   17.8109 N.am    1  UNL1       -0.2503
      2 C         -11.7822   -3.2755   17.5290 C.2     1  UNL1        0.2559
      3 O         -10.8327   -2.1976   17.0971 O.2     1  UNL1       -0.2695
      4 C         -11.2966   -4.6869   17.6788 C.ar    1  UNL1        0.0877
      5 C         -11.9096   -5.7821   16.8573 C.ar    1  UNL1        0.0107
      6 C         -11.4241   -7.1934   17.0071 C.ar    1  UNL1        0.0370
      7 C         -10.3256   -7.5095   17.9785 C.ar    1  UNL1        0.1367
      8 O          -9.8401   -8.9208   18.1283 O.3     1  UNL1       -0.5054
      9 C          -9.7127   -6.4143   18.8000 C.ar    1  UNL1        0.0733
     10 C         -10.1982   -5.0030   18.6501 C.ar    1  UNL1        0.1410
     11 O          -9.5853   -3.9078   19.4716 O.3     1  UNL1       -0.5053
     12 H         -10.2230   -9.6049   17.6151 H       1  UNL1        0.2922
     13 H          -8.8991   -4.1052   20.0783 H       1  UNL1        0.2922
     14 C         -16.0658   -6.1759   19.1064 C.ar    1  UNL1        0.0537
     15 C         -15.2336   -5.4567   20.1263 C.ar    1  UNL1        0.0058
     16 C         -14.2841   -4.3788   19.6944 C.ar    1  UNL1        0.0151
     17 C         -14.1667   -4.0200   18.2427 C.ar    1  UNL1        0.0545
     18 C         -14.9990   -4.7392   17.2229 C.ar    1  UNL1        0.0151
     19 C         -15.9485   -5.8171   17.6547 C.ar    1  UNL1        0.0058
     20 C         -19.4146   -8.0122   20.1852 C.3     1  UNL1        0.1152
     21 N         -18.4650   -6.9343   19.7533 N.am    1  UNL1       -0.2726
     22 C         -18.9652   -5.5368   19.5367 C.3     1  UNL1        0.1152
     23 C         -17.0154   -7.2538   19.5382 C.2     1  UNL1        0.2491
     24 O         -16.5152   -8.6512   19.7549 O.2     1  UNL1       -0.2699
     25 C         -13.7027   -1.5308   17.6611 C.3     1  UNL1        0.1315
     26 C         -15.1317   -1.1928   17.9671 C.ar    1  UNL1        0.0281
     27 C         -15.7035   -0.9306   19.3288 C.ar    1  UNL1        0.0111
     28 C         -17.1650   -0.6333   19.1685 C.ar    1  UNL1        0.0413
     29 BR        -18.1263   -0.3137   20.2746 Br      1  UNL1       -0.0485
     30 C         -17.4964   -0.7117   17.7076 C.ar    1  UNL1        0.0418
     31 S         -16.2398   -1.0575   16.9651 S.2     1  UNL1       -0.0885
@<TRIPOS>BOND
     1    20    21    1
     2    21    22    1
     3    21    23   am
     4    23    24    2
     5    23    14    1
     6    14    15   ar
     7    15    16   ar
     8    16    17   ar
     9    17     1    1
    10     1    25    1
    11    25    26    1
    12    26    27   ar
    13    27    28   ar
    14    28    29    1
    15    28    30   ar
    16    30    31   ar
    17     1     2   am
    18     2     3    2
    19     2     4    1
    20     4     5   ar
    21     5     6   ar
    22     6     7   ar
    23     7     8    1
    24     7     9   ar
    25     9    10   ar
    26    10    11    1
    27    17    18   ar
    28    18    19   ar
    29    19    14   ar
    30    31    26   ar
    31    10     4   ar
    32     8    12    1
    33    11    13    1
@<TRIPOS>MOLECULE
*****
 31 33 0 0 0
SMALL
GASTEIGER

@<TRIPOS>ATOM
      1 N         -17.9198   -4.9914   18.2782 N.am    1  UNL1       -0.2503
      2 C         -18.8738   -6.1454   18.3683 C.2     1  UNL1        0.2559
      3 O         -20.3473   -5.9146   18.2083 O.2     1  UNL1       -0.2695
      4 C         -18.3543   -7.5302   18.6183 C.ar    1  UNL1        0.0877
      5 C         -17.6173   -7.8369   19.8882 C.ar    1  UNL1        0.0107
      6 C         -17.0978   -9.2216   20.1382 C.ar    1  UNL1        0.0370
      7 C         -17.3154  -10.2998   19.1183 C.ar    1  UNL1        0.1367
      8 O         -16.7960  -11.6846   19.3683 O.3     1  UNL1       -0.5054
      9 C         -18.0525   -9.9932   17.8484 C.ar    1  UNL1        0.0733
     10 C         -18.5719   -8.6084   17.5984 C.ar    1  UNL1        0.1410
     11 O         -19.3090   -8.3017   16.3284 O.3     1  UNL1       -0.5053
     12 H         -16.3355  -11.8761   20.1616 H       1  UNL1        0.2922
     13 H         -19.4449   -8.9752   15.6913 H       1  UNL1        0.2922
     14 C         -13.4994   -5.6837   18.7581 C.ar    1  UNL1        0.0537
     15 C         -14.1442   -5.8568   17.4149 C.ar    1  UNL1        0.0058
     16 C         -15.6177   -5.6261   17.2549 C.ar    1  UNL1        0.0151
     17 C         -16.4463   -5.2222   18.4382 C.ar    1  UNL1        0.0545
     18 C         -15.8015   -5.0490   19.7814 C.ar    1  UNL1        0.0151
     19 C         -14.3280   -5.2798   19.9413 C.ar    1  UNL1        0.0058
     20 C          -9.6095   -4.9791   19.1079 C.3     1  UNL1        0.1152
     21 N         -11.0830   -4.7483   18.9479 N.am    1  UNL1       -0.2726
     22 C         -11.6136   -3.3512   18.8179 C.3     1  UNL1        0.1152
     23 C         -12.0259   -5.9145   18.9180 C.2     1  UNL1        0.2491
     24 O         -11.4953   -7.3114   19.0480 O.2     1  UNL1       -0.2699
     25 C         -18.4393   -3.6066   18.0282 C.3     1  UNL1        0.1315
     26 C         -17.7192   -2.4210   18.5990 C.ar    1  UNL1        0.0281
     27 C         -16.5130   -1.7536   18.0079 C.ar    1  UNL1        0.0111
     28 C         -16.1272   -0.6147   18.9046 C.ar    1  UNL1        0.0413
     29 BR        -14.9758    0.3230   18.6932 Br      1  UNL1       -0.0485
     30 C         -17.0949   -0.5784   20.0501 C.ar    1  UNL1        0.0418
     31 S         -18.0789   -1.6947   19.8613 S.2     1  UNL1       -0.0885
@<TRIPOS>BOND
     1    20    21    1
     2    21    22    1
     3    21    23   am
     4    23    24    2
     5    23    14    1
     6    14    15   ar
     7    15    16   ar
     8    16    17   ar
     9    17     1    1
    10     1    25    1
    11    25    26    1
    12    26    27   ar
    13    27    28   ar
    14    28    29    1
    15    28    30   ar
    16    30    31   ar
    17     1     2   am
    18     2     3    2
    19     2     4    1
    20     4     5   ar
    21     5     6   ar
    22     6     7   ar
    23     7     8    1
    24     7     9   ar
    25     9    10   ar
    26    10    11    1
    27    17    18   ar
    28    18    19   ar
    29    19    14   ar
    30    31    26   ar
    31    10     4   ar
    32     8    12    1
    33    11    13    1
@<TRIPOS>MOLECULE
*****
 31 33 0 0 0
SMALL
GASTEIGER

@<TRIPOS>ATOM
      1 N         -17.8707   -4.5127   19.3294 N.am    1  UNL1       -0.2503
      2 C         -18.5792   -5.8263   19.1793 C.2     1  UNL1        0.2559
      3 O         -20.0755   -5.8855   19.2660 O.2     1  UNL1       -0.2695
      4 C         -17.7914   -7.0806   18.9426 C.ar    1  UNL1        0.0877
      5 C         -17.3120   -7.8961   20.1067 C.ar    1  UNL1        0.0107
      6 C         -16.5243   -9.1505   19.8700 C.ar    1  UNL1        0.0370
      7 C         -16.2158   -9.5893   18.4691 C.ar    1  UNL1        0.1367
      8 O         -15.4281  -10.8436   18.2324 O.3     1  UNL1       -0.5054
      9 C         -16.6952   -8.7738   17.3050 C.ar    1  UNL1        0.0733
     10 C         -17.4830   -7.5194   17.5418 C.ar    1  UNL1        0.1410
     11 O         -17.9624   -6.7039   16.3777 O.3     1  UNL1       -0.5053
     12 H         -15.1286  -11.3531   18.9596 H       1  UNL1        0.2922
     13 H         -17.7697   -6.9780   15.5026 H       1  UNL1        0.2922
     14 C         -13.3817   -4.3350   19.0694 C.ar    1  UNL1        0.0537
     15 C         -14.0548   -4.3627   20.4095 C.ar    1  UNL1        0.0058
     16 C         -15.5512   -4.4219   20.4962 C.ar    1  UNL1        0.0151
     17 C         -16.3744   -4.4535   19.2427 C.ar    1  UNL1        0.0545
     18 C         -15.7012   -4.4257   17.9026 C.ar    1  UNL1        0.0151
     19 C         -14.2049   -4.3665   17.8159 C.ar    1  UNL1        0.0058
     20 C          -9.5895   -5.4848   18.8523 C.3     1  UNL1        0.1152
     21 N         -11.0859   -5.5441   18.9390 N.am    1  UNL1       -0.2726
     22 C         -11.7826   -6.8718   18.9820 C.3     1  UNL1        0.1152
     23 C         -11.8854   -4.2757   18.9827 C.2     1  UNL1        0.2491
     24 O         -11.1886   -2.9481   18.9397 O.2     1  UNL1       -0.2699
     25 C         -18.6585   -3.2584   19.5661 C.3     1  UNL1        0.1315
     26 C         -18.0956   -1.9303   19.1548 C.ar    1  UNL1        0.0281
     27 C         -17.4412   -0.9309   20.0619 C.ar    1  UNL1        0.0111
     28 C         -17.0294    0.2487   19.2318 C.ar    1  UNL1        0.0413
     29 BR        -16.3390    1.4821   19.7337 Br      1  UNL1       -0.0485
     30 C         -17.4293   -0.0217   17.8116 C.ar    1  UNL1        0.0418
     31 S         -18.0882   -1.3684   17.7639 S.2     1  UNL1       -0.0885
@<TRIPOS>BOND
     1    20    21    1
     2    21    22    1
     3    21    23   am
     4    23    24    2
     5    23    14    1
     6    14    15   ar
     7    15    16   ar
     8    16    17   ar
     9    17     1    1
    10     1    25    1
    11    25    26    1
    12    26    27   ar
    13    27    28   ar
    14    28    29    1
    15    28    30   ar
    16    30    31   ar
    17     1     2   am
    18     2     3    2
    19     2     4    1
    20     4     5   ar
    21     5     6   ar
    22     6     7   ar
    23     7     8    1
    24     7     9   ar
    25     9    10   ar
    26    10    11    1
    27    17    18   ar
    28    18    19   ar
    29    19    14   ar
    30    31    26   ar
    31    10     4   ar
    32     8    12    1
    33    11    13    1
@<TRIPOS>MOLECULE
*****
 31 33 0 0 0
SMALL
GASTEIGER

@<TRIPOS>ATOM
      1 N           7.4432   -1.4240   32.8555 N.am    1  UNL1       -0.2503
      2 C           8.2366   -2.5324   32.2294 C.2     1  UNL1        0.2559
      3 O           9.5359   -2.9635   32.8424 O.2     1  UNL1       -0.2695
      4 C           7.7306   -3.2096   30.9903 C.ar    1  UNL1        0.0877
      5 C           7.9900   -2.6012   29.6440 C.ar    1  UNL1        0.0107
      6 C           7.4840   -3.2785   28.4049 C.ar    1  UNL1        0.0370
      7 C           6.7187   -4.5641   28.5121 C.ar    1  UNL1        0.1367
      8 O           6.2128   -5.2413   27.2730 O.3     1  UNL1       -0.5054
      9 C           6.4594   -5.1725   29.8584 C.ar    1  UNL1        0.0733
     10 C           6.9653   -4.4952   31.0975 C.ar    1  UNL1        0.1410
     11 O           6.7060   -5.1036   32.4439 O.3     1  UNL1       -0.5053
     12 H           6.3748   -4.8613   26.4320 H       1  UNL1        0.2922
     13 H           6.2279   -5.9067   32.5108 H       1  UNL1        0.2922
     14 C           3.5452   -0.1304   31.0165 C.ar    1  UNL1        0.0537
     15 C           4.7989    0.6450   30.7395 C.ar    1  UNL1        0.0058
     16 C           6.0983    0.2138   31.3525 C.ar    1  UNL1        0.0151
     17 C           6.1439   -0.9928   32.2425 C.ar    1  UNL1        0.0545
     18 C           4.8901   -1.7682   32.5194 C.ar    1  UNL1        0.0151
     19 C           3.5907   -1.3370   31.9064 C.ar    1  UNL1        0.0058
     20 C           0.6207    0.3499   28.3770 C.3     1  UNL1        0.1152
     21 N           1.9200   -0.0813   28.9900 N.am    1  UNL1       -0.2726
     22 C           2.8937   -0.8945   28.1895 C.3     1  UNL1        0.1152
     23 C           2.2458    0.3007   30.4035 C.2     1  UNL1        0.2491
     24 O           1.2722    1.1139   31.2039 O.2     1  UNL1       -0.2699
     25 C           7.9492   -0.7468   34.0945 C.3     1  UNL1        0.1315
     26 C           7.0335    0.1282   34.8983 C.ar    1  UNL1        0.0281
     27 C           5.9722   -0.3432   35.8477 C.ar    1  UNL1        0.0111
     28 C           5.3010    0.8654   36.4299 C.ar    1  UNL1        0.0413
     29 BR          4.1802    0.8571   37.4266 Br      1  UNL1       -0.0485
     30 C           5.9475    2.0837   35.8402 C.ar    1  UNL1        0.0418
     31 S           7.0183    1.6281   34.8936 S.2     1  UNL1       -0.0885
@<TRIPOS>BOND
     1    20    21    1
     2    21    22    1
     3    21    23   am
     4    23    24    2
     5    23    14    1
     6    14    15   ar
     7    15    16   ar
     8    16    17   ar
     9    17     1    1
    10     1    25    1
    11    25    26    1
    12    26    27   ar
    13    27    28   ar
    14    28    29    1
    15    28    30   ar
    16    30    31   ar
    17     1     2   am
    18     2     3    2
    19     2     4    1
    20     4     5   ar
    21     5     6   ar
    22     6     7   ar
    23     7     8    1
    24     7     9   ar
    25     9    10   ar
    26    10    11    1
    27    17    18   ar
    28    18    19   ar
    29    19    14   ar
    30    31    26   ar
    31    10     4   ar
    32     8    12    1
    33    11    13    1
@<TRIPOS>MOLECULE
*****
 31 33 0 0 0
SMALL
GASTEIGER

@<TRIPOS>ATOM
      1 N           4.4122   -1.3420   18.8263 N.am    1  UNL1       -0.2503
      2 C           3.7602   -0.5448   17.7357 C.2     1  UNL1        0.2559
      3 O           3.9015   -0.9744   16.3055 O.2     1  UNL1       -0.2695
      4 C           2.9668    0.6822   18.0754 C.ar    1  UNL1        0.0877
      5 C           1.4914    0.5761   18.3242 C.ar    1  UNL1        0.0107
      6 C           0.6980    1.8029   18.6638 C.ar    1  UNL1        0.0370
      7 C           1.3800    3.1359   18.7546 C.ar    1  UNL1        0.1367
      8 O           0.5866    4.3627   19.0942 O.3     1  UNL1       -0.5054
      9 C           2.8554    3.2419   18.5057 C.ar    1  UNL1        0.0733
     10 C           3.6488    2.0150   18.1661 C.ar    1  UNL1        0.1410
     11 O           5.1242    2.1211   17.9172 O.3     1  UNL1       -0.5053
     12 H          -0.3351    4.2965   19.2496 H       1  UNL1        0.2922
     13 H           5.5502    2.9537   17.9739 H       1  UNL1        0.2922
     14 C           3.9882   -0.0530   23.1168 C.ar    1  UNL1        0.0537
     15 C           2.9958   -1.0052   22.5182 C.ar    1  UNL1        0.0058
     16 C           3.1371   -1.4348   21.0880 C.ar    1  UNL1        0.0151
     17 C           4.2709   -0.9123   20.2564 C.ar    1  UNL1        0.0545
     18 C           5.2633    0.0399   20.8551 C.ar    1  UNL1        0.0151
     19 C           5.1220    0.4695   22.2853 C.ar    1  UNL1        0.0058
     20 C           4.3192   -0.0158   27.0714 C.3     1  UNL1        0.1152
     21 N           4.4606   -0.4455   25.6412 N.am    1  UNL1       -0.2726
     22 C           5.2156   -1.6974   25.3053 C.3     1  UNL1        0.1152
     23 C           3.8469    0.3767   24.5470 C.2     1  UNL1        0.2491
     24 O           3.0919    1.6285   24.8829 O.2     1  UNL1       -0.2699
     25 C           5.2055   -2.5688   18.4866 C.3     1  UNL1        0.1315
     26 C           6.4414   -2.9030   19.2683 C.ar    1  UNL1        0.0281
     27 C           6.5379   -3.9072   20.3784 C.ar    1  UNL1        0.0111
     28 C           7.9539   -3.9165   20.8732 C.ar    1  UNL1        0.0413
     29 BR          8.4960   -4.7737   21.9783 Br      1  UNL1       -0.0485
     30 C           8.7325   -2.9181   20.0690 C.ar    1  UNL1        0.0418
     31 S           7.7978   -2.2917   19.0770 S.2     1  UNL1       -0.0885
@<TRIPOS>BOND
     1    20    21    1
     2    21    22    1
     3    21    23   am
     4    23    24    2
     5    23    14    1
     6    14    15   ar
     7    15    16   ar
     8    16    17   ar
     9    17     1    1
    10     1    25    1
    11    25    26    1
    12    26    27   ar
    13    27    28   ar
    14    28    29    1
    15    28    30   ar
    16    30    31   ar
    17     1     2   am
    18     2     3    2
    19     2     4    1
    20     4     5   ar
    21     5     6   ar
    22     6     7   ar
    23     7     8    1
    24     7     9   ar
    25     9    10   ar
    26    10    11    1
    27    17    18   ar
    28    18    19   ar
    29    19    14   ar
    30    31    26   ar
    31    10     4   ar
    32     8    12    1
    33    11    13    1
@<TRIPOS>MOLECULE
*****
 31 33 0 0 0
SMALL
GASTEIGER

@<TRIPOS>ATOM
      1 N         -17.9262   -4.7802   17.9983 N.am    1  UNL1       -0.2503
      2 C         -18.4577   -3.3784   18.0480 C.2     1  UNL1        0.2559
      3 O         -19.9201   -3.1228   17.8338 O.2     1  UNL1       -0.2695
      4 C         -17.5267   -2.2322   18.3119 C.ar    1  UNL1        0.0877
      5 C         -16.6849   -1.6786   17.2006 C.ar    1  UNL1        0.0107
      6 C         -15.7540   -0.5325   17.4644 C.ar    1  UNL1        0.0370
      7 C         -15.6648    0.0601   18.8395 C.ar    1  UNL1        0.1367
      8 O         -14.7338    1.2063   19.1033 O.3     1  UNL1       -0.5054
      9 C         -16.5066   -0.4935   19.9508 C.ar    1  UNL1        0.0733
     10 C         -17.4375   -1.6397   19.6869 C.ar    1  UNL1        0.1410
     11 O         -18.2793   -2.1933   20.7982 O.3     1  UNL1       -0.5053
     12 H         -14.2080    1.5521   18.4092 H       1  UNL1        0.2922
     13 H         -18.2236   -1.8231   21.6572 H       1  UNL1        0.2922
     14 C         -13.5389   -5.5472   18.6410 C.ar    1  UNL1        0.0537
     15 C         -14.0916   -5.4752   17.2484 C.ar    1  UNL1        0.0058
     16 C         -15.5540   -5.2195   17.0342 C.ar    1  UNL1        0.0151
     17 C         -16.4638   -5.0359   18.2126 C.ar    1  UNL1        0.0545
     18 C         -15.9111   -5.1078   19.6051 C.ar    1  UNL1        0.0151
     19 C         -14.4486   -5.3635   19.8193 C.ar    1  UNL1        0.0058
     20 C          -9.6575   -4.9071   19.1656 C.3     1  UNL1        0.1152
     21 N         -11.1200   -4.6514   18.9514 N.am    1  UNL1       -0.2726
     22 C         -11.6259   -3.2442   18.8334 C.3     1  UNL1        0.1152
     23 C         -12.0764   -5.8028   18.8552 C.2     1  UNL1        0.2491
     24 O         -11.5705   -7.2100   18.9732 O.2     1  UNL1       -0.2699
     25 C         -18.8572   -5.9263   17.7345 C.3     1  UNL1        0.1315
     26 C         -18.5987   -7.2629   18.3644 C.ar    1  UNL1        0.0281
     27 C         -17.7989   -8.3808   17.7637 C.ar    1  UNL1        0.0111
     28 C         -17.8005   -9.5250   18.7336 C.ar    1  UNL1        0.0413
     29 BR        -17.1208  -10.8477   18.5378 Br      1  UNL1       -0.0485
     30 C         -18.6012   -9.1144   19.9337 C.ar    1  UNL1        0.0418
     31 S         -19.0946   -7.7163   19.7055 S.2     1  UNL1       -0.0885
@<TRIPOS>BOND
     1    20    21    1
     2    21    22    1
     3    21    23   am
     4    23    24    2
     5    23    14    1
     6    14    15   ar
     7    15    16   ar
     8    16    17   ar
     9    17     1    1
    10     1    25    1
    11    25    26    1
    12    26    27   ar
    13    27    28   ar
    14    28    29    1
    15    28    30   ar
    16    30    31   ar
    17     1     2   am
    18     2     3    2
    19     2     4    1
    20     4     5   ar
    21     5     6   ar
    22     6     7   ar
    23     7     8    1
    24     7     9   ar
    25     9    10   ar
    26    10    11    1
    27    17    18   ar
    28    18    19   ar
    29    19    14   ar
    30    31    26   ar
    31    10     4   ar
    32     8    12    1
    33    11    13    1
@<TRIPOS>MOLECULE
*****
 31 33 0 0 0
SMALL
GASTEIGER

@<TRIPOS>ATOM
      1 N           7.2041   -2.2836   22.2633 N.am    1  UNL1       -0.2503
      2 C           7.5667   -2.6613   20.8577 C.2     1  UNL1        0.2559
      3 O           8.8482   -3.3913   20.5841 O.2     1  UNL1       -0.2695
      4 C           6.6478   -2.3089   19.7256 C.ar    1  UNL1        0.0877
      5 C           6.8130   -1.0043   19.0038 C.ar    1  UNL1        0.0107
      6 C           5.8942   -0.6519   17.8718 C.ar    1  UNL1        0.0370
      7 C           4.8101   -1.6040   17.4615 C.ar    1  UNL1        0.1367
      8 O           3.8913   -1.2516   16.3295 O.3     1  UNL1       -0.5054
      9 C           4.6449   -2.9085   18.1833 C.ar    1  UNL1        0.0733
     10 C           5.5638   -3.2609   19.3154 C.ar    1  UNL1        0.1410
     11 O           5.3986   -4.5655   20.0371 O.3     1  UNL1       -0.5053
     12 H           3.9945   -0.4367   15.8786 H       1  UNL1        0.2922
     13 H           4.7214   -5.1602   19.7808 H       1  UNL1        0.2922
     14 C           3.3598   -0.0933   23.0843 C.ar    1  UNL1        0.0537
     15 C           3.3827   -1.5931   23.0817 C.ar    1  UNL1        0.0058
     16 C           4.6641   -2.3232   22.8080 C.ar    1  UNL1        0.0151
     17 C           5.9227   -1.5535   22.5370 C.ar    1  UNL1        0.0545
     18 C           5.8998   -0.0537   22.5396 C.ar    1  UNL1        0.0151
     19 C           4.6184    0.6764   22.8132 C.ar    1  UNL1        0.0058
     20 C           0.4190    1.7165   25.0404 C.3     1  UNL1        0.1152
     21 N           1.7005    0.9864   24.7668 N.am    1  UNL1       -0.2726
     22 C           2.6041    0.6059   25.9021 C.3     1  UNL1        0.1152
     23 C           2.0783    0.6367   23.3579 C.2     1  UNL1        0.2491
     24 O           1.1748    1.0172   22.2227 O.2     1  UNL1       -0.2699
     25 C           8.1230   -2.6360   23.3953 C.3     1  UNL1        0.1315
     26 C           7.8470   -3.8472   24.2361 C.ar    1  UNL1        0.0281
     27 C           8.3482   -5.2362   23.9726 C.ar    1  UNL1        0.0111
     28 C           7.8324   -6.1295   25.0616 C.ar    1  UNL1        0.0413
     29 BR          8.0910   -7.6012   25.1914 Br      1  UNL1       -0.0485
     30 C           7.0124   -5.2925   25.9982 C.ar    1  UNL1        0.0418
     31 S           7.0214   -3.8819   25.4880 S.2     1  UNL1       -0.0885
@<TRIPOS>BOND
     1    20    21    1
     2    21    22    1
     3    21    23   am
     4    23    24    2
     5    23    14    1
     6    14    15   ar
     7    15    16   ar
     8    16    17   ar
     9    17     1    1
    10     1    25    1
    11    25    26    1
    12    26    27   ar
    13    27    28   ar
    14    28    29    1
    15    28    30   ar
    16    30    31   ar
    17     1     2   am
    18     2     3    2
    19     2     4    1
    20     4     5   ar
    21     5     6   ar
    22     6     7   ar
    23     7     8    1
    24     7     9   ar
    25     9    10   ar
    26    10    11    1
    27    17    18   ar
    28    18    19   ar
    29    19    14   ar
    30    31    26   ar
    31    10     4   ar
    32     8    12    1
    33    11    13    1
