@<TRIPOS>MOLECULE
*****
 24 26 0 0 0
SMALL
GASTEIGER

@<TRIPOS>ATOM
      1 N         -10.5093  -15.3569   19.7739 N.pl3   1  UNL1       -0.3287
      2 C         -11.0081  -16.1534   20.9430 C.ar    1  UNL1        0.1959
      3 N         -12.4455  -16.3777   21.3082 N.ar    1  UNL1       -0.2123
      4 C         -12.4828  -17.2283   22.5432 C.ar    1  UNL1        0.1182
      5 C         -13.6219  -17.7674   23.3566 C.ar    1  UNL1        0.0239
      6 C         -13.3466  -18.6078   24.5682 C.ar    1  UNL1        0.0223
      7 C         -11.9321  -18.9091   24.9662 C.ar    1  UNL1        0.1006
      8 N         -10.7930  -18.3701   24.1528 N.ar    1  UNL1       -0.2251
      9 C         -11.0683  -17.5297   22.9413 C.ar    1  UNL1        0.1637
     10 N         -10.1569  -16.8653   21.9523 N.ar    1  UNL1       -0.2825
     11 H         -11.1496  -14.9242   19.1639 H       1  UNL1        0.1451
     12 H          -9.5417  -15.2668   19.6165 H       1  UNL1        0.1451
     13 C          -8.6576  -16.9058   21.9697 C.3     1  UNL1        0.1438
     14 C          -7.8788  -15.6858   22.3630 C.3     1  UNL1        0.1562
     15 O          -7.8317  -14.4985   21.4474 O.3     1  UNL1       -0.3780
     16 H          -7.2898  -13.8016   21.8493 H       1  UNL1        0.2109
     17 C          -7.1470  -15.6528   23.6720 C.ar    1  UNL1        0.0176
     18 C          -5.6556  -15.8100   23.7017 C.ar    1  UNL1       -0.0010
     19 C          -4.9238  -15.7770   25.0107 C.ar    1  UNL1        0.0007
     20 C          -5.6834  -15.5868   26.2900 C.ar    1  UNL1        0.0122
     21 C          -7.1749  -15.4297   26.2603 C.ar    1  UNL1        0.0680
     22 CL         -7.9346  -15.2395   27.5396 Cl      1  UNL1       -0.0814
     23 C          -7.9067  -15.4627   24.9514 C.ar    1  UNL1        0.0665
     24 CL         -9.3981  -15.3055   24.9217 Cl      1  UNL1       -0.0816
@<TRIPOS>BOND
     1     1     2    1
     2     2     3   ar
     3     3     4   ar
     4     4     5   ar
     5     5     6   ar
     6     6     7   ar
     7     7     8   ar
     8     8     9   ar
     9     9    10   ar
    10    10    13    1
    11    13    14    1
    12    14    15    1
    13    14    17    1
    14    17    18   ar
    15    18    19   ar
    16    19    20   ar
    17    20    21   ar
    18    21    22    1
    19    21    23   ar
    20    23    24    1
    21    10     2   ar
    22    23    17   ar
    23     9     4   ar
    24     1    11    1
    25     1    12    1
    26    15    16    1
@<TRIPOS>MOLECULE
*****
 24 26 0 0 0
SMALL
GASTEIGER

@<TRIPOS>ATOM
      1 N         -10.0650  -20.2042   25.2862 N.pl3   1  UNL1       -0.3287
      2 C         -10.4697  -19.3395   24.1292 C.ar    1  UNL1        0.1959
      3 N         -11.7835  -18.6324   23.9742 N.ar    1  UNL1       -0.2123
      4 C         -11.7575  -17.8859   22.6734 C.ar    1  UNL1        0.1182
      5 C         -12.7730  -17.0142   21.9959 C.ar    1  UNL1        0.0239
      6 C         -12.4586  -16.3883   20.6696 C.ar    1  UNL1        0.0223
      7 C         -11.1287  -16.6340   20.0207 C.ar    1  UNL1        0.1006
      8 N         -10.1133  -17.5057   20.6981 N.ar    1  UNL1       -0.2251
      9 C         -10.4277  -18.1316   22.0245 C.ar    1  UNL1        0.1637
     10 N          -9.6318  -19.0300   22.9242 N.ar    1  UNL1       -0.2825
     11 H         -10.6880  -20.3483   26.0347 H       1  UNL1        0.1451
     12 H          -9.1762  -20.6276   25.2970 H       1  UNL1        0.1451
     13 C          -8.2419  -19.5308   22.6646 C.3     1  UNL1        0.1438
     14 C          -7.1809  -18.5848   22.1859 C.3     1  UNL1        0.1562
     15 O          -7.4176  -17.1044   22.2370 O.3     1  UNL1       -0.3780
     16 H          -6.6383  -16.6404   21.8930 H       1  UNL1        0.2109
     17 C          -5.8833  -19.1190   21.6561 C.ar    1  UNL1        0.0176
     18 C          -5.8852  -20.1402   20.5574 C.ar    1  UNL1       -0.0010
     19 C          -4.5876  -20.6744   20.0276 C.ar    1  UNL1        0.0007
     20 C          -3.2879  -20.1873   20.5965 C.ar    1  UNL1        0.0122
     21 C          -3.2859  -19.1661   21.6952 C.ar    1  UNL1        0.0680
     22 CL         -1.9863  -18.6790   22.2641 Cl      1  UNL1       -0.0814
     23 C          -4.5836  -18.6319   22.2250 C.ar    1  UNL1        0.0665
     24 CL         -4.5816  -17.6107   23.3236 Cl      1  UNL1       -0.0816
@<TRIPOS>BOND
     1     1     2    1
     2     2     3   ar
     3     3     4   ar
     4     4     5   ar
     5     5     6   ar
     6     6     7   ar
     7     7     8   ar
     8     8     9   ar
     9     9    10   ar
    10    10    13    1
    11    13    14    1
    12    14    15    1
    13    14    17    1
    14    17    18   ar
    15    18    19   ar
    16    19    20   ar
    17    20    21   ar
    18    21    22    1
    19    21    23   ar
    20    23    24    1
    21    10     2   ar
    22    23    17   ar
    23     9     4   ar
    24     1    11    1
    25     1    12    1
    26    15    16    1
@<TRIPOS>MOLECULE
*****
 24 26 0 0 0
SMALL
GASTEIGER

@<TRIPOS>ATOM
      1 N          -5.8352  -21.5137   20.0603 N.pl3   1  UNL1       -0.3287
      2 C          -4.8708  -20.3941   20.3179 C.ar    1  UNL1        0.1959
      3 N          -3.6131  -20.1191   19.5482 N.ar    1  UNL1       -0.2123
      4 C          -2.9598  -18.9080   20.1450 C.ar    1  UNL1        0.1182
      5 C          -1.6976  -18.1752   19.7988 C.ar    1  UNL1        0.0239
      6 C          -1.2894  -16.9688   20.5912 C.ar    1  UNL1        0.0223
      7 C          -2.1434  -16.4952   21.7298 C.ar    1  UNL1        0.1006
      8 N          -3.4055  -17.2280   22.0760 N.ar    1  UNL1       -0.2251
      9 C          -3.8137  -18.4344   21.2836 C.ar    1  UNL1        0.1637
     10 N          -4.9948  -19.3529   21.3904 N.ar    1  UNL1       -0.2825
     11 H          -5.6663  -22.1504   19.3285 H       1  UNL1        0.1451
     12 H          -6.6371  -21.6120   20.6229 H       1  UNL1        0.1451
     13 C          -6.1050  -19.2484   22.3937 C.3     1  UNL1        0.1438
     14 C          -7.1503  -18.1827   22.2475 C.3     1  UNL1        0.1562
     15 O          -6.7990  -16.7472   22.5043 O.3     1  UNL1       -0.3780
     16 H          -7.5829  -16.1928   22.3663 H       1  UNL1        0.2109
     17 C          -8.5471  -18.5524   21.8443 C.ar    1  UNL1        0.0176
     18 C          -8.8019  -19.1663   20.4997 C.ar    1  UNL1       -0.0010
     19 C         -10.1987  -19.5360   20.0966 C.ar    1  UNL1        0.0007
     20 C         -11.3405  -19.2917   21.0381 C.ar    1  UNL1        0.0122
     21 C         -11.0856  -18.6778   22.3827 C.ar    1  UNL1        0.0680
     22 CL        -12.2274  -18.4335   23.3243 Cl      1  UNL1       -0.0814
     23 C          -9.6889  -18.3081   22.7859 C.ar    1  UNL1        0.0665
     24 CL         -9.4340  -17.6942   24.1305 Cl      1  UNL1       -0.0816
@<TRIPOS>BOND
     1     1     2    1
     2     2     3   ar
     3     3     4   ar
     4     4     5   ar
     5     5     6   ar
     6     6     7   ar
     7     7     8   ar
     8     8     9   ar
     9     9    10   ar
    10    10    13    1
    11    13    14    1
    12    14    15    1
    13    14    17    1
    14    17    18   ar
    15    18    19   ar
    16    19    20   ar
    17    20    21   ar
    18    21    22    1
    19    21    23   ar
    20    23    24    1
    21    10     2   ar
    22    23    17   ar
    23     9     4   ar
    24     1    11    1
    25     1    12    1
    26    15    16    1
@<TRIPOS>MOLECULE
*****
 24 26 0 0 0
SMALL
GASTEIGER

@<TRIPOS>ATOM
      1 N          -5.7897  -14.8022   26.3769 N.pl3   1  UNL1       -0.3287
      2 C          -6.6849  -15.4087   25.3373 C.ar    1  UNL1        0.1959
      3 N          -8.1783  -15.5232   25.4178 N.ar    1  UNL1       -0.2123
      4 C          -8.6602  -16.1924   24.1649 C.ar    1  UNL1        0.1182
      5 C         -10.0333  -16.5680   23.6920 C.ar    1  UNL1        0.0239
      6 C         -10.2106  -17.2428   22.3642 C.ar    1  UNL1        0.0223
      7 C          -9.0150  -17.5420   21.5093 C.ar    1  UNL1        0.1006
      8 N          -7.6420  -17.1664   21.9821 N.ar    1  UNL1       -0.2251
      9 C          -7.4646  -16.4916   23.3099 C.ar    1  UNL1        0.1637
     10 N          -6.2438  -16.0072   24.0345 N.ar    1  UNL1       -0.2825
     11 H          -6.1755  -14.4332   27.2041 H       1  UNL1        0.1451
     12 H          -4.8163  -14.7733   26.2322 H       1  UNL1        0.1451
     13 C          -4.8300  -16.1044   23.5427 C.3     1  UNL1        0.1438
     14 C          -4.1232  -17.4273   23.5482 C.3     1  UNL1        0.1562
     15 O          -3.6285  -18.0080   24.8398 O.3     1  UNL1       -0.3780
     16 H          -3.1984  -18.8602   24.6674 H       1  UNL1        0.2109
     17 C          -3.9109  -18.1696   22.2621 C.ar    1  UNL1        0.0176
     18 C          -4.7819  -19.3421   21.9203 C.ar    1  UNL1       -0.0010
     19 C          -4.5696  -20.0844   20.6343 C.ar    1  UNL1        0.0007
     20 C          -3.4864  -19.6544   19.6901 C.ar    1  UNL1        0.0122
     21 C          -2.6154  -18.4820   20.0319 C.ar    1  UNL1        0.0680
     22 CL         -1.5321  -18.0518   19.0877 Cl      1  UNL1       -0.0814
     23 C          -2.8277  -17.7396   21.3179 C.ar    1  UNL1        0.0665
     24 CL         -1.9567  -16.5672   21.6597 Cl      1  UNL1       -0.0816
@<TRIPOS>BOND
     1     1     2    1
     2     2     3   ar
     3     3     4   ar
     4     4     5   ar
     5     5     6   ar
     6     6     7   ar
     7     7     8   ar
     8     8     9   ar
     9     9    10   ar
    10    10    13    1
    11    13    14    1
    12    14    15    1
    13    14    17    1
    14    17    18   ar
    15    18    19   ar
    16    19    20   ar
    17    20    21   ar
    18    21    22    1
    19    21    23   ar
    20    23    24    1
    21    10     2   ar
    22    23    17   ar
    23     9     4   ar
    24     1    11    1
    25     1    12    1
    26    15    16    1
@<TRIPOS>MOLECULE
*****
 24 26 0 0 0
SMALL
GASTEIGER

@<TRIPOS>ATOM
      1 N          -8.5598  -19.2728   18.9795 N.pl3   1  UNL1       -0.3287
      2 C          -9.5401  -18.9949   20.0803 C.ar    1  UNL1        0.1959
      3 N         -10.9615  -18.5496   19.9035 N.ar    1  UNL1       -0.2123
      4 C         -11.5710  -18.3930   21.2652 C.ar    1  UNL1        0.1182
      5 C         -12.9423  -17.9781   21.7093 C.ar    1  UNL1        0.0239
      6 C         -13.2689  -17.9117   23.1718 C.ar    1  UNL1        0.0223
      7 C         -12.2241  -18.2603   24.1901 C.ar    1  UNL1        0.1006
      8 N         -10.8528  -18.6752   23.7460 N.ar    1  UNL1       -0.2251
      9 C         -10.5263  -18.7416   22.2835 C.ar    1  UNL1        0.1637
     10 N          -9.2711  -19.1136   21.5512 N.ar    1  UNL1       -0.2825
     11 H          -8.8319  -19.1659   18.0394 H       1  UNL1        0.1451
     12 H          -7.6443  -19.5621   19.1971 H       1  UNL1        0.1451
     13 C          -7.9746  -19.5309   22.1796 C.3     1  UNL1        0.1438
     14 C          -6.7954  -18.6044   22.1523 C.3     1  UNL1        0.1562
     15 O          -6.9402  -17.1916   22.6353 O.3     1  UNL1       -0.3780
     16 H          -6.0902  -16.7321   22.5502 H       1  UNL1        0.2109
     17 C          -5.4712  -19.0905   21.6421 C.ar    1  UNL1        0.0176
     18 C          -5.4189  -20.0878   20.5230 C.ar    1  UNL1       -0.0010
     19 C          -4.0947  -20.5739   20.0128 C.ar    1  UNL1        0.0007
     20 C          -2.8228  -20.0626   20.6218 C.ar    1  UNL1        0.0122
     21 C          -2.8751  -19.0652   21.7409 C.ar    1  UNL1        0.0680
     22 CL         -1.6033  -18.5539   22.3500 Cl      1  UNL1       -0.0814
     23 C          -4.1993  -18.5792   22.2511 C.ar    1  UNL1        0.0665
     24 CL         -4.2516  -17.5818   23.3703 Cl      1  UNL1       -0.0816
@<TRIPOS>BOND
     1     1     2    1
     2     2     3   ar
     3     3     4   ar
     4     4     5   ar
     5     5     6   ar
     6     6     7   ar
     7     7     8   ar
     8     8     9   ar
     9     9    10   ar
    10    10    13    1
    11    13    14    1
    12    14    15    1
    13    14    17    1
    14    17    18   ar
    15    18    19   ar
    16    19    20   ar
    17    20    21   ar
    18    21    22    1
    19    21    23   ar
    20    23    24    1
    21    10     2   ar
    22    23    17   ar
    23     9     4   ar
    24     1    11    1
    25     1    12    1
    26    15    16    1
@<TRIPOS>MOLECULE
*****
 24 26 0 0 0
SMALL
GASTEIGER

@<TRIPOS>ATOM
      1 N          -9.5807  -19.0965   19.7615 N.pl3   1  UNL1       -0.3287
      2 C          -8.1537  -19.1781   20.2164 C.ar    1  UNL1        0.1959
      3 N          -7.0711  -19.9988   19.5803 N.ar    1  UNL1       -0.2123
      4 C          -5.8070  -19.7813   20.3579 C.ar    1  UNL1        0.1182
      5 C          -4.4206  -20.3296   20.1935 C.ar    1  UNL1        0.0239
      6 C          -3.3354  -19.9227   21.1458 C.ar    1  UNL1        0.0223
      7 C          -3.6367  -18.9677   22.2625 C.ar    1  UNL1        0.1006
      8 N          -5.0231  -18.4194   22.4269 N.ar    1  UNL1       -0.2251
      9 C          -6.1083  -18.8262   21.4747 C.ar    1  UNL1        0.1637
     10 N          -7.5586  -18.4535   21.3871 N.ar    1  UNL1       -0.2825
     11 H          -9.8778  -19.6125   18.9775 H       1  UNL1        0.1451
     12 H         -10.2203  -18.5268   20.2470 H       1  UNL1        0.1451
     13 C          -8.2861  -17.5199   22.3087 C.3     1  UNL1        0.1438
     14 C          -7.7302  -16.1545   22.5852 C.3     1  UNL1        0.1562
     15 O          -7.7273  -15.1131   21.5055 O.3     1  UNL1       -0.3780
     16 H          -7.3363  -14.2939   21.8475 H       1  UNL1        0.2109
     17 C          -7.1772  -15.8303   23.9413 C.ar    1  UNL1        0.0176
     18 C          -5.6973  -15.6742   24.1300 C.ar    1  UNL1       -0.0010
     19 C          -5.1442  -15.3500   25.4861 C.ar    1  UNL1        0.0007
     20 C          -6.0710  -15.1820   26.6535 C.ar    1  UNL1        0.0122
     21 C          -7.5509  -15.3382   26.4648 C.ar    1  UNL1        0.0680
     22 CL         -8.4777  -15.1702   27.6321 Cl      1  UNL1       -0.0814
     23 C          -8.1039  -15.6624   25.1087 C.ar    1  UNL1        0.0665
     24 CL         -9.5838  -15.8185   24.9200 Cl      1  UNL1       -0.0816
@<TRIPOS>BOND
     1     1     2    1
     2     2     3   ar
     3     3     4   ar
     4     4     5   ar
     5     5     6   ar
     6     6     7   ar
     7     7     8   ar
     8     8     9   ar
     9     9    10   ar
    10    10    13    1
    11    13    14    1
    12    14    15    1
    13    14    17    1
    14    17    18   ar
    15    18    19   ar
    16    19    20   ar
    17    20    21   ar
    18    21    22    1
    19    21    23   ar
    20    23    24    1
    21    10     2   ar
    22    23    17   ar
    23     9     4   ar
    24     1    11    1
    25     1    12    1
    26    15    16    1
@<TRIPOS>MOLECULE
*****
 24 26 0 0 0
SMALL
GASTEIGER

@<TRIPOS>ATOM
      1 N          -8.3891  -15.2313   21.1975 N.pl3   1  UNL1       -0.3287
      2 C          -8.0607  -15.4024   22.6511 C.ar    1  UNL1        0.1959
      3 N          -6.7828  -14.9915   23.3206 N.ar    1  UNL1       -0.2123
      4 C          -6.8849  -15.3496   24.7736 C.ar    1  UNL1        0.1182
      5 C          -5.9300  -15.1816   25.9181 C.ar    1  UNL1        0.0239
      6 C          -6.3160  -15.6459   27.2912 C.ar    1  UNL1        0.0223
      7 C          -7.6570  -16.2781   27.5198 C.ar    1  UNL1        0.1006
      8 N          -8.6118  -16.4460   26.3753 N.ar    1  UNL1       -0.2251
      9 C          -8.2258  -15.9818   25.0022 C.ar    1  UNL1        0.1637
     10 N          -8.9525  -16.0144   23.6904 N.ar    1  UNL1       -0.2825
     11 H          -7.7347  -14.8159   20.5906 H       1  UNL1        0.1451
     12 H          -9.2591  -15.5345   20.8504 H       1  UNL1        0.1451
     13 C         -10.3293  -16.5628   23.4586 C.3     1  UNL1        0.1438
     14 C         -10.5133  -18.0162   23.1368 C.3     1  UNL1        0.1562
     15 O         -11.1538  -18.9309   24.1384 O.3     1  UNL1       -0.3780
     16 H         -11.1960  -19.8294   23.7752 H       1  UNL1        0.2109
     17 C         -10.0570  -18.5551   21.8134 C.ar    1  UNL1        0.0176
     18 C         -11.0092  -18.6053   20.6554 C.ar    1  UNL1       -0.0010
     19 C         -10.5529  -19.1442   19.3320 C.ar    1  UNL1        0.0007
     20 C          -9.1444  -19.6328   19.1665 C.ar    1  UNL1        0.0122
     21 C          -8.1923  -19.5826   20.3245 C.ar    1  UNL1        0.0680
     22 CL         -6.7838  -20.0712   20.1591 Cl      1  UNL1       -0.0814
     23 C          -8.6486  -19.0437   21.6479 C.ar    1  UNL1        0.0665
     24 CL         -7.6964  -18.9935   22.8058 Cl      1  UNL1       -0.0816
@<TRIPOS>BOND
     1     1     2    1
     2     2     3   ar
     3     3     4   ar
     4     4     5   ar
     5     5     6   ar
     6     6     7   ar
     7     7     8   ar
     8     8     9   ar
     9     9    10   ar
    10    10    13    1
    11    13    14    1
    12    14    15    1
    13    14    17    1
    14    17    18   ar
    15    18    19   ar
    16    19    20   ar
    17    20    21   ar
    18    21    22    1
    19    21    23   ar
    20    23    24    1
    21    10     2   ar
    22    23    17   ar
    23     9     4   ar
    24     1    11    1
    25     1    12    1
    26    15    16    1
@<TRIPOS>MOLECULE
*****
 24 26 0 0 0
SMALL
GASTEIGER

@<TRIPOS>ATOM
      1 N          -5.3931  -15.9251   24.7105 N.pl3   1  UNL1       -0.3287
      2 C          -5.0975  -16.9793   23.6852 C.ar    1  UNL1        0.1959
      3 N          -3.7476  -17.5567   23.3781 N.ar    1  UNL1       -0.2123
      4 C          -3.9156  -18.5754   22.2900 C.ar    1  UNL1        0.1182
      5 C          -2.9327  -19.4622   21.5848 C.ar    1  UNL1        0.0239
      6 C          -3.4036  -20.4012   20.5142 C.ar    1  UNL1        0.0223
      7 C          -4.8575  -20.4535   20.1487 C.ar    1  UNL1        0.1006
      8 N          -5.8404  -19.5667   20.8539 N.ar    1  UNL1       -0.2251
      9 C          -5.3695  -18.6276   21.9246 C.ar    1  UNL1        0.1637
     10 N          -6.0999  -17.6412   22.7868 N.ar    1  UNL1       -0.2825
     11 H          -4.6638  -15.5495   25.2547 H       1  UNL1        0.1451
     12 H          -6.3165  -15.6089   24.8393 H       1  UNL1        0.1451
     13 C          -7.5740  -17.3651   22.7560 C.3     1  UNL1        0.1438
     14 C          -8.5478  -18.5012   22.6519 C.3     1  UNL1        0.1562
     15 O          -8.0981  -19.9032   22.9384 O.3     1  UNL1       -0.3780
     16 H          -8.8450  -20.5117   22.8260 H       1  UNL1        0.2109
     17 C          -9.9714  -18.2353   22.2612 C.ar    1  UNL1        0.0176
     18 C         -10.3151  -17.9473   20.8298 C.ar    1  UNL1       -0.0010
     19 C         -11.7387  -17.6815   20.4391 C.ar    1  UNL1        0.0007
     20 C         -12.8187  -17.7037   21.4798 C.ar    1  UNL1        0.0122
     21 C         -12.4750  -17.9916   22.9112 C.ar    1  UNL1        0.0680
     22 CL        -13.5549  -18.0138   23.9520 Cl      1  UNL1       -0.0814
     23 C         -11.0514  -18.2575   23.3019 C.ar    1  UNL1        0.0665
     24 CL        -10.7077  -18.5454   24.7333 Cl      1  UNL1       -0.0816
@<TRIPOS>BOND
     1     1     2    1
     2     2     3   ar
     3     3     4   ar
     4     4     5   ar
     5     5     6   ar
     6     6     7   ar
     7     7     8   ar
     8     8     9   ar
     9     9    10   ar
    10    10    13    1
    11    13    14    1
    12    14    15    1
    13    14    17    1
    14    17    18   ar
    15    18    19   ar
    16    19    20   ar
    17    20    21   ar
    18    21    22    1
    19    21    23   ar
    20    23    24    1
    21    10     2   ar
    22    23    17   ar
    23     9     4   ar
    24     1    11    1
    25     1    12    1
    26    15    16    1
@<TRIPOS>MOLECULE
*****
 24 26 0 0 0
SMALL
GASTEIGER

@<TRIPOS>ATOM
      1 N          -8.7866  -19.5907   20.3306 N.pl3   1  UNL1       -0.3287
      2 C          -7.3422  -19.4292   20.7014 C.ar    1  UNL1        0.1959
      3 N          -6.1813  -20.1166   20.0458 N.ar    1  UNL1       -0.2123
      4 C          -4.9267  -19.6641   20.7321 C.ar    1  UNL1        0.1182
      5 C          -3.4831  -20.0078   20.5133 C.ar    1  UNL1        0.0239
      6 C          -2.4249  -19.3843   21.3744 C.ar    1  UNL1        0.0223
      7 C          -2.8103  -18.4172   22.4542 C.ar    1  UNL1        0.1006
      8 N          -4.2539  -18.0735   22.6730 N.ar    1  UNL1       -0.2251
      9 C          -5.3121  -18.6970   21.8120 C.ar    1  UNL1        0.1637
     10 N          -6.8049  -18.5518   21.7930 N.ar    1  UNL1       -0.2825
     11 H          -9.0416  -20.1935   19.5951 H       1  UNL1        0.1451
     12 H          -9.4797  -19.0940   20.8227 H       1  UNL1        0.1451
     13 C          -7.6178  -17.6819   22.7054 C.3     1  UNL1        0.1438
     14 C          -8.5292  -16.6381   22.1314 C.3     1  UNL1        0.1562
     15 O          -7.9678  -15.3294   21.6598 O.3     1  UNL1       -0.3780
     16 H          -8.6861  -14.7731   21.3200 H       1  UNL1        0.2109
     17 C         -10.0021  -16.9028   22.0288 C.ar    1  UNL1        0.0176
     18 C         -10.7286  -16.6140   20.7486 C.ar    1  UNL1       -0.0010
     19 C         -12.2015  -16.8787   20.6460 C.ar    1  UNL1        0.0007
     20 C         -12.9479  -17.4321   21.8235 C.ar    1  UNL1        0.0122
     21 C         -12.2214  -17.7209   23.1037 C.ar    1  UNL1        0.0680
     22 CL        -12.9676  -18.2744   24.2812 Cl      1  UNL1       -0.0814
     23 C         -10.7485  -17.4562   23.2063 C.ar    1  UNL1        0.0665
     24 CL        -10.0219  -17.7450   24.4864 Cl      1  UNL1       -0.0816
@<TRIPOS>BOND
     1     1     2    1
     2     2     3   ar
     3     3     4   ar
     4     4     5   ar
     5     5     6   ar
     6     6     7   ar
     7     7     8   ar
     8     8     9   ar
     9     9    10   ar
    10    10    13    1
    11    13    14    1
    12    14    15    1
    13    14    17    1
    14    17    18   ar
    15    18    19   ar
    16    19    20   ar
    17    20    21   ar
    18    21    22    1
    19    21    23   ar
    20    23    24    1
    21    10     2   ar
    22    23    17   ar
    23     9     4   ar
    24     1    11    1
    25     1    12    1
    26    15    16    1
