@<TRIPOS>MOLECULE
*****
 28 31 0 0 0
SMALL
GASTEIGER

@<TRIPOS>ATOM
      1 C          -6.5186  -20.4104   20.5072 C.ar    1  UNL1        0.1385
      2 C          -7.3578  -19.9176   19.3659 C.ar    1  UNL1        0.0384
      3 C          -8.7280  -19.3655   19.6261 C.ar    1  UNL1        0.0203
      4 C          -9.2590  -19.3063   21.0277 C.ar    1  UNL1        0.0602
      5 C          -8.4198  -19.7992   22.1691 C.ar    1  UNL1        0.0204
      6 C          -7.0496  -20.3512   21.9089 C.ar    1  UNL1        0.0384
      7 C          -9.2044  -19.6158   23.4343 C.ar    1  UNL1        0.0234
      8 C         -10.5286  -19.0097   23.0748 C.ar    1  UNL1        0.1143
      9 N         -10.5624  -18.8184   21.5875 N.ar    1  UNL1       -0.3219
     10 C         -11.7754  -18.2246   20.9351 C.3     1  UNL1        0.1276
     11 C         -12.9548  -17.8222   21.7699 C.3     1  UNL1        0.1183
     12 N         -12.9211  -18.0135   23.2573 N.am    1  UNL1       -0.2703
     13 C         -11.7079  -18.6072   23.9098 C.2     1  UNL1        0.2650
     14 O         -11.6742  -18.7985   25.3972 O.2     1  UNL1       -0.2683
     15 O          -5.1483  -20.9625   20.2470 O.3     1  UNL1       -0.4791
     16 N          -1.5661  -18.2417   20.3681 N.3     1  UNL1       -0.2737
     17 C          -1.9875  -18.9822   21.6026 C.3     1  UNL1        0.0758
     18 C          -3.1816  -19.8891   21.5623 C.3     1  UNL1        0.0609
     19 C          -3.9543  -20.0556   20.2874 C.3     1  UNL1        0.1687
     20 C          -3.5328  -19.3150   19.0528 C.3     1  UNL1        0.0609
     21 C          -2.3387  -18.4081   19.0932 C.3     1  UNL1        0.0758
     22 C           0.9811  -17.8589   20.0283 C.3     1  UNL1        0.0173
     23 C          -0.3720  -17.3348   20.4085 C.3     1  UNL1        0.0576
     24 C          -0.5310  -15.9037   20.8290 C.3     1  UNL1        0.0173
     25 C         -14.1005  -17.6110   24.0923 C.3     1  UNL1        0.1255
     26 C         -14.8141  -18.6344   24.9250 C.3     1  UNL1        0.1586
     27 O         -14.5226  -18.7429   26.3923 O.3     1  UNL1       -0.3802
     28 H         -13.6078  -19.0396   26.5191 H       1  UNL1        0.2105
@<TRIPOS>BOND
     1    22    23    1
     2    23    24    1
     3    23    16    1
     4    16    17    1
     5    17    18    1
     6    18    19    1
     7    19    15    1
     8    15     1    1
     9     1     2   ar
    10     2     3   ar
    11     3     4   ar
    12     4     5   ar
    13     5     6   ar
    14     5     7   ar
    15     7     8   ar
    16     8     9   ar
    17     9    10    1
    18    10    11    1
    19    11    12    1
    20    12    25    1
    21    25    26    1
    22    26    27    1
    23    12    13   am
    24    13    14    2
    25    19    20    1
    26    20    21    1
    27    21    16    1
    28     6     1   ar
    29    13     8    1
    30     9     4   ar
    31    27    28    1
@<TRIPOS>MOLECULE
*****
 28 31 0 0 0
SMALL
GASTEIGER

@<TRIPOS>ATOM
      1 C          -6.3971  -20.2120   20.5121 C.ar    1  UNL1        0.1385
      2 C          -6.3471  -20.6294   21.9519 C.ar    1  UNL1        0.0384
      3 C          -7.5182  -20.3643   22.8508 C.ar    1  UNL1        0.0203
      4 C          -8.7395  -19.6818   22.3098 C.ar    1  UNL1        0.0602
      5 C          -8.7896  -19.2644   20.8699 C.ar    1  UNL1        0.0204
      6 C          -7.6184  -19.5295   19.9711 C.ar    1  UNL1        0.0384
      7 C         -10.1188  -18.6151   20.6215 C.ar    1  UNL1        0.0234
      8 C         -10.8902  -18.6312   21.9079 C.ar    1  UNL1        0.1143
      9 N         -10.0378  -19.2904   22.9513 N.ar    1  UNL1       -0.3219
     10 C         -10.5538  -19.4492   24.3507 C.3     1  UNL1        0.1276
     11 C         -11.9223  -18.9488   24.7067 C.3     1  UNL1        0.1183
     12 N         -12.7747  -18.2895   23.6633 N.am    1  UNL1       -0.2703
     13 C         -12.2586  -18.1307   22.2638 C.2     1  UNL1        0.2650
     14 O         -13.1111  -17.4714   21.2204 O.2     1  UNL1       -0.2683
     15 O          -5.2259  -20.4771   19.6131 O.3     1  UNL1       -0.4791
     16 N          -1.4264  -18.1185   20.1134 N.3     1  UNL1       -0.2737
     17 C          -2.4146  -17.7325   19.0530 C.3     1  UNL1        0.0758
     18 C          -3.6811  -18.5187   18.8862 C.3     1  UNL1        0.0609
     19 C          -3.9594  -19.6909   19.7799 C.3     1  UNL1        0.1687
     20 C          -2.9711  -20.0768   20.8403 C.3     1  UNL1        0.0609
     21 C          -1.7046  -19.2907   21.0070 C.3     1  UNL1        0.0758
     22 C          -0.2226  -15.8691   20.6047 C.3     1  UNL1        0.0173
     23 C          -0.1599  -17.3323   20.2802 C.3     1  UNL1        0.0576
     24 C           1.1694  -18.0092   20.1224 C.3     1  UNL1        0.0173
     25 C         -14.1433  -17.7890   24.0193 C.3     1  UNL1        0.1255
     26 C         -15.0189  -18.5889   24.9377 C.3     1  UNL1        0.1586
     27 O         -14.6642  -18.7166   26.3895 O.3     1  UNL1       -0.3802
     28 H         -13.8374  -19.2161   26.4776 H       1  UNL1        0.2105
@<TRIPOS>BOND
     1    22    23    1
     2    23    24    1
     3    23    16    1
     4    16    17    1
     5    17    18    1
     6    18    19    1
     7    19    15    1
     8    15     1    1
     9     1     2   ar
    10     2     3   ar
    11     3     4   ar
    12     4     5   ar
    13     5     6   ar
    14     5     7   ar
    15     7     8   ar
    16     8     9   ar
    17     9    10    1
    18    10    11    1
    19    11    12    1
    20    12    25    1
    21    25    26    1
    22    26    27    1
    23    12    13   am
    24    13    14    2
    25    19    20    1
    26    20    21    1
    27    21    16    1
    28     6     1   ar
    29    13     8    1
    30     9     4   ar
    31    27    28    1
@<TRIPOS>MOLECULE
*****
 28 31 0 0 0
SMALL
GASTEIGER

@<TRIPOS>ATOM
      1 C           7.3710   -4.7960   23.8519 C.ar    1  UNL1        0.1385
      2 C           7.6486   -6.0989   24.5413 C.ar    1  UNL1        0.0384
      3 C           7.5402   -6.1953   26.0342 C.ar    1  UNL1        0.0203
      4 C           7.1543   -4.9889   26.8377 C.ar    1  UNL1        0.0602
      5 C           6.8767   -3.6861   26.1483 C.ar    1  UNL1        0.0204
      6 C           6.9851   -3.5896   24.6553 C.ar    1  UNL1        0.0384
      7 C           6.5194   -2.6740   27.1962 C.ar    1  UNL1        0.0234
      8 C           6.5762   -3.3515   28.5333 C.ar    1  UNL1        0.1143
      9 N           6.9686   -4.7822   28.3118 N.ar    1  UNL1       -0.3219
     10 C           7.1061   -5.7118   29.4809 C.3     1  UNL1        0.1276
     11 C           6.8512   -5.2107   30.8715 C.3     1  UNL1        0.1183
     12 N           6.4589   -3.7800   31.0931 N.am    1  UNL1       -0.2703
     13 C           6.3214   -2.8503   29.9239 C.2     1  UNL1        0.2650
     14 O           5.9290   -1.4196   30.1455 O.2     1  UNL1       -0.2683
     15 O           7.4794   -4.6994   22.3588 O.3     1  UNL1       -0.4791
     16 N           4.5792   -2.1459   20.0528 N.3     1  UNL1       -0.2737
     17 C           6.0446   -2.0874   19.7380 C.3     1  UNL1        0.0758
     18 C           7.0114   -2.9386   20.5067 C.3     1  UNL1        0.0609
     19 C           6.5127   -3.8482   21.5902 C.3     1  UNL1        0.1687
     20 C           5.0472   -3.9067   21.9049 C.3     1  UNL1        0.0609
     21 C           4.0805   -3.0555   21.1363 C.3     1  UNL1        0.0758
     22 C           2.3031   -0.9022   19.9019 C.3     1  UNL1        0.0173
     23 C           3.6125   -1.2947   19.2841 C.3     1  UNL1        0.0576
     24 C           3.9550   -0.8360   17.8977 C.3     1  UNL1        0.0173
     25 C           6.2040   -3.2788   32.4838 C.3     1  UNL1        0.1255
     26 C           4.8595   -2.7206   32.8452 C.3     1  UNL1        0.1586
     27 O           3.8697   -3.5695   33.5866 O.3     1  UNL1       -0.3802
     28 H           3.5924   -4.3092   33.0236 H       1  UNL1        0.2105
@<TRIPOS>BOND
     1    22    23    1
     2    23    24    1
     3    23    16    1
     4    16    17    1
     5    17    18    1
     6    18    19    1
     7    19    15    1
     8    15     1    1
     9     1     2   ar
    10     2     3   ar
    11     3     4   ar
    12     4     5   ar
    13     5     6   ar
    14     5     7   ar
    15     7     8   ar
    16     8     9   ar
    17     9    10    1
    18    10    11    1
    19    11    12    1
    20    12    25    1
    21    25    26    1
    22    26    27    1
    23    12    13   am
    24    13    14    2
    25    19    20    1
    26    20    21    1
    27    21    16    1
    28     6     1   ar
    29    13     8    1
    30     9     4   ar
    31    27    28    1
@<TRIPOS>MOLECULE
*****
 28 31 0 0 0
SMALL
GASTEIGER

@<TRIPOS>ATOM
      1 C           6.5105   -3.8717   23.6545 C.ar    1  UNL1        0.1385
      2 C           5.9234   -2.5137   23.9017 C.ar    1  UNL1        0.0384
      3 C           5.7092   -2.0337   25.3066 C.ar    1  UNL1        0.0203
      4 C           6.0821   -2.9117   26.4642 C.ar    1  UNL1        0.0602
      5 C           6.6691   -4.2697   26.2170 C.ar    1  UNL1        0.0204
      6 C           6.8834   -4.7497   24.8122 C.ar    1  UNL1        0.0384
      7 C           6.9376   -4.9078   27.5477 C.ar    1  UNL1        0.0234
      8 C           6.5165   -3.9442   28.6173 C.ar    1  UNL1        0.1143
      9 N           5.9877   -2.7105   27.9477 N.ar    1  UNL1       -0.3219
     10 C           5.4887   -1.5634   28.7753 C.3     1  UNL1        0.1276
     11 C           5.5183   -1.6499   30.2725 C.3     1  UNL1        0.1183
     12 N           6.0471   -2.8836   30.9421 N.am    1  UNL1       -0.2703
     13 C           6.5462   -4.0308   30.1145 C.2     1  UNL1        0.2650
     14 O           7.0750   -5.2645   30.7841 O.2     1  UNL1       -0.2683
     15 O           6.7248   -4.3517   22.2496 O.3     1  UNL1       -0.4791
     16 N           5.6225   -1.7109   18.7767 N.3     1  UNL1       -0.2737
     17 C           4.6137   -2.6662   19.3423 C.3     1  UNL1        0.0758
     18 C           4.9812   -3.5465   20.5000 C.3     1  UNL1        0.0609
     19 C           6.3573   -3.4715   21.0920 C.3     1  UNL1        0.1687
     20 C           7.3661   -2.5162   20.5264 C.3     1  UNL1        0.0609
     21 C           6.9987   -1.6359   19.3688 C.3     1  UNL1        0.0758
     22 C           3.8697   -0.8841   17.0464 C.3     1  UNL1        0.0173
     23 C           5.2550   -0.8307   17.6191 C.3     1  UNL1        0.0576
     24 C           6.2730    0.1030   17.0341 C.3     1  UNL1        0.0173
     25 C           6.0768   -2.9702   32.4394 C.3     1  UNL1        0.1255
     26 C           4.8840   -2.5375   33.2394 C.3     1  UNL1        0.1586
     27 O           3.8286   -3.5361   33.6118 O.3     1  UNL1       -0.3802
     28 H           3.3814   -3.8483   32.8096 H       1  UNL1        0.2105
@<TRIPOS>BOND
     1    22    23    1
     2    23    24    1
     3    23    16    1
     4    16    17    1
     5    17    18    1
     6    18    19    1
     7    19    15    1
     8    15     1    1
     9     1     2   ar
    10     2     3   ar
    11     3     4   ar
    12     4     5   ar
    13     5     6   ar
    14     5     7   ar
    15     7     8   ar
    16     8     9   ar
    17     9    10    1
    18    10    11    1
    19    11    12    1
    20    12    25    1
    21    25    26    1
    22    26    27    1
    23    12    13   am
    24    13    14    2
    25    19    20    1
    26    20    21    1
    27    21    16    1
    28     6     1   ar
    29    13     8    1
    30     9     4   ar
    31    27    28    1
@<TRIPOS>MOLECULE
*****
 28 31 0 0 0
SMALL
GASTEIGER

@<TRIPOS>ATOM
      1 C          -0.7534    3.0486   20.2018 C.ar    1  UNL1        0.1385
      2 C          -0.4838    2.4695   21.5589 C.ar    1  UNL1        0.0384
      3 C           0.5328    1.3785   21.7203 C.ar    1  UNL1        0.0203
      4 C           1.2799    0.8666   20.5245 C.ar    1  UNL1        0.0602
      5 C           1.0103    1.4457   19.1673 C.ar    1  UNL1        0.0204
      6 C          -0.0063    2.5368   19.0060 C.ar    1  UNL1        0.0384
      7 C           1.8954    0.7445   18.1800 C.ar    1  UNL1        0.0234
      8 C           2.7121   -0.2680   18.9269 C.ar    1  UNL1        0.1143
      9 N           2.3316   -0.1926   20.3759 N.ar    1  UNL1       -0.3219
     10 C           2.9921   -1.0981   21.3728 C.3     1  UNL1        0.1276
     11 C           4.0329   -2.0790   20.9207 C.3     1  UNL1        0.1183
     12 N           4.4133   -2.1544   19.4718 N.am    1  UNL1       -0.2703
     13 C           3.7529   -1.2489   18.4748 C.2     1  UNL1        0.2650
     14 O           4.1333   -1.3243   17.0258 O.2     1  UNL1       -0.2683
     15 O          -1.7701    4.1397   20.0404 O.3     1  UNL1       -0.4791
     16 N          -5.1569    4.5122   22.9799 N.3     1  UNL1       -0.2737
     17 C          -5.1529    3.3961   21.9777 C.3     1  UNL1        0.0758
     18 C          -4.0240    3.2719   20.9978 C.3     1  UNL1        0.0609
     19 C          -2.8990    4.2639   21.0202 C.3     1  UNL1        0.1687
     20 C          -2.9030    5.3800   22.0224 C.3     1  UNL1        0.0609
     21 C          -4.0319    5.5041   23.0022 C.3     1  UNL1        0.0758
     22 C          -5.9953    4.8601   25.4142 C.3     1  UNL1        0.0173
     23 C          -6.2858    4.6363   23.9597 C.3     1  UNL1        0.0576
     24 C          -7.7053    4.5366   23.4850 C.3     1  UNL1        0.0173
     25 C           5.4543   -3.1353   19.0196 C.3     1  UNL1        0.1255
     26 C           6.8129   -2.6508   18.6082 C.3     1  UNL1        0.1586
     27 O           6.9950   -1.9591   17.2898 O.3     1  UNL1       -0.3802
     28 H           6.8208   -2.5850   16.5695 H       1  UNL1        0.2105
@<TRIPOS>BOND
     1    22    23    1
     2    23    24    1
     3    23    16    1
     4    16    17    1
     5    17    18    1
     6    18    19    1
     7    19    15    1
     8    15     1    1
     9     1     2   ar
    10     2     3   ar
    11     3     4   ar
    12     4     5   ar
    13     5     6   ar
    14     5     7   ar
    15     7     8   ar
    16     8     9   ar
    17     9    10    1
    18    10    11    1
    19    11    12    1
    20    12    25    1
    21    25    26    1
    22    26    27    1
    23    12    13   am
    24    13    14    2
    25    19    20    1
    26    20    21    1
    27    21    16    1
    28     6     1   ar
    29    13     8    1
    30     9     4   ar
    31    27    28    1
@<TRIPOS>MOLECULE
*****
 28 31 0 0 0
SMALL
GASTEIGER

@<TRIPOS>ATOM
      1 C           1.0199    2.8254   20.5352 C.ar    1  UNL1        0.1385
      2 C           0.0003    2.9097   19.4383 C.ar    1  UNL1        0.0384
      3 C          -1.4349    3.1938   19.7686 C.ar    1  UNL1        0.0203
      4 C          -1.8507    3.3937   21.1959 C.ar    1  UNL1        0.0602
      5 C          -0.8311    3.3094   22.2929 C.ar    1  UNL1        0.0204
      6 C           0.6042    3.0253   21.9625 C.ar    1  UNL1        0.0384
      7 C          -1.5325    3.5491   23.5970 C.ar    1  UNL1        0.0234
      8 C          -2.9855    3.7815   23.3060 C.ar    1  UNL1        0.1143
      9 N          -3.1822    3.6855   21.8220 N.ar    1  UNL1       -0.3219
     10 C          -4.5483    3.8761   21.2327 C.3     1  UNL1        0.1276
     11 C          -5.7177    4.1628   22.1272 C.3     1  UNL1        0.1183
     12 N          -5.5210    4.2589   23.6111 N.am    1  UNL1       -0.2703
     13 C          -4.1549    4.0682   24.2005 C.2     1  UNL1        0.2650
     14 O          -3.9582    4.1643   25.6845 O.2     1  UNL1       -0.2683
     15 O           2.4553    2.5413   20.2049 O.3     1  UNL1       -0.4791
     16 N           3.7445   -1.6500   19.1946 N.3     1  UNL1       -0.2737
     17 C           4.1605   -0.5057   18.3186 C.3     1  UNL1        0.0758
     18 C           3.7307    0.8914   18.6553 C.3     1  UNL1        0.0609
     19 C           2.8850    1.1442   19.8681 C.3     1  UNL1        0.1687
     20 C           2.4690   -0.0002   20.7442 C.3     1  UNL1        0.0609
     21 C           2.8988   -1.3973   20.4074 C.3     1  UNL1        0.0758
     22 C           3.2613   -4.2023   19.1445 C.3     1  UNL1        0.0173
     23 C           4.1742   -3.0471   18.8579 C.3     1  UNL1        0.0576
     24 C           5.5170   -3.2891   18.2346 C.3     1  UNL1        0.0173
     25 C          -6.6905    4.5456   24.5058 C.3     1  UNL1        0.1255
     26 C          -8.0497    4.7730   23.9136 C.3     1  UNL1        0.1586
     27 O          -8.9452    3.6057   23.6212 O.3     1  UNL1       -0.3802
     28 H          -8.5512    3.0637   22.9199 H       1  UNL1        0.2105
@<TRIPOS>BOND
     1    22    23    1
     2    23    24    1
     3    23    16    1
     4    16    17    1
     5    17    18    1
     6    18    19    1
     7    19    15    1
     8    15     1    1
     9     1     2   ar
    10     2     3   ar
    11     3     4   ar
    12     4     5   ar
    13     5     6   ar
    14     5     7   ar
    15     7     8   ar
    16     8     9   ar
    17     9    10    1
    18    10    11    1
    19    11    12    1
    20    12    25    1
    21    25    26    1
    22    26    27    1
    23    12    13   am
    24    13    14    2
    25    19    20    1
    26    20    21    1
    27    21    16    1
    28     6     1   ar
    29    13     8    1
    30     9     4   ar
    31    27    28    1
@<TRIPOS>MOLECULE
*****
 28 31 0 0 0
SMALL
GASTEIGER

@<TRIPOS>ATOM
      1 C           6.2751   -3.2549   22.1215 C.ar    1  UNL1        0.1385
      2 C           5.5293   -2.3939   23.0974 C.ar    1  UNL1        0.0384
      3 C           5.6382   -2.6614   24.5693 C.ar    1  UNL1        0.0203
      4 C           6.4929   -3.7899   25.0653 C.ar    1  UNL1        0.0602
      5 C           7.2387   -4.6509   24.0894 C.ar    1  UNL1        0.0204
      6 C           7.1298   -4.3834   22.6175 C.ar    1  UNL1        0.0384
      7 C           7.9982   -5.6834   24.8685 C.ar    1  UNL1        0.0234
      8 C           7.7218   -5.4606   26.3259 C.ar    1  UNL1        0.1143
      9 N           6.7915   -4.2903   26.4476 N.ar    1  UNL1       -0.3219
     10 C           6.3364   -3.8316   27.8012 C.3     1  UNL1        0.1276
     11 C           6.8117   -4.5431   29.0332 C.3     1  UNL1        0.1183
     12 N           7.7421   -5.7134   28.9115 N.am    1  UNL1       -0.2703
     13 C           8.1971   -6.1721   27.5578 C.2     1  UNL1        0.2650
     14 O           9.1276   -7.3425   27.4361 O.2     1  UNL1       -0.2683
     15 O           6.1663   -2.9874   20.6495 O.3     1  UNL1       -0.4791
     16 N           3.4445    0.2670   19.1492 N.3     1  UNL1       -0.2737
     17 C           4.8895    0.5637   19.4208 C.3     1  UNL1        0.0758
     18 C           5.7968   -0.5211   19.9209 C.3     1  UNL1        0.0609
     19 C           5.2590   -1.9026   20.1494 C.3     1  UNL1        0.1687
     20 C           3.8139   -2.1993   19.8779 C.3     1  UNL1        0.0609
     21 C           2.9067   -1.1145   19.3778 C.3     1  UNL1        0.0758
     22 C           3.0766    2.7316   18.4142 C.3     1  UNL1        0.0173
     23 C           2.5373    1.3518   18.6491 C.3     1  UNL1        0.0576
     24 C           1.0906    1.0568   18.3840 C.3     1  UNL1        0.0173
     25 C           8.2174   -6.4250   30.1435 C.3     1  UNL1        0.1255
     26 C           7.9038   -5.8669   31.5000 C.3     1  UNL1        0.1586
     27 O           6.5799   -6.1572   32.1426 O.3     1  UNL1       -0.3802
     28 H           5.8720   -5.7396   31.6276 H       1  UNL1        0.2105
@<TRIPOS>BOND
     1    22    23    1
     2    23    24    1
     3    23    16    1
     4    16    17    1
     5    17    18    1
     6    18    19    1
     7    19    15    1
     8    15     1    1
     9     1     2   ar
    10     2     3   ar
    11     3     4   ar
    12     4     5   ar
    13     5     6   ar
    14     5     7   ar
    15     7     8   ar
    16     8     9   ar
    17     9    10    1
    18    10    11    1
    19    11    12    1
    20    12    25    1
    21    25    26    1
    22    26    27    1
    23    12    13   am
    24    13    14    2
    25    19    20    1
    26    20    21    1
    27    21    16    1
    28     6     1   ar
    29    13     8    1
    30     9     4   ar
    31    27    28    1
@<TRIPOS>MOLECULE
*****
 28 31 0 0 0
SMALL
GASTEIGER

@<TRIPOS>ATOM
      1 C          -0.0151    2.5684   19.8718 C.ar    1  UNL1        0.1385
      2 C           0.3872    1.8394   18.6241 C.ar    1  UNL1        0.0384
      3 C           1.3263    0.6727   18.7071 C.ar    1  UNL1        0.0203
      4 C           1.8631    0.2351   20.0376 C.ar    1  UNL1        0.0602
      5 C           1.4608    0.9641   21.2852 C.ar    1  UNL1        0.0204
      6 C           0.5217    2.1308   21.2023 C.ar    1  UNL1        0.0384
      7 C           2.1469    0.3085   22.4468 C.ar    1  UNL1        0.0234
      8 C           2.9733   -0.8257   21.9172 C.ar    1  UNL1        0.1143
      9 N           2.7980   -0.8711   20.4282 N.ar    1  UNL1       -0.3219
     10 C           3.5121   -1.9138   19.6203 C.3     1  UNL1        0.1276
     11 C           4.4016   -2.9112   20.3015 C.3     1  UNL1        0.1183
     12 N           4.5770   -2.8658   21.7905 N.am    1  UNL1       -0.2703
     13 C           3.8628   -1.8230   22.5983 C.2     1  UNL1        0.2650
     14 O           4.0382   -1.7777   24.0874 O.2     1  UNL1       -0.2683
     15 O          -0.9543    3.7351   19.7889 O.3     1  UNL1       -0.4791
     16 N          -4.4996    3.9702   22.5503 N.3     1  UNL1       -0.2737
     17 C          -3.1911    4.5809   22.9561 C.3     1  UNL1        0.0758
     18 C          -2.0093    4.5025   22.0356 C.3     1  UNL1        0.0609
     19 C          -2.1361    3.8135   20.7093 C.3     1  UNL1        0.1687
     20 C          -3.4447    3.2028   20.3035 C.3     1  UNL1        0.0609
     21 C          -4.6264    3.2812   21.2240 C.3     1  UNL1        0.0758
     22 C          -5.4827    3.9646   24.9552 C.3     1  UNL1        0.0173
     23 C          -5.6814    4.0486   23.4708 C.3     1  UNL1        0.0576
     24 C          -7.0619    4.2110   22.9068 C.3     1  UNL1        0.0173
     25 C           5.4666   -3.8632   22.4717 C.3     1  UNL1        0.1255
     26 C           6.9262   -3.9220   22.1310 C.3     1  UNL1        0.1586
     27 O           7.4209   -4.9131   21.1197 O.3     1  UNL1       -0.3802
     28 H           7.2975   -5.8125   21.4612 H       1  UNL1        0.2105
@<TRIPOS>BOND
     1    22    23    1
     2    23    24    1
     3    23    16    1
     4    16    17    1
     5    17    18    1
     6    18    19    1
     7    19    15    1
     8    15     1    1
     9     1     2   ar
    10     2     3   ar
    11     3     4   ar
    12     4     5   ar
    13     5     6   ar
    14     5     7   ar
    15     7     8   ar
    16     8     9   ar
    17     9    10    1
    18    10    11    1
    19    11    12    1
    20    12    25    1
    21    25    26    1
    22    26    27    1
    23    12    13   am
    24    13    14    2
    25    19    20    1
    26    20    21    1
    27    21    16    1
    28     6     1   ar
    29    13     8    1
    30     9     4   ar
    31    27    28    1
@<TRIPOS>MOLECULE
*****
 28 31 0 0 0
SMALL
GASTEIGER

@<TRIPOS>ATOM
      1 C           6.0288    0.9115   33.7031 C.ar    1  UNL1        0.1385
      2 C           5.7091    1.5253   32.3723 C.ar    1  UNL1        0.0384
      3 C           5.7020    0.6751   31.1366 C.ar    1  UNL1        0.0203
      4 C           6.0146   -0.7889   31.2317 C.ar    1  UNL1        0.0602
      5 C           6.3344   -1.4027   32.5625 C.ar    1  UNL1        0.0204
      6 C           6.3415   -0.5525   33.7982 C.ar    1  UNL1        0.0384
      7 C           6.6009   -2.8630   32.3474 C.ar    1  UNL1        0.0234
      8 C           6.4460   -3.1518   30.8836 C.ar    1  UNL1        0.1143
      9 N           6.0836   -1.8700   30.1940 N.ar    1  UNL1       -0.3219
     10 C           5.8633   -1.8527   28.7105 C.3     1  UNL1        0.1276
     11 C           6.0053   -3.1173   27.9164 C.3     1  UNL1        0.1183
     12 N           6.3676   -4.3992   28.6060 N.am    1  UNL1       -0.2703
     13 C           6.5880   -4.4164   30.0896 C.2     1  UNL1        0.2650
     14 O           6.9504   -5.6984   30.7792 O.2     1  UNL1       -0.2683
     15 O           6.0359    1.7618   34.9389 O.3     1  UNL1       -0.4791
     16 N           2.6478    1.4755   37.8865 N.3     1  UNL1       -0.2737
     17 C           2.4933    2.3019   36.6443 C.3     1  UNL1        0.0758
     18 C           3.6227    2.3973   35.6617 C.3     1  UNL1        0.0609
     19 C           4.9065    1.6663   35.9214 C.3     1  UNL1        0.1687
     20 C           5.0609    0.8399   37.1637 C.3     1  UNL1        0.0609
     21 C           3.9316    0.7445   38.1462 C.3     1  UNL1        0.0758
     22 C           1.2769    0.0996   39.6121 C.3     1  UNL1        0.0173
     23 C           1.5184    1.3800   38.8690 C.3     1  UNL1        0.0576
     24 C           0.6304    2.5651   39.1085 C.3     1  UNL1        0.0173
     25 C           6.5097   -5.6639   27.8119 C.3     1  UNL1        0.1255
     26 C           7.0399   -5.6134   26.4096 C.3     1  UNL1        0.1586
     27 O           8.5197   -5.5721   26.1684 O.3     1  UNL1       -0.3802
     28 H           8.8795   -4.7378   26.5081 H       1  UNL1        0.2105
@<TRIPOS>BOND
     1    22    23    1
     2    23    24    1
     3    23    16    1
     4    16    17    1
     5    17    18    1
     6    18    19    1
     7    19    15    1
     8    15     1    1
     9     1     2   ar
    10     2     3   ar
    11     3     4   ar
    12     4     5   ar
    13     5     6   ar
    14     5     7   ar
    15     7     8   ar
    16     8     9   ar
    17     9    10    1
    18    10    11    1
    19    11    12    1
    20    12    25    1
    21    25    26    1
    22    26    27    1
    23    12    13   am
    24    13    14    2
    25    19    20    1
    26    20    21    1
    27    21    16    1
    28     6     1   ar
    29    13     8    1
    30     9     4   ar
    31    27    28    1
