@<TRIPOS>MOLECULE
*****
 37 40 0 0 0
SMALL
GASTEIGER

@<TRIPOS>ATOM
      1 C         -10.7592  -18.6398   23.1420 C.3     1  UNL1        0.0378
      2 C         -10.8643  -19.8864   23.9696 C.3     1  UNL1        0.0075
      3 C          -9.6719  -20.7820   24.1314 C.3     1  UNL1        0.0219
      4 C          -8.3744  -20.4309   23.4655 C.3     1  UNL1        0.0950
      5 N          -8.2694  -19.1843   22.6379 N.am    1  UNL1       -0.2637
      6 C          -6.9719  -18.8333   21.9720 C.2     1  UNL1        0.3077
      7 O          -6.8669  -17.5867   21.1444 O.2     1  UNL1       -0.2522
      8 N          -5.7795  -19.7288   22.1338 N.am    1  UNL1       -0.2681
      9 C          -9.4617  -18.2888   22.4761 C.3     1  UNL1        0.0989
     10 H          -5.8484  -20.5470   22.6770 H       1  UNL1        0.1564
     11 C          -4.4821  -19.3777   21.4679 C.ar    1  UNL1        0.0516
     12 C          -4.3234  -19.5664   19.9882 C.ar    1  UNL1        0.0156
     13 C          -3.0261  -19.2153   19.3223 C.ar    1  UNL1        0.0127
     14 C          -1.8874  -18.6756   20.1359 C.ar    1  UNL1        0.0578
     15 CL         -0.5899  -18.3245   19.4699 Cl      1  UNL1       -0.0822
     16 C          -2.0460  -18.4869   21.6155 C.ar    1  UNL1        0.0127
     17 C          -3.3434  -18.8380   22.2815 C.ar    1  UNL1        0.0156
     18 C         -12.1932  -18.5467   23.5724 C.ar    1  UNL1       -0.0212
     19 C         -13.2678  -18.3061   22.5539 C.ar    1  UNL1       -0.0042
     20 C         -14.7017  -18.2129   22.9843 C.ar    1  UNL1       -0.0003
     21 C         -15.0610  -18.3604   24.4331 C.ar    1  UNL1       -0.0000
     22 C         -13.9864  -18.6010   25.4516 C.ar    1  UNL1       -0.0003
     23 C         -12.5525  -18.6941   25.0212 C.ar    1  UNL1       -0.0042
     24 C         -11.1522  -17.3608   22.4638 C.3     1  UNL1        0.0169
     25 C         -10.7735  -16.0427   23.0713 C.3     1  UNL1        0.1035
     26 O          -9.4508  -16.3675   25.2839 O.2     1  UNL1       -0.2567
     27 C          -9.5003  -15.9159   23.8543 C.2     1  UNL1        0.2843
     28 N          -8.2767  -15.3375   23.2077 N.am    1  UNL1       -0.1730
     29 H          -8.3092  -15.0411   22.2694 H       1  UNL1        0.2541
     30 C          -7.0035  -15.2106   23.9906 C.2     1  UNL1        0.4137
     31 N          -5.6332  -15.5909   23.5132 N.2     1  UNL1        0.0207
     32 N          -4.6600  -15.2965   24.6160 N.pl3   1  UNL1       -0.1085
     33 N          -5.4287  -14.7344   25.7749 N.3     1  UNL1       -0.0823
     34 N          -6.8771  -14.6813   25.3884 N.pl3   1  UNL1       -0.1445
     35 H          -3.6874  -15.4461   24.5846 H       1  UNL1        0.2096
     36 H          -5.0932  -13.7954   25.9900 H       1  UNL1        0.1872
     37 H          -7.6152  -14.3561   25.9530 H       1  UNL1        0.2705
@<TRIPOS>BOND
     1    26    27    2
     2    27    25    1
     3    25    24    1
     4    24     1    1
     5     1    18    1
     6    18    19   ar
     7    19    20   ar
     8    20    21   ar
     9    21    22   ar
    10    22    23   ar
    11     1     2    1
    12     2     3    1
    13     3     4    1
    14     4     5    1
    15     5     6   am
    16     6     7    2
    17     6     8   am
    18     8    11    1
    19    11    12   ar
    20    12    13   ar
    21    13    14   ar
    22    14    15    1
    23    14    16   ar
    24    16    17   ar
    25     5     9    1
    26    27    28   am
    27    28    30    1
    28    30    31    2
    29    31    32    1
    30    32    33    1
    31    33    34    1
    32     9     1    1
    33    34    30    1
    34    23    18   ar
    35    17    11   ar
    36     8    10    1
    37    28    29    1
    38    32    35    1
    39    33    36    1
    40    34    37    1
@<TRIPOS>MOLECULE
*****
 37 40 0 0 0
SMALL
GASTEIGER

@<TRIPOS>ATOM
      1 C         -10.0184  -18.5095   22.8902 C.3     1  UNL1        0.0378
      2 C         -10.7544  -19.2240   21.7959 C.3     1  UNL1        0.0075
      3 C         -10.0065  -19.7428   20.6036 C.3     1  UNL1        0.0219
      4 C          -8.5225  -19.5470   20.5057 C.3     1  UNL1        0.0950
      5 N          -7.7865  -18.8324   21.6000 N.am    1  UNL1       -0.2637
      6 C          -6.3025  -18.6366   21.5021 C.2     1  UNL1        0.3077
      7 O          -5.5666  -17.9220   22.5965 O.2     1  UNL1       -0.2522
      8 N          -5.5547  -19.1554   20.3098 N.am    1  UNL1       -0.2681
      9 C          -8.5344  -18.3137   22.7923 C.3     1  UNL1        0.0989
     10 H          -6.0377  -19.6244   19.5915 H       1  UNL1        0.1564
     11 C          -4.0707  -18.9595   20.2120 C.ar    1  UNL1        0.0516
     12 C          -3.4965  -18.1161   19.1124 C.ar    1  UNL1        0.0156
     13 C          -2.0127  -17.9202   19.0145 C.ar    1  UNL1        0.0127
     14 C          -1.1029  -18.5677   20.0162 C.ar    1  UNL1        0.0578
     15 CL          0.3811  -18.3717   19.9183 Cl      1  UNL1       -0.0822
     16 C          -1.6771  -19.4110   21.1157 C.ar    1  UNL1        0.0127
     17 C          -3.1611  -19.6070   21.2136 C.ar    1  UNL1        0.0156
     18 C         -11.4152  -18.4500   23.4338 C.ar    1  UNL1       -0.0212
     19 C         -11.7019  -18.9438   24.8208 C.ar    1  UNL1       -0.0042
     20 C         -13.0987  -18.8843   25.3643 C.ar    1  UNL1       -0.0003
     21 C         -14.2087  -18.3308   24.5208 C.ar    1  UNL1       -0.0000
     22 C         -13.9220  -17.8370   23.1338 C.ar    1  UNL1       -0.0003
     23 C         -12.5253  -17.8965   22.5903 C.ar    1  UNL1       -0.0042
     24 C          -9.7674  -17.7742   24.1734 C.3     1  UNL1        0.0169
     25 C          -9.0990  -16.4317   24.1501 C.3     1  UNL1        0.1035
     26 O          -7.5711  -15.1006   22.5240 O.2     1  UNL1       -0.2567
     27 C          -8.9008  -15.7150   22.8473 C.2     1  UNL1        0.2843
     28 N         -10.0324  -15.6126   21.8680 N.am    1  UNL1       -0.1730
     29 H         -10.9051  -16.0158   22.0803 H       1  UNL1        0.2541
     30 C          -9.8342  -14.8959   20.5653 C.2     1  UNL1        0.4137
     31 N         -10.5970  -15.1439   19.2976 N.2     1  UNL1        0.0207
     32 N         -10.0727  -14.2066   18.2504 N.pl3   1  UNL1       -0.1085
     33 N          -8.9859  -13.3795   18.8708 N.3     1  UNL1       -0.0823
     34 N          -8.8386  -13.8055   20.3015 N.pl3   1  UNL1       -0.1445
     35 H         -10.3867  -14.1452   17.3193 H       1  UNL1        0.2096
     36 H          -9.2356  -12.3914   18.8278 H       1  UNL1        0.1872
     37 H          -8.2004  -13.4345   20.9529 H       1  UNL1        0.2705
@<TRIPOS>BOND
     1    26    27    2
     2    27    25    1
     3    25    24    1
     4    24     1    1
     5     1    18    1
     6    18    19   ar
     7    19    20   ar
     8    20    21   ar
     9    21    22   ar
    10    22    23   ar
    11     1     2    1
    12     2     3    1
    13     3     4    1
    14     4     5    1
    15     5     6   am
    16     6     7    2
    17     6     8   am
    18     8    11    1
    19    11    12   ar
    20    12    13   ar
    21    13    14   ar
    22    14    15    1
    23    14    16   ar
    24    16    17   ar
    25     5     9    1
    26    27    28   am
    27    28    30    1
    28    30    31    2
    29    31    32    1
    30    32    33    1
    31    33    34    1
    32     9     1    1
    33    34    30    1
    34    23    18   ar
    35    17    11   ar
    36     8    10    1
    37    28    29    1
    38    32    35    1
    39    33    36    1
    40    34    37    1
@<TRIPOS>MOLECULE
*****
 37 40 0 0 0
SMALL
GASTEIGER

@<TRIPOS>ATOM
      1 C          -4.7570  -18.6167   21.2721 C.3     1  UNL1        0.0378
      2 C          -4.8984  -19.1671   19.8840 C.3     1  UNL1        0.0075
      3 C          -6.2548  -19.5279   19.3548 C.3     1  UNL1        0.0219
      4 C          -7.4698  -19.3382   20.2138 C.3     1  UNL1        0.0950
      5 N          -7.3284  -18.7878   21.6019 N.am    1  UNL1       -0.2637
      6 C          -8.5434  -18.5981   22.4609 C.2     1  UNL1        0.3077
      7 O          -8.4018  -18.0477   23.8491 O.2     1  UNL1       -0.2522
      8 N          -9.8997  -18.9589   21.9317 N.am    1  UNL1       -0.2681
      9 C          -5.9720  -18.4270   22.1311 C.3     1  UNL1        0.0989
     10 H          -9.9926  -19.3201   21.0206 H       1  UNL1        0.1564
     11 C         -11.1146  -18.7692   22.7908 C.ar    1  UNL1        0.0516
     12 C         -12.3167  -18.0581   22.2433 C.ar    1  UNL1        0.0156
     13 C         -13.5316  -17.8684   23.1023 C.ar    1  UNL1        0.0127
     14 C         -13.5446  -18.3897   24.5087 C.ar    1  UNL1        0.0578
     15 CL        -14.7596  -18.1999   25.3678 Cl      1  UNL1       -0.0822
     16 C         -12.3426  -19.1007   25.0562 C.ar    1  UNL1        0.0127
     17 C         -11.1276  -19.2905   24.1972 C.ar    1  UNL1        0.0156
     18 C          -3.3195  -18.6150   20.8435 C.ar    1  UNL1       -0.0212
     19 C          -2.2820  -19.2837   21.6958 C.ar    1  UNL1       -0.0042
     20 C          -0.8445  -19.2819   21.2672 C.ar    1  UNL1       -0.0003
     21 C          -0.4446  -18.6115   19.9863 C.ar    1  UNL1       -0.0000
     22 C          -1.4821  -17.9428   19.1341 C.ar    1  UNL1       -0.0003
     23 C          -2.9195  -17.9446   19.5627 C.ar    1  UNL1       -0.0042
     24 C          -4.1163  -18.0657   22.5115 C.3     1  UNL1        0.0169
     25 C          -4.3319  -16.6311   22.8928 C.3     1  UNL1        0.1035
     26 O          -4.2706  -16.6682   25.4899 O.2     1  UNL1       -0.2567
     27 C          -4.9602  -16.2921   24.2121 C.2     1  UNL1        0.2843
     28 N          -6.2781  -15.5769   24.2533 N.am    1  UNL1       -0.1730
     29 H          -6.7307  -15.3301   23.4146 H       1  UNL1        0.2541
     30 C          -6.9064  -15.2378   25.5725 C.2     1  UNL1        0.4137
     31 N          -8.3544  -15.4032   25.9279 N.2     1  UNL1        0.0207
     32 N          -8.5399  -14.9414   27.3430 N.pl3   1  UNL1       -0.1085
     33 N          -7.2067  -14.4907   27.8621 N.3     1  UNL1       -0.0823
     34 N          -6.1972  -14.6739   26.7678 N.pl3   1  UNL1       -0.1445
     35 H          -9.3879  -14.9353   27.8432 H       1  UNL1        0.2096
     36 H          -6.9437  -15.0507   28.6730 H       1  UNL1        0.1872
     37 H          -5.2376  -14.4613   26.8243 H       1  UNL1        0.2705
@<TRIPOS>BOND
     1    26    27    2
     2    27    25    1
     3    25    24    1
     4    24     1    1
     5     1    18    1
     6    18    19   ar
     7    19    20   ar
     8    20    21   ar
     9    21    22   ar
    10    22    23   ar
    11     1     2    1
    12     2     3    1
    13     3     4    1
    14     4     5    1
    15     5     6   am
    16     6     7    2
    17     6     8   am
    18     8    11    1
    19    11    12   ar
    20    12    13   ar
    21    13    14   ar
    22    14    15    1
    23    14    16   ar
    24    16    17   ar
    25     5     9    1
    26    27    28   am
    27    28    30    1
    28    30    31    2
    29    31    32    1
    30    32    33    1
    31    33    34    1
    32     9     1    1
    33    34    30    1
    34    23    18   ar
    35    17    11   ar
    36     8    10    1
    37    28    29    1
    38    32    35    1
    39    33    36    1
    40    34    37    1
@<TRIPOS>MOLECULE
*****
 37 40 0 0 0
SMALL
GASTEIGER

@<TRIPOS>ATOM
      1 C         -10.4028  -18.4292   22.4734 C.3     1  UNL1        0.0378
      2 C         -11.0687  -19.2705   21.4252 C.3     1  UNL1        0.0075
      3 C         -10.2548  -19.8740   20.3192 C.3     1  UNL1        0.0219
      4 C          -8.7748  -19.6361   20.2614 C.3     1  UNL1        0.0950
      5 N          -8.1089  -18.7948   21.3095 N.am    1  UNL1       -0.2637
      6 C          -6.6290  -18.5570   21.2517 C.2     1  UNL1        0.3077
      7 O          -5.9631  -17.7156   22.3000 O.2     1  UNL1       -0.2522
      8 N          -5.8151  -19.1604   20.1457 N.am    1  UNL1       -0.2681
      9 C          -8.9229  -18.1914   22.4156 C.3     1  UNL1        0.0989
     10 H          -6.2521  -19.7126   19.4577 H       1  UNL1        0.1564
     11 C          -4.3352  -18.9225   20.0879 C.ar    1  UNL1        0.0516
     12 C          -3.7551  -18.0665   19.0012 C.ar    1  UNL1        0.0156
     13 C          -2.2753  -17.8286   18.9434 C.ar    1  UNL1        0.0127
     14 C          -1.3754  -18.4466   19.9723 C.ar    1  UNL1        0.0578
     15 CL          0.1045  -18.2086   19.9144 Cl      1  UNL1       -0.0822
     16 C          -1.9555  -19.3025   21.0589 C.ar    1  UNL1        0.0127
     17 C          -3.4354  -19.5405   21.1168 C.ar    1  UNL1        0.0156
     18 C         -11.8227  -18.3674   22.9532 C.ar    1  UNL1       -0.0212
     19 C         -12.1406  -18.6437   24.3928 C.ar    1  UNL1       -0.0042
     20 C         -13.5605  -18.5819   24.8725 C.ar    1  UNL1       -0.0003
     21 C         -14.6624  -18.2438   23.9126 C.ar    1  UNL1       -0.0000
     22 C         -14.3445  -17.9676   22.4729 C.ar    1  UNL1       -0.0003
     23 C         -12.9246  -18.0294   21.9932 C.ar    1  UNL1       -0.0042
     24 C         -10.2300  -17.5665   23.6883 C.3     1  UNL1        0.0169
     25 C          -9.5207  -18.1044   24.8955 C.3     1  UNL1        0.1035
     26 O          -8.7830  -17.2467   27.2343 O.2     1  UNL1       -0.2567
     27 C          -8.6789  -17.1933   25.7389 C.2     1  UNL1        0.2843
     28 N          -7.7332  -16.2288   25.0868 N.am    1  UNL1       -0.1730
     29 H          -7.6650  -16.1937   24.1052 H       1  UNL1        0.2541
     30 C          -6.8914  -15.3176   25.9301 C.2     1  UNL1        0.4137
     31 N          -5.5300  -14.7964   25.5764 N.2     1  UNL1        0.0207
     32 N          -5.0605  -13.9244   26.7029 N.pl3   1  UNL1       -0.1085
     33 N          -6.1316  -13.9067   27.7529 N.3     1  UNL1       -0.0823
     34 N          -7.2632  -14.7678   27.2753 N.pl3   1  UNL1       -0.1445
     35 H          -4.2003  -13.4474   26.7457 H       1  UNL1        0.2096
     36 H          -6.4600  -12.9517   27.8963 H       1  UNL1        0.1872
     37 H          -8.1025  -14.9415   27.7596 H       1  UNL1        0.2705
@<TRIPOS>BOND
     1    26    27    2
     2    27    25    1
     3    25    24    1
     4    24     1    1
     5     1    18    1
     6    18    19   ar
     7    19    20   ar
     8    20    21   ar
     9    21    22   ar
    10    22    23   ar
    11     1     2    1
    12     2     3    1
    13     3     4    1
    14     4     5    1
    15     5     6   am
    16     6     7    2
    17     6     8   am
    18     8    11    1
    19    11    12   ar
    20    12    13   ar
    21    13    14   ar
    22    14    15    1
    23    14    16   ar
    24    16    17   ar
    25     5     9    1
    26    27    28   am
    27    28    30    1
    28    30    31    2
    29    31    32    1
    30    32    33    1
    31    33    34    1
    32     9     1    1
    33    34    30    1
    34    23    18   ar
    35    17    11   ar
    36     8    10    1
    37    28    29    1
    38    32    35    1
    39    33    36    1
    40    34    37    1
@<TRIPOS>MOLECULE
*****
 37 40 0 0 0
SMALL
GASTEIGER

@<TRIPOS>ATOM
      1 C           4.2894   -2.4224   22.4177 C.3     1  UNL1        0.0378
      2 C           3.4737   -1.4122   21.6667 C.3     1  UNL1        0.0075
      3 C           2.8000   -0.2937   22.4051 C.3     1  UNL1        0.0219
      4 C           2.9420   -0.1855   23.8944 C.3     1  UNL1        0.0950
      5 N           3.7577   -1.1958   24.6454 N.am    1  UNL1       -0.2637
      6 C           3.8997   -1.0876   26.1348 C.2     1  UNL1        0.3077
      7 O           4.7154   -2.0979   26.8857 O.2     1  UNL1       -0.2522
      8 N           3.2260    0.0309   26.8731 N.am    1  UNL1       -0.2681
      9 C           4.4314   -2.3143   23.9071 C.3     1  UNL1        0.0989
     10 H           2.6906    0.6940   26.3802 H       1  UNL1        0.1564
     11 C           3.3680    0.1390   28.3624 C.ar    1  UNL1        0.0516
     12 C           2.4082   -0.5824   29.2617 C.ar    1  UNL1        0.0156
     13 C           2.5502   -0.4744   30.7509 C.ar    1  UNL1        0.0127
     14 C           3.6519    0.3551   31.3411 C.ar    1  UNL1        0.0578
     15 CL          3.7939    0.4631   32.8305 Cl      1  UNL1       -0.0822
     16 C           4.6117    1.0764   30.4420 C.ar    1  UNL1        0.0127
     17 C           4.4697    0.9684   28.9526 C.ar    1  UNL1        0.0156
     18 C           4.4500   -2.9445   21.0206 C.ar    1  UNL1       -0.0212
     19 C           5.1690   -2.1237   19.9914 C.ar    1  UNL1       -0.0042
     20 C           5.3296   -2.6458   18.5944 C.ar    1  UNL1       -0.0003
     21 C           4.7713   -3.9886   18.2267 C.ar    1  UNL1       -0.0000
     22 C           4.0524   -4.8093   19.2560 C.ar    1  UNL1       -0.0003
     23 C           3.8918   -4.2873   20.6529 C.ar    1  UNL1       -0.0042
     24 C           5.1609   -3.6140   22.6835 C.3     1  UNL1        0.0169
     25 C           6.3802   -3.4740   23.5457 C.3     1  UNL1        0.1035
     26 O           7.5606   -5.7683   23.8511 O.2     1  UNL1       -0.2567
     27 C           6.8075   -4.6075   24.4304 C.2     1  UNL1        0.2843
     28 N           6.4815   -4.5803   25.8943 N.am    1  UNL1       -0.1730
     29 H           5.9873   -3.8184   26.2745 H       1  UNL1        0.2541
     30 C           6.9088   -5.7138   26.7790 C.2     1  UNL1        0.4137
     31 N           7.4225   -5.5911   28.1830 N.2     1  UNL1        0.0207
     32 N           7.7285   -6.9705   28.6867 N.pl3   1  UNL1       -0.1085
     33 N           7.4039   -7.9456   27.5941 N.3     1  UNL1       -0.0823
     34 N           6.8973   -7.1689   26.4150 N.pl3   1  UNL1       -0.1445
     35 H           8.0805   -7.1962   29.5780 H       1  UNL1        0.2096
     36 H           6.6870   -8.5972   27.9133 H       1  UNL1        0.1872
     37 H           6.6081   -7.5476   25.5536 H       1  UNL1        0.2705
@<TRIPOS>BOND
     1    26    27    2
     2    27    25    1
     3    25    24    1
     4    24     1    1
     5     1    18    1
     6    18    19   ar
     7    19    20   ar
     8    20    21   ar
     9    21    22   ar
    10    22    23   ar
    11     1     2    1
    12     2     3    1
    13     3     4    1
    14     4     5    1
    15     5     6   am
    16     6     7    2
    17     6     8   am
    18     8    11    1
    19    11    12   ar
    20    12    13   ar
    21    13    14   ar
    22    14    15    1
    23    14    16   ar
    24    16    17   ar
    25     5     9    1
    26    27    28   am
    27    28    30    1
    28    30    31    2
    29    31    32    1
    30    32    33    1
    31    33    34    1
    32     9     1    1
    33    34    30    1
    34    23    18   ar
    35    17    11   ar
    36     8    10    1
    37    28    29    1
    38    32    35    1
    39    33    36    1
    40    34    37    1
@<TRIPOS>MOLECULE
*****
 37 40 0 0 0
SMALL
GASTEIGER

@<TRIPOS>ATOM
      1 C           3.4845   -1.5165   21.4893 C.3     1  UNL1        0.0378
      2 C           4.3245   -2.4220   22.3403 C.3     1  UNL1        0.0075
      3 C           4.4031   -2.1993   23.8216 C.3     1  UNL1        0.0219
      4 C           3.6415   -1.0711   24.4519 C.3     1  UNL1        0.0950
      5 N           2.8014   -0.1656   23.6009 N.am    1  UNL1       -0.2637
      6 C           2.0398    0.9626   24.2311 C.2     1  UNL1        0.3077
      7 O           1.1997    1.8680   23.3800 O.2     1  UNL1       -0.2522
      8 N           2.1183    1.1852   25.7124 N.am    1  UNL1       -0.2681
      9 C           2.7228   -0.3883   22.1196 C.3     1  UNL1        0.0989
     10 H           2.6697    0.5909   26.2710 H       1  UNL1        0.1564
     11 C           1.3567    2.3134   26.3426 C.ar    1  UNL1        0.0516
     12 C           1.9926    3.6655   26.4756 C.ar    1  UNL1        0.0156
     13 C           1.2311    4.7937   27.1057 C.ar    1  UNL1        0.0127
     14 C          -0.1664    4.5699   27.6029 C.ar    1  UNL1        0.0578
     15 CL         -0.9279    5.6982   28.2330 Cl      1  UNL1       -0.0822
     16 C          -0.8023    3.2179   27.4698 C.ar    1  UNL1        0.0127
     17 C          -0.0407    2.0897   26.8397 C.ar    1  UNL1        0.0156
     18 C           4.0187   -2.4418   20.4365 C.ar    1  UNL1       -0.0212
     19 C           4.8925   -1.9067   19.3410 C.ar    1  UNL1       -0.0042
     20 C           5.4267   -2.8320   18.2882 C.ar    1  UNL1       -0.0003
     21 C           5.0871   -4.2924   18.3309 C.ar    1  UNL1       -0.0000
     22 C           4.2133   -4.8275   19.4264 C.ar    1  UNL1       -0.0003
     23 C           3.6791   -3.9022   20.4791 C.ar    1  UNL1       -0.0042
     24 C           2.8299   -0.9323   20.2726 C.3     1  UNL1        0.0169
     25 C           1.3340   -0.9067   20.1650 C.3     1  UNL1        0.1035
     26 O           0.7395    0.8382   18.3342 O.2     1  UNL1       -0.2567
     27 C           0.6334    0.3529   19.7495 C.2     1  UNL1        0.2843
     28 N          -0.1733    1.1272   20.7494 N.am    1  UNL1       -0.1730
     29 H          -0.2429    0.8086   21.6784 H       1  UNL1        0.2541
     30 C          -0.8739    2.3868   20.3339 C.2     1  UNL1        0.4137
     31 N          -2.2338    2.8296   20.7865 N.2     1  UNL1        0.0207
     32 N          -2.5380    4.1412   20.1252 N.pl3   1  UNL1       -0.1085
     33 N          -1.3661    4.5089   19.2640 N.3     1  UNL1       -0.0823
     34 N          -0.3377    3.4246   19.3930 N.pl3   1  UNL1       -0.1445
     35 H          -3.3620    4.6681   20.2368 H       1  UNL1        0.2096
     36 H          -0.9733    5.3973   19.5750 H       1  UNL1        0.1872
     37 H           0.5359    3.3986   18.9397 H       1  UNL1        0.2705
@<TRIPOS>BOND
     1    26    27    2
     2    27    25    1
     3    25    24    1
     4    24     1    1
     5     1    18    1
     6    18    19   ar
     7    19    20   ar
     8    20    21   ar
     9    21    22   ar
    10    22    23   ar
    11     1     2    1
    12     2     3    1
    13     3     4    1
    14     4     5    1
    15     5     6   am
    16     6     7    2
    17     6     8   am
    18     8    11    1
    19    11    12   ar
    20    12    13   ar
    21    13    14   ar
    22    14    15    1
    23    14    16   ar
    24    16    17   ar
    25     5     9    1
    26    27    28   am
    27    28    30    1
    28    30    31    2
    29    31    32    1
    30    32    33    1
    31    33    34    1
    32     9     1    1
    33    34    30    1
    34    23    18   ar
    35    17    11   ar
    36     8    10    1
    37    28    29    1
    38    32    35    1
    39    33    36    1
    40    34    37    1
@<TRIPOS>MOLECULE
*****
 37 40 0 0 0
SMALL
GASTEIGER

@<TRIPOS>ATOM
      1 C           3.7099   -1.5714   21.5782 C.3     1  UNL1        0.0378
      2 C           3.9910   -2.3979   20.3585 C.3     1  UNL1        0.0075
      3 C           4.9141   -3.5768   20.4478 C.3     1  UNL1        0.0219
      4 C           5.5561   -3.9292   21.7569 C.3     1  UNL1        0.0950
      5 N           5.2750   -3.1027   22.9766 N.am    1  UNL1       -0.2637
      6 C           5.9170   -3.4551   24.2857 C.2     1  UNL1        0.3077
      7 O           5.6358   -2.6285   25.5054 O.2     1  UNL1       -0.2522
      8 N           6.8401   -4.6340   24.3750 N.am    1  UNL1       -0.2681
      9 C           4.3519   -1.9238   22.8873 C.3     1  UNL1        0.0989
     10 H           7.0246   -5.1765   23.5744 H       1  UNL1        0.1564
     11 C           7.4820   -4.9863   25.6841 C.ar    1  UNL1        0.0516
     12 C           8.8207   -4.4115   26.0417 C.ar    1  UNL1        0.0156
     13 C           9.4626   -4.7638   27.3507 C.ar    1  UNL1        0.0127
     14 C           8.7661   -5.6909   28.3022 C.ar    1  UNL1        0.0578
     15 CL          9.4081   -6.0432   29.6114 Cl      1  UNL1       -0.0822
     16 C           7.4275   -6.2657   27.9447 C.ar    1  UNL1        0.0127
     17 C           6.7855   -5.9134   26.6356 C.ar    1  UNL1        0.0156
     18 C           2.8687   -0.8442   20.5713 C.ar    1  UNL1       -0.0212
     19 C           1.4332   -0.5346   20.8767 C.ar    1  UNL1       -0.0042
     20 C           0.5922    0.1926   19.8698 C.ar    1  UNL1       -0.0003
     21 C           1.1867    0.6102   18.5575 C.ar    1  UNL1       -0.0000
     22 C           2.6222    0.3006   18.2521 C.ar    1  UNL1       -0.0003
     23 C           3.4633   -0.4266   19.2590 C.ar    1  UNL1       -0.0042
     24 C           3.1366   -0.4923   22.4483 C.3     1  UNL1        0.0169
     25 C           3.5471   -0.3921   23.8875 C.3     1  UNL1        0.1035
     26 O           2.9536    0.1380   26.3607 O.2     1  UNL1       -0.2567
     27 C           2.5836    0.1392   24.9070 C.2     1  UNL1        0.2843
     28 N           1.2502    0.6717   24.4728 N.am    1  UNL1       -0.1730
     29 H           1.0075    0.6725   23.5187 H       1  UNL1        0.2541
     30 C           0.2867    1.2030   25.4924 C.2     1  UNL1        0.4137
     31 N          -0.6395    2.3683   25.3070 N.2     1  UNL1        0.0207
     32 N          -1.4183    2.5478   26.5763 N.pl3   1  UNL1       -0.1085
     33 N          -0.9735    1.4935   27.5461 N.3     1  UNL1       -0.0823
     34 N           0.0803    0.6623   26.8762 N.pl3   1  UNL1       -0.1445
     35 H          -2.1016    3.2366   26.7435 H       1  UNL1        0.2096
     36 H          -1.7655    0.9052   27.8052 H       1  UNL1        0.1872
     37 H           0.5534   -0.1035   27.2748 H       1  UNL1        0.2705
@<TRIPOS>BOND
     1    26    27    2
     2    27    25    1
     3    25    24    1
     4    24     1    1
     5     1    18    1
     6    18    19   ar
     7    19    20   ar
     8    20    21   ar
     9    21    22   ar
    10    22    23   ar
    11     1     2    1
    12     2     3    1
    13     3     4    1
    14     4     5    1
    15     5     6   am
    16     6     7    2
    17     6     8   am
    18     8    11    1
    19    11    12   ar
    20    12    13   ar
    21    13    14   ar
    22    14    15    1
    23    14    16   ar
    24    16    17   ar
    25     5     9    1
    26    27    28   am
    27    28    30    1
    28    30    31    2
    29    31    32    1
    30    32    33    1
    31    33    34    1
    32     9     1    1
    33    34    30    1
    34    23    18   ar
    35    17    11   ar
    36     8    10    1
    37    28    29    1
    38    32    35    1
    39    33    36    1
    40    34    37    1
@<TRIPOS>MOLECULE
*****
 37 40 0 0 0
SMALL
GASTEIGER

@<TRIPOS>ATOM
      1 C          -1.4095    3.3286   24.1234 C.3     1  UNL1        0.0378
      2 C          -2.3699    4.0036   23.1896 C.3     1  UNL1        0.0075
      3 C          -2.2609    3.7792   21.7105 C.3     1  UNL1        0.0219
      4 C          -1.1913    2.8799   21.1652 C.3     1  UNL1        0.0950
      5 N          -0.2309    2.2049   22.0989 N.am    1  UNL1       -0.2637
      6 C           0.8386    1.3056   21.5536 C.2     1  UNL1        0.3077
      7 O           1.7990    0.6307   22.4875 O.2     1  UNL1       -0.2522
      8 N           0.9476    1.0812   20.0745 N.am    1  UNL1       -0.2681
      9 C          -0.3399    2.4293   23.5780 C.3     1  UNL1        0.0989
     10 H           0.3173    1.5242   19.4616 H       1  UNL1        0.1564
     11 C           2.0172    0.1819   19.5293 C.ar    1  UNL1        0.0516
     12 C           2.1832   -1.2043   20.0782 C.ar    1  UNL1        0.0156
     13 C           3.2526   -2.1036   19.5330 C.ar    1  UNL1        0.0127
     14 C           4.1562   -1.6170   18.4389 C.ar    1  UNL1        0.0578
     15 CL          5.2257   -2.5164   17.8937 Cl      1  UNL1       -0.0822
     16 C           3.9901   -0.2309   17.8901 C.ar    1  UNL1        0.0127
     17 C           2.9206    0.6685   18.4353 C.ar    1  UNL1        0.0156
     18 C          -2.2464    4.0848   25.1123 C.ar    1  UNL1       -0.0212
     19 C          -3.7050    3.7671   25.2584 C.ar    1  UNL1       -0.0042
     20 C          -4.5418    4.5232   26.2473 C.ar    1  UNL1       -0.0003
     21 C          -3.9200    5.5970   27.0901 C.ar    1  UNL1       -0.0000
     22 C          -2.4613    5.9146   26.9441 C.ar    1  UNL1       -0.0003
     23 C          -1.6245    5.1585   25.9552 C.ar    1  UNL1       -0.0042
     24 C          -0.7396    2.9163   25.4006 C.3     1  UNL1        0.0169
     25 C          -0.2694    1.5031   25.5786 C.3     1  UNL1        0.1035
     26 O          -0.6553    1.2100   28.1311 O.2     1  UNL1       -0.2567
     27 C           0.2127    1.0364   26.9202 C.2     1  UNL1        0.2843
     28 N           1.5629    0.3961   27.0507 N.am    1  UNL1       -0.1730
     29 H           2.1326    0.2822   26.2559 H       1  UNL1        0.2541
     30 C           2.0451   -0.0706   28.3923 C.2     1  UNL1        0.4137
     31 N           3.4774   -0.2415   28.8038 N.2     1  UNL1        0.0207
     32 N           3.4971   -0.7249   30.2237 N.pl3   1  UNL1       -0.1085
     33 N           2.0770   -0.8527   30.6896 N.3     1  UNL1       -0.0823
     34 N           1.1796   -0.4484   29.5577 N.pl3   1  UNL1       -0.1445
     35 H           4.3009   -0.9234   30.7563 H       1  UNL1        0.2096
     36 H           1.9194   -0.2422   31.4913 H       1  UNL1        0.1872
     37 H           0.1954   -0.4335   29.5764 H       1  UNL1        0.2705
@<TRIPOS>BOND
     1    26    27    2
     2    27    25    1
     3    25    24    1
     4    24     1    1
     5     1    18    1
     6    18    19   ar
     7    19    20   ar
     8    20    21   ar
     9    21    22   ar
    10    22    23   ar
    11     1     2    1
    12     2     3    1
    13     3     4    1
    14     4     5    1
    15     5     6   am
    16     6     7    2
    17     6     8   am
    18     8    11    1
    19    11    12   ar
    20    12    13   ar
    21    13    14   ar
    22    14    15    1
    23    14    16   ar
    24    16    17   ar
    25     5     9    1
    26    27    28   am
    27    28    30    1
    28    30    31    2
    29    31    32    1
    30    32    33    1
    31    33    34    1
    32     9     1    1
    33    34    30    1
    34    23    18   ar
    35    17    11   ar
    36     8    10    1
    37    28    29    1
    38    32    35    1
    39    33    36    1
    40    34    37    1
@<TRIPOS>MOLECULE
*****
 37 40 0 0 0
SMALL
GASTEIGER

@<TRIPOS>ATOM
      1 C           3.0634   -0.8610   21.0232 C.3     1  UNL1        0.0378
      2 C           2.1623   -0.9156   19.8253 C.3     1  UNL1        0.0075
      3 C           0.8966   -0.1110   19.8015 C.3     1  UNL1        0.0219
      4 C           0.5320    0.7482   20.9758 C.3     1  UNL1        0.0950
      5 N           1.4331    0.8028   22.1737 N.am    1  UNL1       -0.2637
      6 C           1.0684    1.6620   23.3480 C.2     1  UNL1        0.3077
      7 O           1.9696    1.7165   24.5459 O.2     1  UNL1       -0.2522
      8 N          -0.1973    2.4666   23.3243 N.am    1  UNL1       -0.2681
      9 C           2.6988   -0.0018   22.1974 C.3     1  UNL1        0.0989
     10 H          -0.7887    2.4308   22.5380 H       1  UNL1        0.1564
     11 C          -0.5619    3.3257   24.4985 C.ar    1  UNL1        0.0516
     12 C          -1.3302    2.7404   25.6463 C.ar    1  UNL1        0.0156
     13 C          -1.6947    3.5994   26.8205 C.ar    1  UNL1        0.0127
     14 C          -1.2911    5.0439   26.8472 C.ar    1  UNL1        0.0578
     15 CL         -1.6557    5.9030   28.0215 Cl      1  UNL1       -0.0822
     16 C          -0.5228    5.6292   25.6995 C.ar    1  UNL1        0.0127
     17 C          -0.1582    4.7701   24.5252 C.ar    1  UNL1        0.0156
     18 C           3.8340   -1.8165   20.1610 C.ar    1  UNL1       -0.0212
     19 C           5.2368   -1.4870   19.7447 C.ar    1  UNL1       -0.0042
     20 C           6.0073   -2.4425   18.8826 C.ar    1  UNL1       -0.0003
     21 C           5.3749   -3.7275   18.4366 C.ar    1  UNL1       -0.0000
     22 C           3.9720   -4.0570   18.8529 C.ar    1  UNL1       -0.0003
     23 C           3.2016   -3.1015   19.7150 C.ar    1  UNL1       -0.0042
     24 C           4.2321   -1.1383   21.9217 C.3     1  UNL1        0.0169
     25 C           4.0588   -2.0092   23.1305 C.3     1  UNL1        0.1035
     26 O           5.2181   -4.1742   22.2826 O.2     1  UNL1       -0.2567
     27 C           4.9908   -3.1609   23.3650 C.2     1  UNL1        0.2843
     28 N           5.6954   -3.2993   24.6820 N.am    1  UNL1       -0.1730
     29 H           5.5461   -2.6343   25.3924 H       1  UNL1        0.2541
     30 C           6.6274   -4.4510   24.9165 C.2     1  UNL1        0.4137
     31 N           6.7930   -5.2031   26.2038 N.2     1  UNL1        0.0207
     32 N           7.8254   -6.2698   25.9878 N.pl3   1  UNL1       -0.1085
     33 N           8.2977   -6.1769   24.5671 N.3     1  UNL1       -0.0823
     34 N           7.5572   -5.0528   23.9050 N.pl3   1  UNL1       -0.1445
     35 H           8.1380   -6.9171   26.6604 H       1  UNL1        0.2096
     36 H           8.1051   -7.0523   24.0804 H       1  UNL1        0.1872
     37 H           7.6630   -4.7613   22.9707 H       1  UNL1        0.2705
@<TRIPOS>BOND
     1    26    27    2
     2    27    25    1
     3    25    24    1
     4    24     1    1
     5     1    18    1
     6    18    19   ar
     7    19    20   ar
     8    20    21   ar
     9    21    22   ar
    10    22    23   ar
    11     1     2    1
    12     2     3    1
    13     3     4    1
    14     4     5    1
    15     5     6   am
    16     6     7    2
    17     6     8   am
    18     8    11    1
    19    11    12   ar
    20    12    13   ar
    21    13    14   ar
    22    14    15    1
    23    14    16   ar
    24    16    17   ar
    25     5     9    1
    26    27    28   am
    27    28    30    1
    28    30    31    2
    29    31    32    1
    30    32    33    1
    31    33    34    1
    32     9     1    1
    33    34    30    1
    34    23    18   ar
    35    17    11   ar
    36     8    10    1
    37    28    29    1
    38    32    35    1
    39    33    36    1
    40    34    37    1
