@<TRIPOS>MOLECULE
*****
 18 19 0 0 0
SMALL
GASTEIGER

@<TRIPOS>ATOM
      1 O          -8.8070  -20.8116   18.1434 O.2     1  UNL1       -0.2866
      2 C          -8.6449  -19.8711   19.3006 C.2     1  UNL1        0.1957
      3 C          -9.8529  -19.3735   20.0376 C.2     1  UNL1        0.0420
      4 C          -9.8693  -19.3740   21.5375 C.2     1  UNL1        0.0033
      5 C         -11.0774  -18.8764   22.2745 C.ar    1  UNL1        0.0001
      6 C         -11.2312  -19.1588   23.7396 C.ar    1  UNL1        0.0000
      7 C         -12.4391  -18.6612   24.4765 C.ar    1  UNL1        0.0000
      8 C         -13.4933  -17.8811   23.7483 C.ar    1  UNL1        0.0000
      9 C         -13.3395  -17.5987   22.2832 C.ar    1  UNL1        0.0000
     10 C         -12.1315  -18.0963   21.5463 C.ar    1  UNL1        0.0000
     11 C          -7.2747  -19.4283   19.7209 C.2     1  UNL1        0.0420
     12 C          -6.4529  -20.2933   20.6299 C.2     1  UNL1        0.0033
     13 C          -5.0828  -19.8505   21.0502 C.ar    1  UNL1        0.0001
     14 C          -3.8839  -20.2544   20.2441 C.ar    1  UNL1        0.0000
     15 C          -2.5138  -19.8117   20.6644 C.ar    1  UNL1        0.0000
     16 C          -2.3425  -18.9650   21.8906 C.ar    1  UNL1        0.0000
     17 C          -3.5413  -18.5611   22.6967 C.ar    1  UNL1        0.0000
     18 C          -4.9115  -19.0039   22.2764 C.ar    1  UNL1        0.0000
@<TRIPOS>BOND
     1     1     2    2
     2     2     3    1
     3     3     4    2
     4     4     5    1
     5     5     6   ar
     6     6     7   ar
     7     7     8   ar
     8     8     9   ar
     9     9    10   ar
    10     2    11    1
    11    11    12    2
    12    12    13    1
    13    13    14   ar
    14    14    15   ar
    15    15    16   ar
    16    16    17   ar
    17    17    18   ar
    18    10     5   ar
    19    18    13   ar
@<TRIPOS>MOLECULE
*****
 18 19 0 0 0
SMALL
GASTEIGER

@<TRIPOS>ATOM
      1 O          -8.6786  -20.7714   18.2179 O.2     1  UNL1       -0.2866
      2 C          -8.5443  -19.8195   19.3693 C.2     1  UNL1        0.1957
      3 C          -7.1855  -19.3597   19.8077 C.2     1  UNL1        0.0420
      4 C          -6.3428  -20.2387   20.6836 C.2     1  UNL1        0.0033
      5 C          -4.9839  -19.7790   21.1220 C.ar    1  UNL1        0.0001
      6 C          -4.8420  -18.9078   22.3348 C.ar    1  UNL1        0.0000
      7 C          -3.4832  -18.4481   22.7732 C.ar    1  UNL1        0.0000
      8 C          -2.2662  -18.8596   21.9988 C.ar    1  UNL1        0.0000
      9 C          -2.4081  -19.7308   20.7861 C.ar    1  UNL1        0.0000
     10 C          -3.7669  -20.1905   20.3477 C.ar    1  UNL1        0.0000
     11 C          -9.7688  -19.3273   20.0823 C.2     1  UNL1        0.0420
     12 C          -9.8304  -19.3652   21.5805 C.2     1  UNL1        0.0033
     13 C         -11.0549  -18.8730   22.2935 C.ar    1  UNL1        0.0001
     14 C         -11.1997  -19.0880   23.7710 C.ar    1  UNL1        0.0000
     15 C         -12.4241  -18.5958   24.4840 C.ar    1  UNL1        0.0000
     16 C         -13.5038  -17.8887   23.7196 C.ar    1  UNL1        0.0000
     17 C         -13.3590  -17.6738   22.2422 C.ar    1  UNL1        0.0000
     18 C         -12.1346  -18.1659   21.5291 C.ar    1  UNL1        0.0000
@<TRIPOS>BOND
     1     1     2    2
     2     2     3    1
     3     3     4    2
     4     4     5    1
     5     5     6   ar
     6     6     7   ar
     7     7     8   ar
     8     8     9   ar
     9     9    10   ar
    10     2    11    1
    11    11    12    2
    12    12    13    1
    13    13    14   ar
    14    14    15   ar
    15    15    16   ar
    16    16    17   ar
    17    17    18   ar
    18    10     5   ar
    19    18    13   ar
@<TRIPOS>MOLECULE
*****
 18 19 0 0 0
SMALL
GASTEIGER

@<TRIPOS>ATOM
      1 O          -5.7519  -14.7689   25.7575 O.2     1  UNL1       -0.2866
      2 C          -6.3073  -15.5873   24.6298 C.2     1  UNL1        0.1957
      3 C          -7.7685  -15.9248   24.5969 C.2     1  UNL1        0.0420
      4 C          -8.2886  -16.9082   23.5906 C.2     1  UNL1        0.0033
      5 C          -9.7498  -17.2458   23.5577 C.ar    1  UNL1        0.0001
      6 C         -10.6796  -16.4678   22.6745 C.ar    1  UNL1        0.0000
      7 C         -12.1407  -16.8054   22.6416 C.ar    1  UNL1        0.0000
      8 C         -12.6721  -17.9210   23.4920 C.ar    1  UNL1        0.0000
      9 C         -11.7423  -18.6989   24.3753 C.ar    1  UNL1        0.0000
     10 C         -10.2812  -18.3613   24.4081 C.ar    1  UNL1        0.0000
     11 C          -5.4017  -16.0681   23.5350 C.2     1  UNL1        0.0420
     12 C          -4.2753  -17.0067   23.8516 C.2     1  UNL1        0.0033
     13 C          -3.3695  -17.4875   22.7568 C.ar    1  UNL1        0.0001
     14 C          -3.3813  -18.9324   22.3540 C.ar    1  UNL1        0.0000
     15 C          -2.4757  -19.4133   21.2593 C.ar    1  UNL1        0.0000
     16 C          -1.5582  -18.4493   20.5673 C.ar    1  UNL1        0.0000
     17 C          -1.5464  -17.0044   20.9701 C.ar    1  UNL1        0.0000
     18 C          -2.4520  -16.5235   22.0648 C.ar    1  UNL1        0.0000
@<TRIPOS>BOND
     1     1     2    2
     2     2     3    1
     3     3     4    2
     4     4     5    1
     5     5     6   ar
     6     6     7   ar
     7     7     8   ar
     8     8     9   ar
     9     9    10   ar
    10     2    11    1
    11    11    12    2
    12    12    13    1
    13    13    14   ar
    14    14    15   ar
    15    15    16   ar
    16    16    17   ar
    17    17    18   ar
    18    10     5   ar
    19    18    13   ar
@<TRIPOS>MOLECULE
*****
 18 19 0 0 0
SMALL
GASTEIGER

@<TRIPOS>ATOM
      1 O          -6.6133  -21.2468   22.4464 O.2     1  UNL1       -0.2866
      2 C          -6.7936  -19.7747   22.2216 C.2     1  UNL1        0.1957
      3 C          -5.6670  -18.9581   21.6611 C.2     1  UNL1        0.0420
      4 C          -4.2481  -19.3017   22.0053 C.2     1  UNL1        0.0033
      5 C          -3.1215  -18.4851   21.4448 C.ar    1  UNL1        0.0001
      6 C          -2.7714  -17.1649   22.0648 C.ar    1  UNL1        0.0000
      7 C          -1.6449  -16.3484   21.5043 C.ar    1  UNL1        0.0000
      8 C          -0.8685  -16.8520   20.3238 C.ar    1  UNL1        0.0000
      9 C          -1.2186  -18.1722   19.7038 C.ar    1  UNL1        0.0000
     10 C          -2.3452  -18.9888   20.2642 C.ar    1  UNL1        0.0000
     11 C          -8.1003  -19.1193   22.5573 C.2     1  UNL1        0.0420
     12 C          -9.3767  -19.6493   21.9745 C.2     1  UNL1        0.0033
     13 C         -10.6836  -18.9938   22.3101 C.ar    1  UNL1        0.0001
     14 C         -11.5174  -18.3832   21.2230 C.ar    1  UNL1        0.0000
     15 C         -12.8242  -17.7277   21.5586 C.ar    1  UNL1        0.0000
     16 C         -13.2971  -17.6830   22.9814 C.ar    1  UNL1        0.0000
     17 C         -12.4633  -18.2936   24.0685 C.ar    1  UNL1        0.0000
     18 C         -11.1566  -18.9490   23.7329 C.ar    1  UNL1        0.0000
@<TRIPOS>BOND
     1     1     2    2
     2     2     3    1
     3     3     4    2
     4     4     5    1
     5     5     6   ar
     6     6     7   ar
     7     7     8   ar
     8     8     9   ar
     9     9    10   ar
    10     2    11    1
    11    11    12    2
    12    12    13    1
    13    13    14   ar
    14    14    15   ar
    15    15    16   ar
    16    16    17   ar
    17    17    18   ar
    18    10     5   ar
    19    18    13   ar
@<TRIPOS>MOLECULE
*****
 18 19 0 0 0
SMALL
GASTEIGER

@<TRIPOS>ATOM
      1 O          -8.5456  -21.1929   24.0745 O.2     1  UNL1       -0.2866
      2 C          -8.1780  -20.3819   22.8673 C.2     1  UNL1        0.1957
      3 C          -6.7619  -20.3729   22.3726 C.2     1  UNL1        0.0420
      4 C          -6.1346  -19.0887   21.9174 C.2     1  UNL1        0.0033
      5 C          -4.7185  -19.0797   21.4227 C.ar    1  UNL1        0.0001
      6 C          -3.5837  -18.9829   22.3988 C.ar    1  UNL1        0.0000
      7 C          -2.1677  -18.9739   21.9042 C.ar    1  UNL1        0.0000
      8 C          -1.8865  -19.0617   20.4334 C.ar    1  UNL1        0.0000
      9 C          -3.0212  -19.1585   19.4573 C.ar    1  UNL1        0.0000
     10 C          -4.4373  -19.1675   19.9519 C.ar    1  UNL1        0.0000
     11 C          -9.2264  -19.5801   22.1547 C.2     1  UNL1        0.0420
     12 C          -9.6142  -18.2260   22.6704 C.2     1  UNL1        0.0033
     13 C         -10.6627  -17.4240   21.9579 C.ar    1  UNL1        0.0001
     14 C         -10.6499  -17.3349   20.4606 C.ar    1  UNL1        0.0000
     15 C         -11.6983  -16.5330   19.7480 C.ar    1  UNL1        0.0000
     16 C         -12.7595  -15.8202   20.5328 C.ar    1  UNL1        0.0000
     17 C         -12.7722  -15.9093   22.0301 C.ar    1  UNL1        0.0000
     18 C         -11.7238  -16.7112   22.7426 C.ar    1  UNL1        0.0000
@<TRIPOS>BOND
     1     1     2    2
     2     2     3    1
     3     3     4    2
     4     4     5    1
     5     5     6   ar
     6     6     7   ar
     7     7     8   ar
     8     8     9   ar
     9     9    10   ar
    10     2    11    1
    11    11    12    2
    12    12    13    1
    13    13    14   ar
    14    14    15   ar
    15    15    16   ar
    16    16    17   ar
    17    17    18   ar
    18    10     5   ar
    19    18    13   ar
@<TRIPOS>MOLECULE
*****
 18 19 0 0 0
SMALL
GASTEIGER

@<TRIPOS>ATOM
      1 O           6.8574   -2.4102   17.4185 O.2     1  UNL1       -0.2866
      2 C           6.0112   -2.3068   18.6527 C.2     1  UNL1        0.1957
      3 C           4.9365   -1.2639   18.7401 C.2     1  UNL1        0.0420
      4 C           3.5734   -1.6322   19.2461 C.2     1  UNL1        0.0033
      5 C           2.4987   -0.5893   19.3334 C.ar    1  UNL1        0.0001
      6 C           2.5290    0.5975   18.4166 C.ar    1  UNL1        0.0000
      7 C           1.4544    1.6403   18.5040 C.ar    1  UNL1        0.0000
      8 C           0.3495    1.4964   19.5083 C.ar    1  UNL1        0.0000
      9 C           0.3193    0.3096   20.4251 C.ar    1  UNL1        0.0000
     10 C           1.3939   -0.7332   20.3377 C.ar    1  UNL1        0.0000
     11 C           6.2396   -3.2463   19.7995 C.2     1  UNL1        0.0420
     12 C           7.6028   -3.3614   20.4146 C.2     1  UNL1        0.0033
     13 C           7.8312   -4.3010   21.5615 C.ar    1  UNL1        0.0001
     14 C           8.7829   -5.4506   21.4110 C.ar    1  UNL1        0.0000
     15 C           9.0114   -6.3901   22.5578 C.ar    1  UNL1        0.0000
     16 C           8.2882   -6.1799   23.8550 C.ar    1  UNL1        0.0000
     17 C           7.3365   -5.0303   24.0054 C.ar    1  UNL1        0.0000
     18 C           7.1080   -4.0908   22.8587 C.ar    1  UNL1        0.0000
@<TRIPOS>BOND
     1     1     2    2
     2     2     3    1
     3     3     4    2
     4     4     5    1
     5     5     6   ar
     6     6     7   ar
     7     7     8   ar
     8     8     9   ar
     9     9    10   ar
    10     2    11    1
    11    11    12    2
    12    12    13    1
    13    13    14   ar
    14    14    15   ar
    15    15    16   ar
    16    16    17   ar
    17    17    18   ar
    18    10     5   ar
    19    18    13   ar
@<TRIPOS>MOLECULE
*****
 18 19 0 0 0
SMALL
GASTEIGER

@<TRIPOS>ATOM
      1 O           8.4502   -2.4171   19.0103 O.2     1  UNL1       -0.2866
      2 C           7.3928   -2.8548   19.9801 C.2     1  UNL1        0.1957
      3 C           6.1111   -2.0835   20.0909 C.2     1  UNL1        0.0420
      4 C           5.1294   -2.0934   18.9569 C.2     1  UNL1        0.0033
      5 C           3.8476   -1.3220   19.0676 C.ar    1  UNL1        0.0001
      6 C           2.8396   -1.6890   20.1160 C.ar    1  UNL1        0.0000
      7 C           1.5580   -0.9176   20.2267 C.ar    1  UNL1        0.0000
      8 C           1.2843    0.2207   19.2891 C.ar    1  UNL1        0.0000
      9 C           2.2923    0.5877   18.2407 C.ar    1  UNL1        0.0000
     10 C           3.5740   -0.1836   18.1300 C.ar    1  UNL1        0.0000
     11 C           7.6172   -4.0639   20.8391 C.2     1  UNL1        0.0420
     12 C           7.7734   -3.9110   22.3230 C.2     1  UNL1        0.0033
     13 C           7.9978   -5.1200   23.1821 C.ar    1  UNL1        0.0001
     14 C           8.8234   -6.2622   22.6685 C.ar    1  UNL1        0.0000
     15 C           9.0477   -7.4712   23.5275 C.ar    1  UNL1        0.0000
     16 C           8.4466   -7.5380   24.9001 C.ar    1  UNL1        0.0000
     17 C           7.6210   -6.3958   25.4137 C.ar    1  UNL1        0.0000
     18 C           7.3967   -5.1868   24.5547 C.ar    1  UNL1        0.0000
@<TRIPOS>BOND
     1     1     2    2
     2     2     3    1
     3     3     4    2
     4     4     5    1
     5     5     6   ar
     6     6     7   ar
     7     7     8   ar
     8     8     9   ar
     9     9    10   ar
    10     2    11    1
    11    11    12    2
    12    12    13    1
    13    13    14   ar
    14    14    15   ar
    15    15    16   ar
    16    16    17   ar
    17    17    18   ar
    18    10     5   ar
    19    18    13   ar
@<TRIPOS>MOLECULE
*****
 18 19 0 0 0
SMALL
GASTEIGER

@<TRIPOS>ATOM
      1 O           8.2786   -2.5011   19.0617 O.2     1  UNL1       -0.2866
      2 C           7.2881   -2.9955   20.0738 C.2     1  UNL1        0.1957
      3 C           7.6265   -4.1708   20.9424 C.2     1  UNL1        0.0420
      4 C           7.5540   -4.0456   22.4353 C.2     1  UNL1        0.0033
      5 C           7.8924   -5.2209   23.3039 C.ar    1  UNL1        0.0001
      6 C           8.7724   -6.3149   22.7760 C.ar    1  UNL1        0.0000
      7 C           9.1107   -7.4900   23.6446 C.ar    1  UNL1        0.0000
      8 C           8.5691   -7.5712   25.0410 C.ar    1  UNL1        0.0000
      9 C           7.6891   -6.4772   25.5689 C.ar    1  UNL1        0.0000
     10 C           7.3507   -5.3020   24.7003 C.ar    1  UNL1        0.0000
     11 C           5.9592   -2.3148   20.2174 C.2     1  UNL1        0.0420
     12 C           5.2007   -1.8856   18.9966 C.2     1  UNL1        0.0033
     13 C           3.8717   -1.2048   19.1401 C.ar    1  UNL1        0.0001
     14 C           2.9907   -1.5194   20.3126 C.ar    1  UNL1        0.0000
     15 C           1.6618   -0.8387   20.4562 C.ar    1  UNL1        0.0000
     16 C           1.2140    0.1566   19.4272 C.ar    1  UNL1        0.0000
     17 C           2.0950    0.4711   18.2547 C.ar    1  UNL1        0.0000
     18 C           3.4239   -0.2096   18.1111 C.ar    1  UNL1        0.0000
@<TRIPOS>BOND
     1     1     2    2
     2     2     3    1
     3     3     4    2
     4     4     5    1
     5     5     6   ar
     6     6     7   ar
     7     7     8   ar
     8     8     9   ar
     9     9    10   ar
    10     2    11    1
    11    11    12    2
    12    12    13    1
    13    13    14   ar
    14    14    15   ar
    15    15    16   ar
    16    16    17   ar
    17    17    18   ar
    18    10     5   ar
    19    18    13   ar
@<TRIPOS>MOLECULE
*****
 18 19 0 0 0
SMALL
GASTEIGER

@<TRIPOS>ATOM
      1 O           0.5067    1.6994   18.4233 O.2     1  UNL1       -0.2866
      2 C           0.9396    0.8303   19.5667 C.2     1  UNL1        0.1957
      3 C           2.0221   -0.1886   19.3664 C.2     1  UNL1        0.0420
      4 C           2.4183   -1.0938   20.4949 C.2     1  UNL1        0.0033
      5 C           3.5008   -2.1127   20.2945 C.ar    1  UNL1        0.0001
      6 C           4.2887   -2.6108   21.4697 C.ar    1  UNL1        0.0000
      7 C           5.3712   -3.6297   21.2693 C.ar    1  UNL1        0.0000
      8 C           5.6657   -4.1504   19.8937 C.ar    1  UNL1        0.0000
      9 C           4.8778   -3.6523   18.7186 C.ar    1  UNL1        0.0000
     10 C           3.7953   -2.6334   18.9190 C.ar    1  UNL1        0.0000
     11 C           0.2900    0.9801   20.9104 C.2     1  UNL1        0.0420
     12 C           0.8547    1.9419   21.9134 C.2     1  UNL1        0.0033
     13 C           0.2051    2.0917   23.2571 C.ar    1  UNL1        0.0001
     14 C          -0.7947    3.1856   23.4890 C.ar    1  UNL1        0.0000
     15 C          -1.4443    3.3354   24.8327 C.ar    1  UNL1        0.0000
     16 C          -1.0940    2.3914   25.9445 C.ar    1  UNL1        0.0000
     17 C          -0.0942    1.2976   25.7126 C.ar    1  UNL1        0.0000
     18 C           0.5554    1.1477   24.3689 C.ar    1  UNL1        0.0000
@<TRIPOS>BOND
     1     1     2    2
     2     2     3    1
     3     3     4    2
     4     4     5    1
     5     5     6   ar
     6     6     7   ar
     7     7     8   ar
     8     8     9   ar
     9     9    10   ar
    10     2    11    1
    11    11    12    2
    12    12    13    1
    13    13    14   ar
    14    14    15   ar
    15    15    16   ar
    16    16    17   ar
    17    17    18   ar
    18    10     5   ar
    19    18    13   ar
