@<TRIPOS>MOLECULE
*****
 32 35 0 0 0
SMALL
GASTEIGER

@<TRIPOS>ATOM
      1 N          -6.3431  -18.8400   22.3445 N.am    1  UNL1       -0.2683
      2 C          -7.7187  -18.4433   21.8966 C.2     1  UNL1        0.3047
      3 O          -8.1786  -18.7712   20.5070 O.2     1  UNL1       -0.2525
      4 N          -8.6342  -17.7186   22.8382 N.am    1  UNL1       -0.2863
      5 H          -6.0413  -18.6248   23.2566 H       1  UNL1        0.1564
      6 H          -8.3323  -17.5034   23.7502 H       1  UNL1        0.1512
      7 C          -1.8814  -15.8077   21.9598 C.3     1  UNL1        0.0521
      8 C          -2.3102  -17.1093   21.3497 C.ar    1  UNL1        0.0594
      9 C          -3.6545  -17.6862   21.6813 C.ar    1  UNL1        0.0160
     10 C          -4.0832  -18.9877   21.0713 C.ar    1  UNL1        0.0162
     11 C          -5.4276  -19.5647   21.4029 C.ar    1  UNL1        0.0516
     12 C          -5.8564  -20.8662   20.7929 C.ar    1  UNL1        0.0147
     13 C          -4.9408  -21.5908   19.8513 C.ar    1  UNL1        0.0013
     14 C          -3.5965  -21.0139   19.5197 C.ar    1  UNL1        0.0016
     15 C          -3.1677  -19.7124   20.1297 C.ar    1  UNL1        0.0204
     16 C          -1.8234  -19.1354   19.7981 C.ar    1  UNL1        0.0984
     17 N          -1.3946  -17.8339   20.4081 N.ar    1  UNL1       -0.2481
     18 C         -10.0096  -17.3219   22.3902 C.3     1  UNL1        0.1021
     19 C         -10.1906  -16.5546   21.1141 C.3     1  UNL1        0.0700
     20 C         -11.5661  -16.1579   20.6662 C.3     1  UNL1        0.2000
     21 O         -12.7606  -16.5285   21.4943 O.3     1  UNL1       -0.4771
     22 C         -12.5796  -17.2959   22.7704 C.ar    1  UNL1        0.1368
     23 C         -13.7741  -17.6665   23.5985 C.ar    1  UNL1        0.0480
     24 C         -13.5931  -18.4339   24.8746 C.ar    1  UNL1        0.0607
     25 CL        -14.7877  -18.8045   25.7027 Cl      1  UNL1       -0.0821
     26 C         -12.2177  -18.8306   25.3225 C.ar    1  UNL1        0.0113
     27 C         -11.0232  -18.4599   24.4944 C.ar    1  UNL1        0.0012
     28 C         -11.2042  -17.6926   23.2183 C.ar    1  UNL1        0.0297
     29 C         -12.6584  -15.5603   19.8297 C.3     1  UNL1        0.2357
     30 F         -12.3736  -15.1272   18.4221 F       1  UNL1       -0.2303
     31 C         -10.7510  -15.5797   19.5475 C.3     1  UNL1        0.2357
     32 F          -9.8785  -14.3850   19.7952 F       1  UNL1       -0.2303
@<TRIPOS>BOND
     1     7     8    1
     2     8     9   ar
     3     9    10   ar
     4    10    11   ar
     5    11     1    1
     6     1     2   am
     7     2     3    2
     8     2     4   am
     9    18     4    1
    10    18    19    1
    11    19    20    1
    12    20    29    1
    13    29    30    1
    14    20    31    1
    15    31    32    1
    16    20    21    1
    17    21    22    1
    18    22    23   ar
    19    23    24   ar
    20    24    25    1
    21    24    26   ar
    22    26    27   ar
    23    27    28   ar
    24    11    12   ar
    25    12    13   ar
    26    13    14   ar
    27    14    15   ar
    28    15    16   ar
    29    16    17   ar
    30    17     8   ar
    31    15    10   ar
    32    28    18    1
    33    28    22   ar
    34     1     5    1
    35     4     6    1
@<TRIPOS>MOLECULE
*****
 32 35 0 0 0
SMALL
GASTEIGER

@<TRIPOS>ATOM
      1 N           1.7897    2.2639   20.1280 N.am    1  UNL1       -0.2683
      2 C           0.3164    2.2991   20.4080 C.2     1  UNL1        0.3047
      3 O          -0.5050    1.0526   20.2606 O.2     1  UNL1       -0.2525
      4 N          -0.3354    3.5807   20.8353 N.am    1  UNL1       -0.2863
      5 H           2.3288    3.0820   20.2247 H       1  UNL1        0.1564
      6 H           0.2037    4.3987   20.9320 H       1  UNL1        0.1512
      7 C           2.9838   -0.4020   24.6796 C.3     1  UNL1        0.0521
      8 C           3.1741   -0.6967   23.2212 C.ar    1  UNL1        0.0594
      9 C           2.7127    0.2902   22.1901 C.ar    1  UNL1        0.0160
     10 C           2.9030   -0.0046   20.7317 C.ar    1  UNL1        0.0162
     11 C           2.4415    0.9824   19.7006 C.ar    1  UNL1        0.0516
     12 C           2.6319    0.6876   18.2423 C.ar    1  UNL1        0.0147
     13 C           3.2837   -0.5940   17.8149 C.ar    1  UNL1        0.0013
     14 C           3.7452   -1.5809   18.8460 C.ar    1  UNL1        0.0016
     15 C           3.5548   -1.2861   20.3044 C.ar    1  UNL1        0.0204
     16 C           4.0163   -2.2730   21.3355 C.ar    1  UNL1        0.0984
     17 N           3.8260   -1.9782   22.7938 N.ar    1  UNL1       -0.2481
     18 C          -1.8086    3.6158   21.1153 C.3     1  UNL1        0.1021
     19 C          -2.7878    3.6330   19.9791 C.3     1  UNL1        0.0700
     20 C          -4.2610    3.6681   20.2591 C.3     1  UNL1        0.2000
     21 O          -4.7551    3.6860   21.6753 O.3     1  UNL1       -0.4771
     22 C          -3.7759    3.6687   22.8115 C.ar    1  UNL1        0.1368
     23 C          -4.2699    3.6866   24.2277 C.ar    1  UNL1        0.0480
     24 C          -3.2907    3.6694   25.3639 C.ar    1  UNL1        0.0607
     25 CL         -3.7848    3.6872   26.7801 Cl      1  UNL1       -0.0821
     26 C          -1.8175    3.6343   25.0839 C.ar    1  UNL1        0.0113
     27 C          -1.3235    3.6164   23.6677 C.ar    1  UNL1        0.0012
     28 C          -2.3027    3.6336   22.5315 C.ar    1  UNL1        0.0297
     29 C          -5.7412    3.7010   20.0182 C.3     1  UNL1        0.2357
     30 F          -6.6735    4.0851   21.1286 F       1  UNL1       -0.2303
     31 C          -4.2811    3.6617   18.7592 C.3     1  UNL1        0.2357
     32 F          -5.5053    3.1972   18.0275 F       1  UNL1       -0.2303
@<TRIPOS>BOND
     1     7     8    1
     2     8     9   ar
     3     9    10   ar
     4    10    11   ar
     5    11     1    1
     6     1     2   am
     7     2     3    2
     8     2     4   am
     9    18     4    1
    10    18    19    1
    11    19    20    1
    12    20    29    1
    13    29    30    1
    14    20    31    1
    15    31    32    1
    16    20    21    1
    17    21    22    1
    18    22    23   ar
    19    23    24   ar
    20    24    25    1
    21    24    26   ar
    22    26    27   ar
    23    27    28   ar
    24    11    12   ar
    25    12    13   ar
    26    13    14   ar
    27    14    15   ar
    28    15    16   ar
    29    16    17   ar
    30    17     8   ar
    31    15    10   ar
    32    28    18    1
    33    28    22   ar
    34     1     5    1
    35     4     6    1
@<TRIPOS>MOLECULE
*****
 32 35 0 0 0
SMALL
GASTEIGER

@<TRIPOS>ATOM
      1 N          -0.8345    3.7619   20.6964 N.am    1  UNL1       -0.2683
      2 C          -0.0487    2.4881   20.5960 C.2     1  UNL1        0.3047
      3 O          -0.7620    1.1708   20.5200 O.2     1  UNL1       -0.2525
      4 N           1.4505    2.5317   20.5717 N.am    1  UNL1       -0.2863
      5 H          -0.3663    4.6265   20.7463 H       1  UNL1        0.1564
      6 H           1.9187    3.3963   20.6215 H       1  UNL1        0.1512
      7 C          -2.2430    3.5039   25.9117 C.3     1  UNL1        0.0521
      8 C          -3.0153    3.5357   24.6262 C.ar    1  UNL1        0.0594
      9 C          -2.2884    3.6111   23.3163 C.ar    1  UNL1        0.0160
     10 C          -3.0606    3.6429   22.0307 C.ar    1  UNL1        0.0162
     11 C          -2.3337    3.7183   20.7208 C.ar    1  UNL1        0.0516
     12 C          -3.1059    3.7501   19.4352 C.ar    1  UNL1        0.0147
     13 C          -4.6051    3.7065   19.4596 C.ar    1  UNL1        0.0013
     14 C          -5.3320    3.6311   20.7695 C.ar    1  UNL1        0.0016
     15 C          -4.5598    3.5993   22.0551 C.ar    1  UNL1        0.0204
     16 C          -5.2867    3.5239   23.3650 C.ar    1  UNL1        0.0984
     17 N          -4.5144    3.4921   24.6505 N.ar    1  UNL1       -0.2481
     18 C           2.2362    1.2579   20.4713 C.3     1  UNL1        0.1021
     19 C           2.5934    0.7011   19.1251 C.3     1  UNL1        0.0700
     20 C           3.3792   -0.5727   19.0248 C.3     1  UNL1        0.2000
     21 O           3.8078   -1.2896   20.2706 O.3     1  UNL1       -0.4771
     22 C           3.4506   -0.7328   21.6169 C.ar    1  UNL1        0.1368
     23 C           3.8791   -1.4497   22.8628 C.ar    1  UNL1        0.0480
     24 C           3.5219   -0.8929   24.2090 C.ar    1  UNL1        0.0607
     25 CL          3.9505   -1.6100   25.4550 Cl      1  UNL1       -0.0821
     26 C           2.7362    0.3808   24.3094 C.ar    1  UNL1        0.0113
     27 C           2.3076    1.0977   23.0635 C.ar    1  UNL1        0.0012
     28 C           2.6648    0.5409   21.7172 C.ar    1  UNL1        0.0297
     29 C           4.1035   -1.7379   18.4185 C.3     1  UNL1        0.2357
     30 F           3.6780   -3.1384   18.7463 F       1  UNL1       -0.2303
     31 C           3.2022   -0.2604   17.5683 C.3     1  UNL1        0.2357
     32 F           3.9095   -1.0841   16.5333 F       1  UNL1       -0.2303
@<TRIPOS>BOND
     1     7     8    1
     2     8     9   ar
     3     9    10   ar
     4    10    11   ar
     5    11     1    1
     6     1     2   am
     7     2     3    2
     8     2     4   am
     9    18     4    1
    10    18    19    1
    11    19    20    1
    12    20    29    1
    13    29    30    1
    14    20    31    1
    15    31    32    1
    16    20    21    1
    17    21    22    1
    18    22    23   ar
    19    23    24   ar
    20    24    25    1
    21    24    26   ar
    22    26    27   ar
    23    27    28   ar
    24    11    12   ar
    25    12    13   ar
    26    13    14   ar
    27    14    15   ar
    28    15    16   ar
    29    16    17   ar
    30    17     8   ar
    31    15    10   ar
    32    28    18    1
    33    28    22   ar
    34     1     5    1
    35     4     6    1
@<TRIPOS>MOLECULE
*****
 32 35 0 0 0
SMALL
GASTEIGER

@<TRIPOS>ATOM
      1 N           5.9147   -1.5123   23.1103 N.am    1  UNL1       -0.2683
      2 C           6.0985   -2.7790   23.8925 C.2     1  UNL1        0.3047
      3 O           5.3988   -4.0342   23.4625 O.2     1  UNL1       -0.2525
      4 N           6.9819   -2.7905   25.1047 N.am    1  UNL1       -0.2863
      5 H           6.3739   -0.6885   23.3925 H       1  UNL1        0.1564
      6 H           7.4412   -1.9666   25.3869 H       1  UNL1        0.1512
      7 C           9.1420   -2.5342   18.8925 C.3     1  UNL1        0.0521
      8 C           7.6726   -2.2702   19.0378 C.ar    1  UNL1        0.0594
      9 C           7.0866   -2.0175   20.3953 C.ar    1  UNL1        0.0160
     10 C           5.6172   -1.7535   20.5406 C.ar    1  UNL1        0.0162
     11 C           5.0313   -1.5008   21.8982 C.ar    1  UNL1        0.0516
     12 C           3.5619   -1.2368   22.0435 C.ar    1  UNL1        0.0147
     13 C           2.6784   -1.2253   20.8312 C.ar    1  UNL1        0.0013
     14 C           3.2644   -1.4779   19.4738 C.ar    1  UNL1        0.0016
     15 C           4.7338   -1.7420   19.3285 C.ar    1  UNL1        0.0204
     16 C           5.3198   -1.9946   17.9710 C.ar    1  UNL1        0.0984
     17 N           6.7892   -2.2587   17.8257 N.ar    1  UNL1       -0.2481
     18 C           7.1657   -4.0571   25.8868 C.3     1  UNL1        0.1021
     19 C           7.5183   -5.3315   25.1786 C.3     1  UNL1        0.0700
     20 C           7.7020   -6.5982   25.9608 C.3     1  UNL1        0.2000
     21 O           7.5331   -6.5904   27.4512 O.3     1  UNL1       -0.4771
     22 C           7.1805   -5.3161   28.1595 C.ar    1  UNL1        0.1368
     23 C           7.0116   -5.3084   29.6499 C.ar    1  UNL1        0.0480
     24 C           6.6590   -4.0340   30.3582 C.ar    1  UNL1        0.0607
     25 CL          6.4901   -4.0263   31.8486 Cl      1  UNL1       -0.0821
     26 C           6.4752   -2.7673   29.5760 C.ar    1  UNL1        0.0113
     27 C           6.6441   -2.7751   28.0856 C.ar    1  UNL1        0.0012
     28 C           6.9968   -4.0494   27.3773 C.ar    1  UNL1        0.0297
     29 C           7.9776   -8.0416   26.2616 C.3     1  UNL1        0.2357
     30 F           8.3379   -8.4618   27.6557 F       1  UNL1       -0.2303
     31 C           7.9666   -7.1072   24.5748 C.3     1  UNL1        0.2357
     32 F           9.0888   -8.0725   24.3319 F       1  UNL1       -0.2303
@<TRIPOS>BOND
     1     7     8    1
     2     8     9   ar
     3     9    10   ar
     4    10    11   ar
     5    11     1    1
     6     1     2   am
     7     2     3    2
     8     2     4   am
     9    18     4    1
    10    18    19    1
    11    19    20    1
    12    20    29    1
    13    29    30    1
    14    20    31    1
    15    31    32    1
    16    20    21    1
    17    21    22    1
    18    22    23   ar
    19    23    24   ar
    20    24    25    1
    21    24    26   ar
    22    26    27   ar
    23    27    28   ar
    24    11    12   ar
    25    12    13   ar
    26    13    14   ar
    27    14    15   ar
    28    15    16   ar
    29    16    17   ar
    30    17     8   ar
    31    15    10   ar
    32    28    18    1
    33    28    22   ar
    34     1     5    1
    35     4     6    1
@<TRIPOS>MOLECULE
*****
 32 35 0 0 0
SMALL
GASTEIGER

@<TRIPOS>ATOM
      1 N           8.0704   -3.4239   23.0548 N.am    1  UNL1       -0.2683
      2 C           6.8485   -2.9908   22.3001 C.2     1  UNL1        0.3047
      3 O           5.7417   -3.9692   22.0399 O.2     1  UNL1       -0.2525
      4 N           6.7334   -1.5793   21.8056 N.am    1  UNL1       -0.2863
      5 H           8.7968   -2.7817   23.2256 H       1  UNL1        0.1564
      6 H           7.4598   -0.9372   21.9764 H       1  UNL1        0.1512
      7 C           6.1550   -3.4022   28.1125 C.3     1  UNL1        0.0521
      8 C           6.7201   -4.4662   27.2189 C.ar    1  UNL1        0.0594
      9 C           7.1702   -4.1188   25.8309 C.ar    1  UNL1        0.0160
     10 C           7.7354   -5.1828   24.9373 C.ar    1  UNL1        0.0162
     11 C           8.1854   -4.8353   23.5492 C.ar    1  UNL1        0.0516
     12 C           8.7506   -5.8993   22.6556 C.ar    1  UNL1        0.0147
     13 C           8.8657   -7.3108   23.1502 C.ar    1  UNL1        0.0013
     14 C           8.4156   -7.6583   24.5382 C.ar    1  UNL1        0.0016
     15 C           7.8504   -6.5942   25.4318 C.ar    1  UNL1        0.0204
     16 C           7.4004   -6.9417   26.8198 C.ar    1  UNL1        0.0984
     17 N           6.8352   -5.8777   27.7134 N.ar    1  UNL1       -0.2481
     18 C           5.5115   -1.1463   21.0510 C.3     1  UNL1        0.1021
     19 C           5.4779   -1.2503   19.5550 C.3     1  UNL1        0.0700
     20 C           4.2560   -0.8172   18.8003 C.3     1  UNL1        0.2000
     21 O           3.0677   -0.2803   19.5417 O.3     1  UNL1       -0.4771
     22 C           3.1013   -0.1764   21.0377 C.ar    1  UNL1        0.1368
     23 C           1.9131    0.3606   21.7791 C.ar    1  UNL1        0.0480
     24 C           1.9467    0.4645   23.2751 C.ar    1  UNL1        0.0607
     25 CL          0.7583    1.0015   24.0164 Cl      1  UNL1       -0.0821
     26 C           3.1685    0.0315   24.0297 C.ar    1  UNL1        0.0113
     27 C           4.3568   -0.5054   23.2884 C.ar    1  UNL1        0.0012
     28 C           4.3232   -0.6094   21.7923 C.ar    1  UNL1        0.0297
     29 C           3.3359   -0.5369   17.6493 C.3     1  UNL1        0.2357
     30 F           3.7364   -0.9255   16.2570 F       1  UNL1       -0.2303
     31 C           5.1247   -1.2569   17.6592 C.3     1  UNL1        0.2357
     32 F           6.0022   -2.4645   17.8066 F       1  UNL1       -0.2303
@<TRIPOS>BOND
     1     7     8    1
     2     8     9   ar
     3     9    10   ar
     4    10    11   ar
     5    11     1    1
     6     1     2   am
     7     2     3    2
     8     2     4   am
     9    18     4    1
    10    18    19    1
    11    19    20    1
    12    20    29    1
    13    29    30    1
    14    20    31    1
    15    31    32    1
    16    20    21    1
    17    21    22    1
    18    22    23   ar
    19    23    24   ar
    20    24    25    1
    21    24    26   ar
    22    26    27   ar
    23    27    28   ar
    24    11    12   ar
    25    12    13   ar
    26    13    14   ar
    27    14    15   ar
    28    15    16   ar
    29    16    17   ar
    30    17     8   ar
    31    15    10   ar
    32    28    18    1
    33    28    22   ar
    34     1     5    1
    35     4     6    1
@<TRIPOS>MOLECULE
*****
 32 35 0 0 0
SMALL
GASTEIGER

@<TRIPOS>ATOM
      1 N          -0.7315    3.7092   20.9473 N.am    1  UNL1       -0.2683
      2 C           0.0484    2.4378   20.7872 C.2     1  UNL1        0.3047
      3 O          -0.6601    1.1158   20.8067 O.2     1  UNL1       -0.2525
      4 N           1.5367    2.4885   20.6077 N.am    1  UNL1       -0.2863
      5 H          -0.2665    4.5768   20.9346 H       1  UNL1        0.1564
      6 H           2.0017    3.3562   20.5949 H       1  UNL1        0.1512
      7 C          -2.8528    4.0230   15.9823 C.3     1  UNL1        0.0521
      8 C          -3.4387    3.9065   17.3582 C.ar    1  UNL1        0.0594
      9 C          -2.5364    3.8407   18.5546 C.ar    1  UNL1        0.0160
     10 C          -3.1223    3.7242   19.9305 C.ar    1  UNL1        0.0162
     11 C          -2.2199    3.6585   21.1269 C.ar    1  UNL1        0.0516
     12 C          -2.8058    3.5420   22.5028 C.ar    1  UNL1        0.0147
     13 C          -4.2942    3.4913   22.6823 C.ar    1  UNL1        0.0013
     14 C          -5.1966    3.5571   21.4859 C.ar    1  UNL1        0.0016
     15 C          -4.6106    3.6735   20.1100 C.ar    1  UNL1        0.0204
     16 C          -5.5130    3.7393   18.9136 C.ar    1  UNL1        0.0984
     17 N          -4.9271    3.8558   17.5377 N.ar    1  UNL1       -0.2481
     18 C           2.3165    1.2173   20.4476 C.3     1  UNL1        0.1021
     19 C           2.6305    0.6976   19.0760 C.3     1  UNL1        0.0700
     20 C           3.4103   -0.5737   18.9159 C.3     1  UNL1        0.2000
     21 O           3.8762   -1.3254   20.1275 O.3     1  UNL1       -0.4771
     22 C           3.5622   -0.8058   21.4991 C.ar    1  UNL1        0.1368
     23 C           4.0280   -1.5575   22.7107 C.ar    1  UNL1        0.0480
     24 C           3.7141   -1.0379   24.0823 C.ar    1  UNL1        0.0607
     25 CL          4.1800   -1.7896   25.2939 Cl      1  UNL1       -0.0821
     26 C           2.9342    0.2334   24.2424 C.ar    1  UNL1        0.0113
     27 C           2.4684    0.9851   23.0309 C.ar    1  UNL1        0.0012
     28 C           2.7824    0.4655   21.6592 C.ar    1  UNL1        0.0297
     29 C           4.1131   -1.7225   18.2553 C.3     1  UNL1        0.2357
     30 F           3.7255   -3.1320   18.5910 F       1  UNL1       -0.2303
     31 C           3.1886   -0.2210   17.4749 C.3     1  UNL1        0.2357
     32 F           3.8360   -1.0362   16.3950 F       1  UNL1       -0.2303
@<TRIPOS>BOND
     1     7     8    1
     2     8     9   ar
     3     9    10   ar
     4    10    11   ar
     5    11     1    1
     6     1     2   am
     7     2     3    2
     8     2     4   am
     9    18     4    1
    10    18    19    1
    11    19    20    1
    12    20    29    1
    13    29    30    1
    14    20    31    1
    15    31    32    1
    16    20    21    1
    17    21    22    1
    18    22    23   ar
    19    23    24   ar
    20    24    25    1
    21    24    26   ar
    22    26    27   ar
    23    27    28   ar
    24    11    12   ar
    25    12    13   ar
    26    13    14   ar
    27    14    15   ar
    28    15    16   ar
    29    16    17   ar
    30    17     8   ar
    31    15    10   ar
    32    28    18    1
    33    28    22   ar
    34     1     5    1
    35     4     6    1
@<TRIPOS>MOLECULE
*****
 32 35 0 0 0
SMALL
GASTEIGER

@<TRIPOS>ATOM
      1 N          -6.1245  -17.6617   23.5539 N.am    1  UNL1       -0.2683
      2 C          -7.3918  -17.3485   22.8151 C.2     1  UNL1        0.3047
      3 O          -7.3408  -16.9753   21.3632 O.2     1  UNL1       -0.2525
      4 N          -8.7101  -17.4085   23.5282 N.am    1  UNL1       -0.2863
      5 H          -6.1579  -17.9066   24.5069 H       1  UNL1        0.1564
      6 H          -8.7435  -17.6535   24.4812 H       1  UNL1        0.1512
      7 C          -6.1276  -21.7786   20.0467 C.3     1  UNL1        0.0521
      8 C          -5.1381  -20.7044   20.3886 C.ar    1  UNL1        0.0594
      9 C          -5.4669  -19.6902   21.4437 C.ar    1  UNL1        0.0160
     10 C          -4.4774  -18.6159   21.7857 C.ar    1  UNL1        0.0162
     11 C          -4.8062  -17.6017   22.8408 C.ar    1  UNL1        0.0516
     12 C          -3.8167  -16.5275   23.1828 C.ar    1  UNL1        0.0147
     13 C          -2.4984  -16.4675   22.4696 C.ar    1  UNL1        0.0013
     14 C          -2.1697  -17.4817   21.4145 C.ar    1  UNL1        0.0016
     15 C          -3.1592  -18.5559   21.0726 C.ar    1  UNL1        0.0204
     16 C          -2.8304  -19.5701   20.0175 C.ar    1  UNL1        0.0984
     17 N          -3.8199  -20.6444   19.6755 N.ar    1  UNL1       -0.2481
     18 C          -9.9773  -17.0954   22.7894 C.3     1  UNL1        0.1021
     19 C          -9.9228  -16.3476   21.4902 C.3     1  UNL1        0.0700
     20 C         -11.1902  -16.0344   20.7514 C.3     1  UNL1        0.2000
     21 O         -12.5120  -16.4690   21.3117 O.3     1  UNL1       -0.4771
     22 C         -12.5664  -17.2168   22.6109 C.ar    1  UNL1        0.1368
     23 C         -13.8882  -17.6514   23.1712 C.ar    1  UNL1        0.0480
     24 C         -13.9427  -18.3992   24.4704 C.ar    1  UNL1        0.0607
     25 CL        -15.2645  -18.8338   25.0307 Cl      1  UNL1       -0.0821
     26 C         -12.6754  -18.7124   25.2092 C.ar    1  UNL1        0.0113
     27 C         -11.3537  -18.2778   24.6489 C.ar    1  UNL1        0.0012
     28 C         -11.2992  -17.5300   23.3497 C.ar    1  UNL1        0.0297
     29 C         -12.1092  -15.5066   19.6899 C.3     1  UNL1        0.2357
     30 F         -11.5493  -15.0277   18.3834 F       1  UNL1       -0.2303
     31 C         -10.1876  -15.4165   19.8223 C.3     1  UNL1        0.2357
     32 F          -9.4636  -14.1659   20.2246 F       1  UNL1       -0.2303
@<TRIPOS>BOND
     1     7     8    1
     2     8     9   ar
     3     9    10   ar
     4    10    11   ar
     5    11     1    1
     6     1     2   am
     7     2     3    2
     8     2     4   am
     9    18     4    1
    10    18    19    1
    11    19    20    1
    12    20    29    1
    13    29    30    1
    14    20    31    1
    15    31    32    1
    16    20    21    1
    17    21    22    1
    18    22    23   ar
    19    23    24   ar
    20    24    25    1
    21    24    26   ar
    22    26    27   ar
    23    27    28   ar
    24    11    12   ar
    25    12    13   ar
    26    13    14   ar
    27    14    15   ar
    28    15    16   ar
    29    16    17   ar
    30    17     8   ar
    31    15    10   ar
    32    28    18    1
    33    28    22   ar
    34     1     5    1
    35     4     6    1
@<TRIPOS>MOLECULE
*****
 32 35 0 0 0
SMALL
GASTEIGER

@<TRIPOS>ATOM
      1 N           6.8732   -2.3534   22.1758 N.am    1  UNL1       -0.2683
      2 C           6.9472   -3.4659   23.1793 C.2     1  UNL1        0.3047
      3 O           6.0676   -4.6715   23.0287 O.2     1  UNL1       -0.2525
      4 N           7.9009   -3.3727   24.3333 N.am    1  UNL1       -0.2863
      5 H           7.4505   -1.5621   22.2747 H       1  UNL1        0.1564
      6 H           8.4782   -2.5814   24.4322 H       1  UNL1        0.1512
      7 C           2.4107    0.2946   23.7003 C.3     1  UNL1        0.0521
      8 C           2.8110   -0.4372   22.4536 C.ar    1  UNL1        0.0594
      9 C           4.1651   -1.0759   22.3610 C.ar    1  UNL1        0.0160
     10 C           4.5654   -1.8078   21.1144 C.ar    1  UNL1        0.0162
     11 C           5.9195   -2.4465   21.0218 C.ar    1  UNL1        0.0516
     12 C           6.3199   -3.1784   19.7752 C.ar    1  UNL1        0.0147
     13 C           5.3662   -3.2715   18.6211 C.ar    1  UNL1        0.0013
     14 C           4.0121   -2.6328   18.7137 C.ar    1  UNL1        0.0016
     15 C           3.6118   -1.9009   19.9604 C.ar    1  UNL1        0.0204
     16 C           2.2577   -1.2622   20.0530 C.ar    1  UNL1        0.0984
     17 N           1.8574   -0.5304   21.2996 N.ar    1  UNL1       -0.2481
     18 C           7.9749   -4.4852   25.3367 C.3     1  UNL1        0.1021
     19 C           8.4677   -5.8393   24.9203 C.3     1  UNL1        0.0700
     20 C           8.5417   -6.9518   25.9238 C.3     1  UNL1        0.2000
     21 O           8.1229   -6.7102   27.3437 O.3     1  UNL1       -0.4771
     22 C           7.6301   -5.3560   27.7601 C.ar    1  UNL1        0.1368
     23 C           7.2113   -5.1144   29.1800 C.ar    1  UNL1        0.0480
     24 C           6.7185   -3.7602   29.5965 C.ar    1  UNL1        0.0607
     25 CL          6.2996   -3.5186   31.0165 Cl      1  UNL1       -0.0821
     26 C           6.6445   -2.6478   28.5931 C.ar    1  UNL1        0.0113
     27 C           7.0633   -2.8894   27.1732 C.ar    1  UNL1        0.0012
     28 C           7.5561   -4.2436   26.7567 C.ar    1  UNL1        0.0297
     29 C           8.7913   -8.3123   26.5040 C.3     1  UNL1        0.2357
     30 F           7.6924   -9.0320   27.2283 F       1  UNL1       -0.2303
     31 C           9.0472   -7.6660   24.7053 C.3     1  UNL1        0.2357
     32 F           8.2457   -7.6457   23.4376 F       1  UNL1       -0.2303
@<TRIPOS>BOND
     1     7     8    1
     2     8     9   ar
     3     9    10   ar
     4    10    11   ar
     5    11     1    1
     6     1     2   am
     7     2     3    2
     8     2     4   am
     9    18     4    1
    10    18    19    1
    11    19    20    1
    12    20    29    1
    13    29    30    1
    14    20    31    1
    15    31    32    1
    16    20    21    1
    17    21    22    1
    18    22    23   ar
    19    23    24   ar
    20    24    25    1
    21    24    26   ar
    22    26    27   ar
    23    27    28   ar
    24    11    12   ar
    25    12    13   ar
    26    13    14   ar
    27    14    15   ar
    28    15    16   ar
    29    16    17   ar
    30    17     8   ar
    31    15    10   ar
    32    28    18    1
    33    28    22   ar
    34     1     5    1
    35     4     6    1
@<TRIPOS>MOLECULE
*****
 32 35 0 0 0
SMALL
GASTEIGER

@<TRIPOS>ATOM
      1 N           2.2901    1.8730   23.0385 N.am    1  UNL1       -0.2683
      2 C           0.8233    2.0199   23.3158 C.2     1  UNL1        0.3047
      3 O           0.0180    0.8291   23.7441 O.2     1  UNL1       -0.2525
      4 N           0.1617    3.3577   23.1647 N.am    1  UNL1       -0.2863
      5 H           2.8187    2.6546   22.7574 H       1  UNL1        0.1564
      6 H           0.6903    4.1392   22.8836 H       1  UNL1        0.1512
      7 C           2.9072   -0.0693   18.0288 C.3     1  UNL1        0.0521
      8 C           3.2491   -0.5871   19.3945 C.ar    1  UNL1        0.0594
      9 C           2.9294    0.2329   20.6092 C.ar    1  UNL1        0.0160
     10 C           3.2713   -0.2848   21.9748 C.ar    1  UNL1        0.0162
     11 C           2.9516    0.5353   23.1895 C.ar    1  UNL1        0.0516
     12 C           3.2935    0.0175   24.5552 C.ar    1  UNL1        0.0147
     13 C           3.9550   -1.3203   24.7062 C.ar    1  UNL1        0.0013
     14 C           4.2747   -2.1403   23.4916 C.ar    1  UNL1        0.0016
     15 C           3.9328   -1.6225   22.1259 C.ar    1  UNL1        0.0204
     16 C           4.2524   -2.4425   20.9112 C.ar    1  UNL1        0.0984
     17 N           3.9106   -1.9248   19.5456 N.ar    1  UNL1       -0.2481
     18 C          -1.3050    3.5045   23.4420 C.3     1  UNL1        0.1021
     19 C          -1.7921    3.6329   24.8549 C.3     1  UNL1        0.0700
     20 C          -3.2590    3.7798   25.1321 C.3     1  UNL1        0.2000
     21 O          -4.2387    3.7983   23.9965 O.3     1  UNL1       -0.4771
     22 C          -3.7516    3.6700   22.5836 C.ar    1  UNL1        0.1368
     23 C          -4.7314    3.6885   21.4480 C.ar    1  UNL1        0.0480
     24 C          -4.2443    3.5601   20.0350 C.ar    1  UNL1        0.0607
     25 CL         -5.2242    3.5786   18.8994 Cl      1  UNL1       -0.0821
     26 C          -2.7776    3.4132   19.7578 C.ar    1  UNL1        0.0113
     27 C          -1.7978    3.3947   20.8934 C.ar    1  UNL1        0.0012
     28 C          -2.2849    3.5231   22.3063 C.ar    1  UNL1        0.0297
     29 C          -4.5400    3.9395   25.8960 C.3     1  UNL1        0.2357
     30 F          -4.5164    4.0070   27.3942 F       1  UNL1       -0.2303
     31 C          -2.7241    3.8168   26.5331 C.3     1  UNL1        0.2357
     32 F          -1.8698    2.6926   27.0396 F       1  UNL1       -0.2303
@<TRIPOS>BOND
     1     7     8    1
     2     8     9   ar
     3     9    10   ar
     4    10    11   ar
     5    11     1    1
     6     1     2   am
     7     2     3    2
     8     2     4   am
     9    18     4    1
    10    18    19    1
    11    19    20    1
    12    20    29    1
    13    29    30    1
    14    20    31    1
    15    31    32    1
    16    20    21    1
    17    21    22    1
    18    22    23   ar
    19    23    24   ar
    20    24    25    1
    21    24    26   ar
    22    26    27   ar
    23    27    28   ar
    24    11    12   ar
    25    12    13   ar
    26    13    14   ar
    27    14    15   ar
    28    15    16   ar
    29    16    17   ar
    30    17     8   ar
    31    15    10   ar
    32    28    18    1
    33    28    22   ar
    34     1     5    1
    35     4     6    1
